data_image0
_chemical_formula_structural       FeHCSFeS2FeS2FeSCHS2FeS2FeS2FeSFeS3C3H2C6H4C6H4CSHCH2C6NH3CH3C2H2NC5HCHCH10CH3C2H6CNH2CHCHC4H6SH2CNCH2CHC2H2CH3C2NC5SHC2H10C4HFeC4H2C2NC7H3CH12CHCH2C2HCH5SHC2FeCSCFeS2FeS2FeSFeS3FeS2FeS2FeSFeS3CHCH2C6H4C6H4C2HC2HC9HCH2C2H2CNC9H14C2SNHC2H4CNC3H2SH4CNC3HSCH12C2HCH4C2HSH2CH2CH3C2HCH3FeH2C4H5FeS2FeS2FeSFeS3FeS2FeS2FeSFeS3HSH2CHSCFeHCH3S2CH3CSC7H4C6H2CHC6H4C6H4C6H4C2H2CHC2H2C2H3CH2NHC3NCH4C2HCH5CNCHCNFeCSCH2CHCH6NC9H15C2HC3SHSH2CFe2HCH3CH3NC5H14CHC2H4FeH3SHC2HC2H3CHC2HC2HFeSCH2C2NC3HFeS2FeS2FeSFeS3FeS2FeS2FeSFeS3HSHCSCFeCFeH3CFeS2HC5HC6H4C6H4C6H4C6H4C6H5C2H2C3H5C4HNC3H2CH5CH2C2H2SH2CNC2HCH3FeNHCH7C2H5CHCHNC3HC2HCH2FeC2HCH2C3H2CH2C2HCH3SC3HCH4C2H2C2HC2H6CHFeSCFeS2FeS2FeSFeCS2FeS2FeS2FeSFeS3CHCH2C6H4C6H3C2HCH2C6H5C2H2CH3C2H5CH2SHCN2C6HCH15NC3H2C2HCH6CH2C3HCH2CH5CHC2H2NH3CHNC5H3SH4CH2C2HC2H2CSCHFeSHFeS2FeS2FeSFeS3FeS2FeS2FeSFeS3C3H2C6H4C6H6CH2C7H3C4H4C4H4CHSH3CH2C2HC3NCH4CH3NC4SH3CH8CH2NC8H12CHSCHCH3C2NH2C8H2CH2CHC2H6NH2CHFeSHFeS2FeSHFeSFeS3FeS2FeS2FeSFeS3C2H2C6H4C6H7CHC6H4SHC4H2C2NH6C3H2SCHCH2CH2CH5CHC3HC2HNC8H15NC9H8CH3SHNHCHCSHCHFeSHFeS2FeSHFeSFeSHSFeS2FeS2FeSFeS3C2H2C7H3C6H9C6H4C3H2NC2HC3HCHCH5CHSC2SHCNHCHCHCHCHNCH4C3HC2H5CH2CH2NC4H5CSH9C2HNC2HC6H2CHC3H2C2H4C2H2SHCHC3H2C5HCH5CHCH5CH2SFeS2CS2CFe2SHFeS2FeSHFeSFeS3FeS2FeCSFeH3S2CHCH2CH4C6H4C6H4SC8H4C6H5CH2C3HC3H2CH2C5HCHNH2CHSNC4HC3H2CH7CH2CH6C2SH3NH2C2HC3SCHCSFeNSC3H4NHC7H5C2H2CFe2HC4FeHSH3CH3CH5CHSHCH8CH2FeSC2SFeS2FeSFeS2FeS2FeSHFeSFeS3FeS2FeHSFeHCHS2C3H2CH2CHC6H4C6H4CH2C6H2CSC6H8C2H2C3HNHCHCSCH4CH2FeC2H3NC3HNC8HCH2C2HC3SNCHNH4CHCH4C2H2CHCH4CH3C2HC2H2CH2SC2H2C3FeCH6NH7CH5CNC5SCH10FeCSHCHCHC2HSC2H2CH4FeCSCFeS2FeS2FeSFeS3FeS2FeSCFeSFeSCSH2CHC7H4C6H4C2H2C7H7CH4C2HCH7C2H2CH3C3H4C2H3CHSH4CH4CSNC6H12CHCHC2H2CHNHCHCHCNCHNH2C2H3CNC8H2C3H5CHNC6H3CHSCH3C3H6SH2FeCSHFeS2FeS2FeSFeS3FeS2CSHFeNFeSHSH3C8H4C6H4C3H2C6H5SNC3HC3H6CH2CHC3H2C2HSH3C3H4C3HNC3H10N2CHCHC2H5C2H2CH2CHCHCSNC2H5C2H3CHCH4C2HCHCHCHCHFeSH7CHCH2CH2FeCSCFeS2FeS2FeSFeS3FeSCFeSHFeSFeS2HC2SH2CH2CHC6H4C6H5C2H3C6H4CHNC2H6CH4NHNHCHNC9H14CH4C7HCNSCH2SNCH2CH4CHC2H3CH2CH3CH3C2H5CH2SC2H2SH2CH2SC3H4C2HC3FeHSHFeS2FeS2FeSFeS3FeSC2SHFeSFeS2C2HC2H2CHCHC6H4C6H4C3H3C6H4C2NC4HCHNFeH2C2H7SH4NH4CH2CH5C2HCH4CH2CH2S2CHC2HNCH3C2H5CH4CSH2SC2HCH2C2H6CHCH2SC2HCFeS2HSNH2FeHSFeS2FeSH2S2FeSCFeS2FeSFeS3FeS2FeSFeS2CHC2H3CHC2H4C6H4C6H5CHC2H5C6H4C6H4CHCH4CHNH4C2HNC4HFeH3CH2FeHC4H2CHC7HCHC4HC3SCHC3HC2HCH2CH2CSHNC3HSHCHCH8NC5HC3H5CH4C2HCH4CH2NH6CHCFeC2H2C2FeS2H3CHFeS2FeS2FeSFeHS2FeSHFeS2FeSFeS3FeCSFeHFeS2CH2CHC3H2C3H2C7H3C6H4C2HC2H4C7H4C6H4C3HNCHSHCH2CH4CHCHCH2SH2C2H6SHC4H2CHC3H2NH2CSH2CH4C2HCHC2HCHC4NH5NC4SC2H9C4HNHCHSCFeHCSH3SFeH2C3H2C2HC2SH2CH3CHCH2C2SNFeS2FeS2FeCFeS3FeS2FeS2FeSFeS3C3H3C3H2C6H4C6H4CHCNHC6H5NHCH4C2H4CHCH3C2H2CH2CHSC2H3FeCH3CH4CH7N2C9H14CH3C7HC2HCHCH4C2H4C2H2CH4CH2CHC4SCSH2CH2FeSHFeHSFeS2C2FeS3FeS2FeS2FeSFeS3C3H3C3HC7H4C6H4CH4C6H5C2HNCH3SC2H12NC4HC2H11SC5HFeC2H2CH3CNC8NH11CH2NC3H2CHC2H4C2H4C2HCH2FeSHFeS2FeS2FeHFeS3FeS2FeS2FeSFeS3C2H2C2NH2C7H4C6H4C2H2C6H2CSC3H5CH6NH5NC4H5CHCHS2HCH6NCH3CH3C2H2CH2CHCH4CNC9H5C3HCH4C2HCHCH4C3H2CH2CH3CHC3H2FeSCFeS2FeS2FeSFeS3FeS2FeS2FeSFeS3C3H3CH3C6H4C7H4CH2C6H2CH2NC3NC3HC2HCH3NHC2H5C2H3CH3CH2CHC3H2C2HCSHNC9H10NH3CHCHSH3CH5C4H2C2HCH5C3H2CH3CHCH3C2FeSHCSCSFeS2FeS2FeSFeS3FeS2FeS2FeSFeS3FeSHCHFeSHCFeCHCSHCHCHSC6H4C6H4C6H4C7H3C6H4CHCHCH3NC7H18CHC4H4CNC2HC5HSH4NHFeHC2HCNC9H15FeHSHCHCHNCHC2NCHCH4CH3SC2H2C2H2CH2CHCH3C2HC2HC2SHC2HSHFeS2FeS2FeS2FeSFeS3FeS2FeS2FeSFeS3FeS2CHFeH2CSCH3C3H3C6H4C6H4C6H4C6H4C6H4FeHC4HNC5H6CH2CH2FeHCHCHNH2C2H2CHFeHC2N2HCH2NCH7CH2CHCH4CNH4C2H2CH3CH2CH2CHCHCHCH2CH2CH2C3HC2HCH3CH2CHC2SC2HCH2C2H3C2H2CHC2H2C2SCHSHCH4SCFeHSNFeS2FeS2FeSFeS3FeS2FeS2FeSFeS3C2H2C2H3C6H4C6H5CNCHC6H5C2H2CH2C4NH6C3H4NC9H24CH2C6HCNHC4HNC3HCHCHCH10NH3CH8C4HCSCHCH3CHC2HC3H2CHC2NH5CFeHSHFeS2FeS2FeSFeS3FeS2FeS2FeHFeS3C2H2C3H2C6H4C6H4C3H2C6H4C2HNC9H13NC7H15CHC2HSHCHC2HC2HC5SCH2CH5CH2CHNCH3SH5C
_chemical_formula_sum              "Fe256 H2304 C1920 S512 N128"
_cell_length_a       76.3858
_cell_length_b       76.4468
_cell_length_c       42.7146
_cell_angle_alpha    89.7117
_cell_angle_beta     89.7348
_cell_angle_gamma    89.2993

_space_group_name_H-M_alt    "P 1"
_space_group_IT_number       1

loop_
  _space_group_symop_operation_xyz
  'x, y, z'

loop_
  _atom_site_type_symbol
  _atom_site_label
  _atom_site_symmetry_multiplicity
  _atom_site_fract_x
  _atom_site_fract_y
  _atom_site_fract_z
  _atom_site_occupancy
  Fe  Fe1       1.0  0.16997  0.31658  0.02801  1.0000
  H   H1        1.0  0.12738  0.29432  0.42870  1.0000
  C   C1        1.0  0.22654  0.23872  0.07687  1.0000
  S   S1        1.0  0.17842  0.32372  0.07643  1.0000
  Fe  Fe2       1.0  0.16983  0.18720  0.06041  1.0000
  S   S2        1.0  0.18478  0.17747  0.01850  1.0000
  S   S3        1.0  0.17085  0.21500  0.08016  1.0000
  Fe  Fe3       1.0  0.15846  0.14973  0.07874  1.0000
  S   S4        1.0  0.17361  0.13759  0.03861  1.0000
  S   S5        1.0  0.13774  0.13376  0.10464  1.0000
  Fe  Fe4       1.0  0.19502  0.15654  0.05143  1.0000
  S   S6        1.0  0.22468  0.15202  0.04856  1.0000
  C   C2        1.0  0.22910  0.25680  0.07627  1.0000
  H   H2        1.0  0.01303  0.00796  0.28621  1.0000
  S   S7        1.0  0.18073  0.16682  0.09374  1.0000
  S   S8        1.0  0.14636  0.17098  0.04892  1.0000
  Fe  Fe5       1.0  0.10073  0.09251  0.34354  1.0000
  S   S9        1.0  0.09161  0.10949  0.30305  1.0000
  S   S10       1.0  0.10377  0.10538  0.39230  1.0000
  Fe  Fe6       1.0  0.10142  0.05937  0.30114  1.0000
  S   S11       1.0  0.09309  0.07447  0.25863  1.0000
  S   S12       1.0  0.10753  0.02994  0.29995  1.0000
  Fe  Fe7       1.0  0.11183  0.09504  0.27430  1.0000
  S   S13       1.0  0.13379  0.10833  0.24687  1.0000
  Fe  Fe8       1.0  0.07335  0.08745  0.29095  1.0000
  S   S14       1.0  0.04602  0.08947  0.26918  1.0000
  S   S15       1.0  0.12173  0.07903  0.31522  1.0000
  S   S16       1.0  0.08093  0.07133  0.33307  1.0000
  C   C3        1.0  0.10000  0.02069  0.23844  1.0000
  C   C4        1.0  0.10540  0.01515  0.26816  1.0000
  C   C5        1.0  0.24319  0.29085  0.05152  1.0000
  H   H3        1.0  0.09648  0.03425  0.23457  1.0000
  H   H4        1.0  0.11705  0.14382  0.05069  1.0000
  C   C6        1.0  0.13437  0.11566  0.20745  1.0000
  C   C7        1.0  0.14962  0.12373  0.19619  1.0000
  C   C8        1.0  0.15084  0.12955  0.16490  1.0000
  C   C9        1.0  0.13682  0.12720  0.14449  1.0000
  C   C10       1.0  0.12159  0.11907  0.15573  1.0000
  C   C11       1.0  0.12030  0.11341  0.18710  1.0000
  H   H5        1.0  0.16060  0.12549  0.21172  1.0000
  H   H6        1.0  0.16266  0.13572  0.15651  1.0000
  H   H7        1.0  0.11065  0.11724  0.14013  1.0000
  H   H8        1.0  0.10843  0.10735  0.19549  1.0000
  C   C12       1.0  0.14656  0.12974  0.45573  1.0000
  C   C13       1.0  0.15127  0.12040  0.42849  1.0000
  C   C14       1.0  0.13854  0.11222  0.40974  1.0000
  C   C15       1.0  0.12070  0.11377  0.41712  1.0000
  C   C16       1.0  0.11600  0.12276  0.44476  1.0000
  C   C17       1.0  0.12879  0.13056  0.46403  1.0000
  H   H9        1.0  0.16493  0.11944  0.42192  1.0000
  H   H10       1.0  0.14256  0.10461  0.38970  1.0000
  H   H11       1.0  0.10232  0.12391  0.45113  1.0000
  H   H12       1.0  0.02364  0.02269  0.21295  1.0000
  C   C18       1.0  0.24042  0.15162  0.07924  1.0000
  S   S17       1.0  0.16329  0.14099  0.47691  1.0000
  H   H13       1.0  0.02522  0.13325  0.20752  1.0000
  C   C19       1.0  0.23564  0.14992  0.11077  1.0000
  H   H14       1.0  0.21790  0.31030  0.02704  1.0000
  H   H15       1.0  0.22196  0.14883  0.11707  1.0000
  C   C20       1.0  0.16688  0.26855  0.03024  1.0000
  C   C21       1.0  0.16371  0.25307  0.01362  1.0000
  C   C22       1.0  0.16510  0.23655  0.02835  1.0000
  C   C23       1.0  0.16965  0.23535  0.05997  1.0000
  C   C24       1.0  0.17287  0.25084  0.07657  1.0000
  C   C25       1.0  0.17153  0.26735  0.06182  1.0000
  N   N1        1.0  0.11340  0.12156  0.02052  1.0000
  H   H16       1.0  0.16251  0.22477  0.01532  1.0000
  H   H17       1.0  0.17633  0.25004  0.10106  1.0000
  H   H18       1.0  0.17398  0.27907  0.07496  1.0000
  C   C26       1.0  0.04454  0.02404  0.24626  1.0000
  H   H19       1.0  0.16980  0.30818  0.45740  1.0000
  H   H20       1.0  0.03706  0.13069  0.26111  1.0000
  H   H21       1.0  0.14233  0.31279  0.48383  1.0000
  C   C27       1.0  0.02519  0.09015  0.28806  1.0000
  C   C28       1.0  0.02333  0.09382  0.31996  1.0000
  H   H22       1.0  0.14853  0.29818  0.07559  1.0000
  H   H23       1.0  0.03485  0.09557  0.33418  1.0000
  N   N2        1.0  0.12317  0.29352  0.09557  1.0000
  C   C29       1.0  0.13468  0.30241  0.07261  1.0000
  C   C30       1.0  0.10475  0.29868  0.08913  1.0000
  C   C31       1.0  0.12768  0.30023  0.12711  1.0000
  C   C32       1.0  0.12526  0.27430  0.09252  1.0000
  C   C33       1.0  0.13048  0.26327  0.11784  1.0000
  H   H24       1.0  0.10081  0.29552  0.06480  1.0000
  C   C34       1.0  0.13240  0.24518  0.11393  1.0000
  H   H25       1.0  0.14703  0.29235  0.40555  1.0000
  C   C35       1.0  0.03363  0.01536  0.22556  1.0000
  H   H26       1.0  0.21745  0.30844  0.08277  1.0000
  H   H27       1.0  0.09694  0.14416  0.02967  1.0000
  H   H28       1.0  0.14255  0.01459  0.13123  1.0000
  H   H29       1.0  0.11011  0.11549  0.06962  1.0000
  H   H30       1.0  0.10263  0.31305  0.09202  1.0000
  H   H31       1.0  0.09560  0.29185  0.10532  1.0000
  H   H32       1.0  0.12616  0.31475  0.12843  1.0000
  H   H33       1.0  0.11900  0.29475  0.14561  1.0000
  H   H34       1.0  0.14159  0.29727  0.13306  1.0000
  H   H35       1.0  0.13338  0.26826  0.14079  1.0000
  C   C36       1.0  0.09926  0.00864  0.21356  1.0000
  H   H36       1.0  0.13684  0.23697  0.13317  1.0000
  H   H37       1.0  0.20761  0.21403  0.16707  1.0000
  H   H38       1.0  0.17216  0.31258  0.41642  1.0000
  C   C37       1.0  0.13249  0.11781  0.02042  1.0000
  C   C38       1.0  0.12913  0.23756  0.08503  1.0000
  H   H39       1.0  0.01127  0.08520  0.24526  1.0000
  H   H40       1.0  0.04309  0.03805  0.24974  1.0000
  H   H41       1.0  0.12303  0.31969  0.46378  1.0000
  H   H42       1.0  0.12483  0.13761  0.48482  1.0000
  H   H43       1.0  0.12254  0.07737  0.20936  1.0000
  H   H44       1.0  0.13575  0.10395  0.01530  1.0000
  C   C39       1.0  0.12204  0.26607  0.06340  1.0000
  N   N3        1.0  0.22427  0.28670  0.05278  1.0000
  H   H45       1.0  0.24947  0.28520  0.03023  1.0000
  H   H46       1.0  0.25042  0.28580  0.07224  1.0000
  C   C40       1.0  0.10518  0.11140  0.04624  1.0000
  H   H47       1.0  0.12201  0.24204  0.03712  1.0000
  C   C41       1.0  0.15736  0.16766  0.39259  1.0000
  H   H48       1.0  0.20275  0.29031  0.08478  1.0000
  C   C42       1.0  0.01182  0.13302  0.28324  1.0000
  C   C43       1.0  0.24862  0.14926  0.13419  1.0000
  C   C44       1.0  0.20998  0.24079  0.02911  1.0000
  C   C45       1.0  0.21674  0.29390  0.08218  1.0000
  H   H49       1.0  0.13847  0.12072  0.04346  1.0000
  H   H50       1.0  0.09071  0.11324  0.04632  1.0000
  H   H51       1.0  0.20228  0.23453  0.01117  1.0000
  H   H52       1.0  0.15564  0.07972  0.20954  1.0000
  H   H53       1.0  0.22377  0.28916  0.10334  1.0000
  H   H54       1.0  0.14472  0.17325  0.43661  1.0000
  S   S18       1.0  0.16482  0.28899  0.01043  1.0000
  H   H55       1.0  0.09542  0.01315  0.19052  1.0000
  H   H56       1.0  0.11158  0.31850  0.41442  1.0000
  C   C46       1.0  0.21569  0.29596  0.02621  1.0000
  N   N4        1.0  0.14574  0.31546  0.43398  1.0000
  C   C47       1.0  0.21779  0.20881  0.15186  1.0000
  H   H57       1.0  0.19941  0.19861  0.11877  1.0000
  H   H58       1.0  0.20596  0.26586  0.00941  1.0000
  C   C48       1.0  0.15583  0.15987  0.36316  1.0000
  H   H59       1.0  0.24477  0.14764  0.15842  1.0000
  C   C49       1.0  0.11101  0.14043  0.02785  1.0000
  C   C50       1.0  0.14325  0.16785  0.41333  1.0000
  H   H60       1.0  0.16972  0.17311  0.39991  1.0000
  H   H61       1.0  0.06622  0.02159  0.27793  1.0000
  C   C51       1.0  0.21311  0.20005  0.12472  1.0000
  H   H62       1.0  0.16741  0.15985  0.34863  1.0000
  H   H63       1.0  0.22231  0.18575  0.08465  1.0000
  H   H64       1.0  0.13929  0.12603  0.00278  1.0000
  C   C52       1.0  0.00999  0.08798  0.26997  1.0000
  C   C53       1.0  0.16501  0.31671  0.43791  1.0000
  N   N5        1.0  0.13833  0.14228  0.32390  1.0000
  C   C54       1.0  0.15301  0.14536  0.30165  1.0000
  C   C55       1.0  0.13793  0.12332  0.33093  1.0000
  C   C56       1.0  0.12188  0.14736  0.30759  1.0000
  C   C57       1.0  0.13998  0.15187  0.35377  1.0000
  C   C58       1.0  0.12593  0.15218  0.37568  1.0000
  S   S19       1.0  0.18965  0.33372  0.00398  1.0000
  H   H65       1.0  0.24532  0.30527  0.05100  1.0000
  C   C59       1.0  0.01636  0.13380  0.22740  1.0000
  C   C60       1.0  0.13749  0.32092  0.46388  1.0000
  H   H66       1.0  0.16561  0.13994  0.31066  1.0000
  H   H67       1.0  0.15088  0.13866  0.27885  1.0000
  H   H68       1.0  0.15449  0.15955  0.29652  1.0000
  H   H69       1.0  0.14996  0.11901  0.34351  1.0000
  H   H70       1.0  0.13704  0.11539  0.30936  1.0000
  H   H71       1.0  0.12649  0.11983  0.34577  1.0000
  H   H72       1.0  0.12108  0.16176  0.30393  1.0000
  H   H73       1.0  0.12086  0.14094  0.28428  1.0000
  H   H74       1.0  0.10998  0.14330  0.32066  1.0000
  H   H75       1.0  0.11386  0.14537  0.37131  1.0000
  C   C61       1.0  0.24901  0.20401  0.13998  1.0000
  C   C62       1.0  0.11359  0.33697  0.37730  1.0000
  C   C63       1.0  0.22190  0.26750  0.05218  1.0000
  C   C64       1.0  0.12400  0.24798  0.05981  1.0000
  H   H76       1.0  0.01712  0.13162  0.30666  1.0000
  Fe  Fe9       1.0  0.16212  0.15931  0.00919  1.0000
  C   C65       1.0  0.02310  0.13252  0.25757  1.0000
  C   C66       1.0  0.12059  0.32638  0.40106  1.0000
  C   C67       1.0  0.14168  0.29679  0.42849  1.0000
  C   C68       1.0  0.23544  0.21068  0.15959  1.0000
  H   H77       1.0  0.11830  0.27358  0.04295  1.0000
  H   H78       1.0  0.11679  0.15985  0.42145  1.0000
  C   C69       1.0  0.14300  0.01698  0.15621  1.0000
  C   C70       1.0  0.12752  0.16029  0.40475  1.0000
  N   N6        1.0  0.14097  0.05578  0.21173  1.0000
  C   C71       1.0  0.15622  0.06599  0.20073  1.0000
  C   C72       1.0  0.12475  0.06410  0.19936  1.0000
  C   C73       1.0  0.14030  0.05706  0.24641  1.0000
  C   C74       1.0  0.14242  0.03755  0.20028  1.0000
  C   C75       1.0  0.14342  0.02281  0.22072  1.0000
  C   C76       1.0  0.14251  0.03410  0.16764  1.0000
  C   C77       1.0  0.05752  0.01473  0.26222  1.0000
  H   H79       1.0  0.20124  0.29415  0.02656  1.0000
  H   H80       1.0  0.13405  0.31687  0.07532  1.0000
  H   H81       1.0  0.15689  0.06696  0.17479  1.0000
  C   C78       1.0  0.22605  0.19297  0.10538  1.0000
  H   H82       1.0  0.16872  0.05995  0.20894  1.0000
  H   H83       1.0  0.12512  0.06591  0.17355  1.0000
  H   H84       1.0  0.14738  0.28817  0.44712  1.0000
  H   H85       1.0  0.11308  0.05610  0.20514  1.0000
  H   H86       1.0  0.15233  0.05153  0.25745  1.0000
  H   H87       1.0  0.13928  0.07089  0.25425  1.0000
  H   H88       1.0  0.12869  0.05022  0.25624  1.0000
  H   H89       1.0  0.14310  0.02398  0.24592  1.0000
  H   H90       1.0  0.14187  0.04463  0.15070  1.0000
  H   H91       1.0  0.25304  0.18867  0.09703  1.0000
  H   H92       1.0  0.13117  0.22360  0.08192  1.0000
  H   H93       1.0  0.13114  0.29969  0.04792  1.0000
  C   C79       1.0  0.21228  0.25891  0.02842  1.0000
  H   H94       1.0  0.22095  0.29149  0.00325  1.0000
  C   C80       1.0  0.24376  0.19482  0.11278  1.0000
  H   H95       1.0  0.10805  0.09716  0.04439  1.0000
  H   H96       1.0  0.23841  0.21727  0.18120  1.0000
  C   C81       1.0  0.21691  0.23075  0.05342  1.0000
  C   C82       1.0  0.00648  0.09592  0.33328  1.0000
  H   H97       1.0  0.21454  0.21679  0.05423  1.0000
  C   C83       1.0  0.13876  0.32643  0.40809  1.0000
  H   H98       1.0  0.23656  0.26240  0.09508  1.0000
  H   H99       1.0  0.16892  0.33028  0.44400  1.0000
  H   H100      1.0  0.11747  0.14886  0.00990  1.0000
  H   H101      1.0  0.14046  0.33484  0.46901  1.0000
  H   H102      1.0  0.23183  0.23086  0.09579  1.0000
  S   S20       1.0  0.14903  0.33745  0.02463  1.0000
  H   H103      1.0  0.09960  0.33725  0.37305  1.0000
  C   C84       1.0  0.14945  0.33765  0.38970  1.0000
  C   C85       1.0  0.14411  0.00577  0.20899  1.0000
  Fe  Fe10      1.0  0.16775  0.31265  0.53765  1.0000
  C   C86       1.0  0.09062  0.10566  0.93283  1.0000
  S   S21       1.0  0.18709  0.32848  0.51035  1.0000
  C   C87       1.0  0.23840  0.11093  0.64123  1.0000
  Fe  Fe11      1.0  0.16808  0.18417  0.57138  1.0000
  S   S22       1.0  0.18550  0.17687  0.53074  1.0000
  S   S23       1.0  0.16009  0.21184  0.58663  1.0000
  Fe  Fe12      1.0  0.16791  0.14673  0.59763  1.0000
  S   S24       1.0  0.18528  0.13726  0.55826  1.0000
  S   S25       1.0  0.16386  0.12640  0.63662  1.0000
  Fe  Fe13      1.0  0.20116  0.16141  0.56632  1.0000
  S   S26       1.0  0.23128  0.16016  0.56603  1.0000
  Fe  Fe14      1.0  0.16811  0.15309  0.52581  1.0000
  S   S27       1.0  0.14704  0.15665  0.96257  1.0000
  S   S28       1.0  0.18482  0.16998  0.60710  1.0000
  S   S29       1.0  0.14964  0.16135  0.56490  1.0000
  Fe  Fe15      1.0  0.10263  0.08983  0.83426  1.0000
  S   S30       1.0  0.08597  0.11070  0.81196  1.0000
  S   S31       1.0  0.12317  0.09394  0.87277  1.0000
  Fe  Fe16      1.0  0.08677  0.06090  0.79204  1.0000
  S   S32       1.0  0.06966  0.08033  0.76613  1.0000
  S   S33       1.0  0.08098  0.03156  0.78926  1.0000
  Fe  Fe17      1.0  0.09329  0.09784  0.76629  1.0000
  S   S34       1.0  0.09793  0.11799  0.72769  1.0000
  Fe  Fe18      1.0  0.06372  0.09163  0.81329  1.0000
  S   S35       1.0  0.03656  0.09973  0.83065  1.0000
  S   S36       1.0  0.11108  0.07752  0.78837  1.0000
  S   S37       1.0  0.07975  0.07167  0.83964  1.0000
  C   C88       1.0  0.08802  0.01466  0.76354  1.0000
  H   H104      1.0  0.19854  0.21705  0.56679  1.0000
  C   C89       1.0  0.01065  0.12465  0.71833  1.0000
  H   H105      1.0  0.10503  0.03058  0.73538  1.0000
  H   H106      1.0  0.04053  0.15713  0.71052  1.0000
  C   C90       1.0  0.11626  0.11982  0.70223  1.0000
  C   C91       1.0  0.11673  0.13379  0.68070  1.0000
  C   C92       1.0  0.13114  0.13597  0.66036  1.0000
  C   C93       1.0  0.14528  0.12420  0.66143  1.0000
  C   C94       1.0  0.14486  0.11029  0.68316  1.0000
  C   C95       1.0  0.13042  0.10807  0.70343  1.0000
  H   H107      1.0  0.10587  0.14297  0.67958  1.0000
  H   H108      1.0  0.13129  0.14672  0.64378  1.0000
  H   H109      1.0  0.15571  0.10107  0.68406  1.0000
  H   H110      1.0  0.13020  0.09721  0.71977  1.0000
  C   C96       1.0  0.14045  0.13890  0.93814  1.0000
  C   C97       1.0  0.14764  0.12202  0.94085  1.0000
  C   C98       1.0  0.14215  0.10854  0.92072  1.0000
  C   C99       1.0  0.12951  0.11167  0.89736  1.0000
  C   C100      1.0  0.12250  0.12860  0.89429  1.0000
  C   C101      1.0  0.12793  0.14207  0.91455  1.0000
  H   H111      1.0  0.15763  0.11936  0.95815  1.0000
  H   H112      1.0  0.14780  0.09557  0.92321  1.0000
  H   H113      1.0  0.11282  0.13132  0.87649  1.0000
  H   H114      1.0  0.12240  0.15508  0.91188  1.0000
  C   C102      1.0  0.10699  0.09885  0.97977  1.0000
  C   C103      1.0  0.09648  0.12844  0.97047  1.0000
  H   H115      1.0  0.10133  0.08028  0.94335  1.0000
  C   C104      1.0  0.24226  0.16748  0.62692  1.0000
  C   C105      1.0  0.03022  0.02722  0.70880  1.0000
  H   H116      1.0  0.22890  0.17152  0.63178  1.0000
  C   C106      1.0  0.16334  0.26523  0.53596  1.0000
  C   C107      1.0  0.16640  0.24963  0.51931  1.0000
  C   C108      1.0  0.16554  0.23318  0.53438  1.0000
  C   C109      1.0  0.16132  0.23214  0.56625  1.0000
  C   C110      1.0  0.15819  0.24775  0.58284  1.0000
  C   C111      1.0  0.15933  0.26421  0.56789  1.0000
  C   C112      1.0  0.04732  0.15083  0.73073  1.0000
  C   C113      1.0  0.04754  0.12241  0.70714  1.0000
  C   C114      1.0  0.20768  0.24355  0.57041  1.0000
  H   H117      1.0  0.15678  0.27606  0.58096  1.0000
  C   C115      1.0  0.04738  0.02158  0.71376  1.0000
  H   H118      1.0  0.06170  0.15152  0.72630  1.0000
  H   H119      1.0  0.06512  0.12411  0.75876  1.0000
  C   C116      1.0  0.01564  0.08965  0.78077  1.0000
  C   C117      1.0  0.01637  0.09608  0.81136  1.0000
  H   H120      1.0  0.25092  0.25453  0.57341  1.0000
  H   H121      1.0  0.02758  0.08623  0.76848  1.0000
  C   C118      1.0  0.09991  0.01760  0.73916  1.0000
  N   N7        1.0  0.14446  0.13285  0.79320  1.0000
  C   C119      1.0  0.13228  0.11846  0.80077  1.0000
  C   C120      1.0  0.13447  0.14618  0.77488  1.0000
  C   C121      1.0  0.15866  0.12595  0.77275  1.0000
  C   C122      1.0  0.15205  0.13970  0.82249  1.0000
  C   C123      1.0  0.15029  0.15750  0.83172  1.0000
  C   C124      1.0  0.16144  0.12835  0.84298  1.0000
  C   C125      1.0  0.15742  0.16339  0.85986  1.0000
  C   C126      1.0  0.16857  0.13440  0.87094  1.0000
  C   C127      1.0  0.16652  0.15187  0.87940  1.0000
  H   H122      1.0  0.13905  0.10675  0.81075  1.0000
  H   H123      1.0  0.12237  0.12272  0.81841  1.0000
  H   H124      1.0  0.12521  0.11390  0.77962  1.0000
  H   H125      1.0  0.12887  0.14054  0.75313  1.0000
  H   H126      1.0  0.14297  0.15713  0.76713  1.0000
  H   H127      1.0  0.12317  0.15149  0.78854  1.0000
  H   H128      1.0  0.16578  0.11472  0.78364  1.0000
  H   H129      1.0  0.15347  0.12117  0.75003  1.0000
  H   H130      1.0  0.16842  0.13625  0.76737  1.0000
  H   H131      1.0  0.14329  0.16712  0.81789  1.0000
  H   H132      1.0  0.16301  0.11457  0.83793  1.0000
  H   H133      1.0  0.15562  0.17689  0.86694  1.0000
  H   H134      1.0  0.17524  0.12539  0.88668  1.0000
  H   H135      1.0  0.17157  0.15638  0.90163  1.0000
  C   C128      1.0  0.23910  0.24696  0.57249  1.0000
  C   C129      1.0  0.05073  0.12493  0.76256  1.0000
  S   S38       1.0  0.14783  0.33467  0.53770  1.0000
  N   N8        1.0  0.21927  0.27408  0.57532  1.0000
  H   H136      1.0  0.02985  0.01140  0.77770  1.0000
  C   C130      1.0  0.24399  0.33675  0.58706  1.0000
  C   C131      1.0  0.20991  0.22541  0.56849  1.0000
  H   H137      1.0  0.24176  0.27904  0.60418  1.0000
  H   H138      1.0  0.04604  0.11152  0.76763  1.0000
  H   H139      1.0  0.16796  0.22130  0.52130  1.0000
  H   H140      1.0  0.04373  0.10842  0.70906  1.0000
  C   C132      1.0  0.05383  0.00663  0.69867  1.0000
  N   N9        1.0  0.04160  0.13251  0.73498  1.0000
  C   C133      1.0  0.22214  0.25490  0.57301  1.0000
  C   C134      1.0  0.02240  0.13222  0.74004  1.0000
  C   C135      1.0  0.23549  0.28384  0.58229  1.0000
  H   H141      1.0  0.19293  0.27392  0.59476  1.0000
  H   H142      1.0  0.02291  0.14598  0.78478  1.0000
  S   S39       1.0  0.16464  0.28560  0.51581  1.0000
  H   H143      1.0  0.04876  0.13267  0.78424  1.0000
  H   H144      1.0  0.23273  0.29805  0.58570  1.0000
  H   H145      1.0  0.21021  0.27173  0.62302  1.0000
  H   H146      1.0  0.04282  0.03693  0.80366  1.0000
  C   C136      1.0  0.22664  0.21800  0.56849  1.0000
  N   N10       1.0  0.22166  0.11241  0.62401  1.0000
  C   C137      1.0  0.22528  0.11241  0.58984  1.0000
  C   C138      1.0  0.21031  0.09737  0.63181  1.0000
  C   C139      1.0  0.21152  0.12860  0.63127  1.0000
  H   H147      1.0  0.11464  0.00605  0.70110  1.0000
  S   S40       1.0  0.22758  0.33116  0.55945  1.0000
  C   C140      1.0  0.21220  0.28082  0.54526  1.0000
  H   H148      1.0  0.16010  0.25384  0.98918  1.0000
  H   H149      1.0  0.01505  0.11842  0.69705  1.0000
  H   H150      1.0  0.15485  0.24709  0.60746  1.0000
  H   H151      1.0  0.23163  0.10010  0.58177  1.0000
  H   H152      1.0  0.21307  0.11396  0.57597  1.0000
  H   H153      1.0  0.23404  0.12340  0.58318  1.0000
  H   H154      1.0  0.21602  0.08469  0.62404  1.0000
  H   H155      1.0  0.05580  0.02878  0.72945  1.0000
  H   H156      1.0  0.02370  0.05998  0.82614  1.0000
  H   H157      1.0  0.20791  0.12937  0.65649  1.0000
  H   H158      1.0  0.21873  0.14052  0.62420  1.0000
  H   H159      1.0  0.19899  0.12918  0.61828  1.0000
  C   C141      1.0  0.01488  0.13992  0.76725  1.0000
  C   C142      1.0  0.02869  0.03588  0.80194  1.0000
  H   H160      1.0  0.20790  0.09654  0.65750  1.0000
  C   C143      1.0  0.02132  0.02151  0.78728  1.0000
  H   H161      1.0  0.19447  0.24865  0.56961  1.0000
  H   H162      1.0  0.06208  0.12246  0.70452  1.0000
  H   H163      1.0  0.04451  0.15893  0.75175  1.0000
  H   H164      1.0  0.04225  0.12806  0.68501  1.0000
  C   C144      1.0  0.09967  0.09364  0.95141  1.0000
  C   C145      1.0  0.20641  0.27814  0.60058  1.0000
  H   H165      1.0  0.19945  0.27483  0.53932  1.0000
  S   S41       1.0  0.17939  0.31992  0.58384  1.0000
  H   H166      1.0  0.23683  0.13581  0.66679  1.0000
  H   H167      1.0  0.19723  0.09863  0.62035  1.0000
  C   C146      1.0  0.24121  0.22876  0.57030  1.0000
  H   H168      1.0  0.20523  0.29248  0.60484  1.0000
  H   H169      1.0  0.22826  0.20389  0.56669  1.0000
  C   C147      1.0  0.24684  0.16167  0.59691  1.0000
  H   H170      1.0  0.22133  0.27806  0.52549  1.0000
  H   H171      1.0  0.08531  0.10162  0.91052  1.0000
  H   H172      1.0  0.25119  0.17217  0.67402  1.0000
  C   C148      1.0  0.08898  0.12300  0.94238  1.0000
  C   C149      1.0  0.01939  0.01782  0.68898  1.0000
  H   H173      1.0  0.24506  0.28316  0.56260  1.0000
  C   C150      1.0  0.01789  0.04885  0.81459  1.0000
  H   H174      1.0  0.09514  0.14216  0.97589  1.0000
  H   H175      1.0  0.08228  0.13239  0.92741  1.0000
  H   H176      1.0  0.20989  0.29527  0.54595  1.0000
  Fe  Fe19      1.0  0.19797  0.33691  0.55663  1.0000
  H   H177      1.0  0.11172  0.00832  0.82925  1.0000
  H   H178      1.0  0.02529  0.03886  0.72050  1.0000
  C   C151      1.0  0.24433  0.12406  0.66200  1.0000
  C   C152      1.0  0.10569  0.11645  0.99018  1.0000
  C   C153      1.0  0.25497  0.16792  0.65081  1.0000
  C   C154      1.0  0.24959  0.09616  0.63683  1.0000
  H   H179      1.0  0.24597  0.08567  0.62139  1.0000
  H   H180      1.0  0.25420  0.22290  0.56958  1.0000
  H   H181      1.0  0.16949  0.25025  0.49460  1.0000
  H   H182      1.0  0.00601  0.02222  0.68527  1.0000
  H   H183      1.0  0.11387  0.08900  0.99331  1.0000
  Fe  Fe20      1.0  0.07117  0.40993  0.27213  1.0000
  S   S42       1.0  0.07632  0.42443  0.31666  1.0000
  S   S43       1.0  0.04419  0.40597  0.25041  1.0000
  Fe  Fe21      1.0  0.11030  0.40869  0.25442  1.0000
  S   S44       1.0  0.11779  0.42336  0.29815  1.0000
  S   S45       1.0  0.13293  0.40385  0.22011  1.0000
  Fe  Fe22      1.0  0.09921  0.40555  0.32364  1.0000
  S   S46       1.0  0.10288  0.39155  0.37148  1.0000
  Fe  Fe23      1.0  0.09453  0.44084  0.28728  1.0000
  S   S47       1.0  0.09429  0.47079  0.29090  1.0000
  S   S48       1.0  0.09280  0.38990  0.28027  1.0000
  S   S49       1.0  0.08833  0.42735  0.24254  1.0000
  Fe  Fe24      1.0  0.09737  0.55814  0.18733  1.0000
  S   S50       1.0  0.09139  0.57080  0.23331  1.0000
  S   S51       1.0  0.09527  0.52849  0.18146  1.0000
  Fe  Fe25      1.0  0.10336  0.59401  0.15372  1.0000
  S   S52       1.0  0.09719  0.60864  0.19828  1.0000
  S   S53       1.0  0.10745  0.61257  0.11139  1.0000
  Fe  Fe26      1.0  0.11399  0.58838  0.22216  1.0000
  S   S54       1.0  0.13636  0.59252  0.25610  1.0000
  Fe  Fe27      1.0  0.07505  0.58974  0.20503  1.0000
  S   S55       1.0  0.04867  0.59830  0.22514  1.0000
  S   S56       1.0  0.12132  0.57447  0.17745  1.0000
  S   S57       1.0  0.07984  0.57629  0.15923  1.0000
  H   H184      1.0  0.05464  0.64627  0.07906  1.0000
  S   S58       1.0  0.17817  0.36507  0.05176  1.0000
  H   H185      1.0  0.24380  0.35177  0.16812  1.0000
  H   H186      1.0  0.23255  0.38314  0.03587  1.0000
  C   C155      1.0  0.04175  0.44848  0.27446  1.0000
  H   H187      1.0  0.13541  0.61416  0.20111  1.0000
  S   S59       1.0  0.16404  0.36627  0.46606  1.0000
  C   C156      1.0  0.15739  0.64041  0.20721  1.0000
  Fe  Fe28      1.0  0.16801  0.64965  0.45351  1.0000
  H   H188      1.0  0.24374  0.61208  0.01947  1.0000
  C   C157      1.0  0.02253  0.63717  0.10860  1.0000
  H   H189      1.0  0.24920  0.65283  0.30092  1.0000
  H   H190      1.0  0.20300  0.63465  0.99470  1.0000
  H   H191      1.0  0.17694  0.65644  0.28676  1.0000
  S   S60       1.0  0.14683  0.65912  0.34281  1.0000
  S   S61       1.0  0.17829  0.63762  0.40852  1.0000
  C   C158      1.0  0.23599  0.34653  0.12052  1.0000
  H   H192      1.0  0.13786  0.65790  0.16156  1.0000
  H   H193      1.0  0.11887  0.35640  0.34202  1.0000
  H   H194      1.0  0.05820  0.61063  0.15633  1.0000
  C   C159      1.0  0.24499  0.64687  0.00594  1.0000
  S   S62       1.0  0.13613  0.35041  0.10578  1.0000
  C   C160      1.0  0.16379  0.63478  0.15250  1.0000
  C   C161      1.0  0.13871  0.61099  0.28054  1.0000
  C   C162      1.0  0.15271  0.61133  0.30179  1.0000
  C   C163      1.0  0.15510  0.62576  0.32159  1.0000
  C   C164      1.0  0.14362  0.64013  0.32000  1.0000
  C   C165      1.0  0.12953  0.63973  0.29894  1.0000
  C   C166      1.0  0.12704  0.62521  0.27933  1.0000
  H   H195      1.0  0.16179  0.60038  0.30284  1.0000
  H   H196      1.0  0.16608  0.62596  0.33748  1.0000
  H   H197      1.0  0.12060  0.65079  0.29759  1.0000
  H   H198      1.0  0.11617  0.62507  0.26322  1.0000
  C   C167      1.0  0.12420  0.61816  0.08360  1.0000
  C   C168      1.0  0.14079  0.61015  0.08342  1.0000
  C   C169      1.0  0.15358  0.61526  0.06116  1.0000
  C   C170      1.0  0.15004  0.62835  0.03856  1.0000
  C   C171      1.0  0.13345  0.63637  0.03883  1.0000
  C   C172      1.0  0.12070  0.63134  0.06119  1.0000
  H   H199      1.0  0.14375  0.59991  0.10021  1.0000
  H   H200      1.0  0.16629  0.60886  0.06122  1.0000
  C   C173      1.0  0.04278  0.54256  0.18890  1.0000
  H   H201      1.0  0.10798  0.63769  0.06094  1.0000
  C   C174      1.0  0.12014  0.38525  0.39791  1.0000
  C   C175      1.0  0.13781  0.38881  0.39204  1.0000
  C   C176      1.0  0.15091  0.38303  0.41324  1.0000
  C   C177      1.0  0.14667  0.37366  0.44074  1.0000
  C   C178      1.0  0.12898  0.37028  0.44678  1.0000
  C   C179      1.0  0.11589  0.37598  0.42552  1.0000
  H   H202      1.0  0.14140  0.39590  0.37106  1.0000
  H   H203      1.0  0.16449  0.38582  0.40821  1.0000
  H   H204      1.0  0.12532  0.36335  0.46788  1.0000
  H   H205      1.0  0.10231  0.37316  0.43050  1.0000
  C   C180      1.0  0.13339  0.38905  0.18820  1.0000
  C   C181      1.0  0.14855  0.38797  0.16941  1.0000
  C   C182      1.0  0.14959  0.37629  0.14399  1.0000
  C   C183      1.0  0.13544  0.36555  0.13715  1.0000
  C   C184      1.0  0.12022  0.36675  0.15572  1.0000
  C   C185      1.0  0.11918  0.37844  0.18112  1.0000
  H   H206      1.0  0.15963  0.39609  0.17476  1.0000
  H   H207      1.0  0.16140  0.37547  0.12999  1.0000
  H   H208      1.0  0.14676  0.41828  0.03419  1.0000
  H   H209      1.0  0.10743  0.37916  0.19535  1.0000
  C   C186      1.0  0.09365  0.48664  0.26006  1.0000
  C   C187      1.0  0.09488  0.50449  0.26756  1.0000
  C   C188      1.0  0.09496  0.51748  0.24393  1.0000
  C   C189      1.0  0.09389  0.51277  0.21236  1.0000
  C   C190      1.0  0.09220  0.49495  0.20492  1.0000
  C   C191      1.0  0.09196  0.48198  0.22856  1.0000
  H   H210      1.0  0.09608  0.50830  0.29181  1.0000
  H   H211      1.0  0.09627  0.53109  0.25012  1.0000
  H   H212      1.0  0.09125  0.49115  0.18063  1.0000
  H   H213      1.0  0.09057  0.46839  0.22228  1.0000
  C   C192      1.0  0.02133  0.40367  0.30131  1.0000
  C   C193      1.0  0.02328  0.40545  0.26887  1.0000
  H   H214      1.0  0.03936  0.55946  0.22848  1.0000
  H   H215      1.0  0.03282  0.40240  0.31591  1.0000
  C   C194      1.0  0.14479  0.61544  0.18127  1.0000
  H   H216      1.0  0.05699  0.54279  0.18991  1.0000
  C   C195      1.0  0.02786  0.59633  0.20728  1.0000
  C   C196      1.0  0.02608  0.59121  0.17610  1.0000
  H   H217      1.0  0.13590  0.37339  0.00820  1.0000
  H   H218      1.0  0.03745  0.58695  0.16299  1.0000
  C   C197      1.0  0.01276  0.60085  0.22452  1.0000
  C   C198      1.0  0.03449  0.53322  0.16545  1.0000
  H   H219      1.0  0.07204  0.60865  0.12265  1.0000
  H   H220      1.0  0.06691  0.64046  0.16379  1.0000
  H   H221      1.0  0.01002  0.43966  0.28159  1.0000
  C   C199      1.0  0.10472  0.59052  0.32351  1.0000
  H   H222      1.0  0.13045  0.64647  0.02178  1.0000
  H   H223      1.0  0.12958  0.63867  0.14371  1.0000
  N   N11       1.0  0.03549  0.46604  0.28465  1.0000
  H   H224      1.0  0.00768  0.55951  0.22673  1.0000
  C   C200      1.0  0.04211  0.47890  0.26139  1.0000
  C   C201      1.0  0.04354  0.46965  0.31543  1.0000
  C   C202      1.0  0.01617  0.46744  0.28754  1.0000
  N   N12       1.0  0.12810  0.39745  0.03005  1.0000
  C   C203      1.0  0.01618  0.53294  0.16398  1.0000
  H   H225      1.0  0.05810  0.46837  0.31442  1.0000
  H   H226      1.0  0.13838  0.61034  0.15984  1.0000
  H   H227      1.0  0.01556  0.49551  0.29683  1.0000
  H   H228      1.0  0.11655  0.41759  0.05879  1.0000
  C   C204      1.0  0.17907  0.63773  0.24939  1.0000
  C   C205      1.0  0.24618  0.64937  0.38037  1.0000
  H   H229      1.0  0.05650  0.47738  0.25757  1.0000
  C   C206      1.0  0.03282  0.55180  0.21078  1.0000
  H   H230      1.0  0.05620  0.44803  0.27089  1.0000
  H   H231      1.0  0.14200  0.58317  0.36359  1.0000
  H   H232      1.0  0.01398  0.60469  0.24875  1.0000
  H   H233      1.0  0.12364  0.64326  0.18330  1.0000
  H   H234      1.0  0.13581  0.37269  0.05037  1.0000
  C   C207      1.0  0.13465  0.64396  0.16616  1.0000
  N   N13       1.0  0.05455  0.63094  0.12161  1.0000
  C   C208      1.0  0.00816  0.40699  0.25028  1.0000
  H   H235      1.0  0.09854  0.58646  0.30198  1.0000
  C   C209      1.0  0.05871  0.61264  0.13051  1.0000
  N   N14       1.0  0.15019  0.63389  0.17734  1.0000
  Fe  Fe29      1.0  0.15880  0.34597  0.07186  1.0000
  C   C210      1.0  0.12085  0.58334  0.33202  1.0000
  S   S63       1.0  0.23090  0.64813  0.41182  1.0000
  C   C211      1.0  0.17205  0.63190  0.22119  1.0000
  H   H236      1.0  0.17524  0.62613  0.15757  1.0000
  H   H237      1.0  0.04235  0.52622  0.14828  1.0000
  C   C212      1.0  0.24898  0.38377  0.07654  1.0000
  H   H238      1.0  0.13894  0.66234  0.21490  1.0000
  C   C213      1.0  0.15740  0.66087  0.25145  1.0000
  H   H239      1.0  0.15863  0.63064  0.12935  1.0000
  H   H240      1.0  0.06330  0.65667  0.13374  1.0000
  H   H241      1.0  0.04014  0.49266  0.26893  1.0000
  H   H242      1.0  0.03563  0.47722  0.23832  1.0000
  H   H243      1.0  0.24235  0.65261  0.02944  1.0000
  H   H244      1.0  0.15242  0.39885  0.05564  1.0000
  N   N15       1.0  0.14482  0.46269  0.24352  1.0000
  C   C214      1.0  0.16086  0.45598  0.22770  1.0000
  C   C215      1.0  0.14674  0.45915  0.27760  1.0000
  C   C216      1.0  0.12969  0.45251  0.23245  1.0000
  C   C217      1.0  0.14212  0.48146  0.23587  1.0000
  C   C218      1.0  0.14017  0.48694  0.20423  1.0000
  C   C219      1.0  0.14128  0.49473  0.25909  1.0000
  C   C220      1.0  0.13761  0.50456  0.19637  1.0000
  C   C221      1.0  0.13891  0.51234  0.25089  1.0000
  C   C222      1.0  0.13707  0.51724  0.21963  1.0000
  H   H245      1.0  0.17253  0.46362  0.23462  1.0000
  H   H246      1.0  0.16345  0.44195  0.23363  1.0000
  H   H247      1.0  0.15982  0.45657  0.20178  1.0000
  H   H248      1.0  0.15810  0.46613  0.28757  1.0000
  H   H249      1.0  0.14896  0.44496  0.28248  1.0000
  H   H250      1.0  0.13464  0.46297  0.29077  1.0000
  H   H251      1.0  0.11742  0.45697  0.24401  1.0000
  H   H252      1.0  0.12775  0.45344  0.20676  1.0000
  H   H253      1.0  0.13129  0.43837  0.23795  1.0000
  H   H254      1.0  0.14027  0.47760  0.18535  1.0000
  H   H255      1.0  0.14203  0.49186  0.28381  1.0000
  H   H256      1.0  0.13548  0.50843  0.17220  1.0000
  H   H257      1.0  0.13794  0.52223  0.26894  1.0000
  H   H258      1.0  0.13457  0.53082  0.21346  1.0000
  H   H259      1.0  0.01037  0.52566  0.14517  1.0000
  C   C223      1.0  0.12887  0.37809  0.02952  1.0000
  C   C224      1.0  0.12932  0.58898  0.35904  1.0000
  H   H260      1.0  0.16871  0.64837  0.14975  1.0000
  C   C225      1.0  0.24086  0.65130  0.34925  1.0000
  C   C226      1.0  0.23136  0.61988  0.02060  1.0000
  C   C227      1.0  0.11810  0.40310  0.05821  1.0000
  S   S64       1.0  0.16687  0.63418  0.01106  1.0000
  H   H261      1.0  0.23803  0.38289  0.09272  1.0000
  S   S65       1.0  0.15422  0.62954  0.48567  1.0000
  H   H262      1.0  0.19003  0.63081  0.26000  1.0000
  H   H263      1.0  0.10481  0.39738  0.05928  1.0000
  C   C228      1.0  0.06679  0.64269  0.13807  1.0000
  Fe  Fe30      1.0  0.16933  0.35528  0.00459  1.0000
  Fe  Fe31      1.0  0.16528  0.66049  0.38451  1.0000
  H   H264      1.0  0.04049  0.48310  0.32376  1.0000
  C   C229      1.0  0.14633  0.40374  0.03355  1.0000
  H   H265      1.0  0.10917  0.35854  0.15061  1.0000
  H   H266      1.0  0.15595  0.60645  0.18647  1.0000
  H   H267      1.0  0.05051  0.62314  0.07362  1.0000
  C   C230      1.0  0.24826  0.34805  0.14498  1.0000
  H   H268      1.0  0.08059  0.64051  0.13021  1.0000
  H   H269      1.0  0.03889  0.43819  0.29224  1.0000
  H   H270      1.0  0.04077  0.63266  0.18125  1.0000
  N   N16       1.0  0.13034  0.60857  0.40717  1.0000
  C   C231      1.0  0.11941  0.60463  0.43505  1.0000
  C   C232      1.0  0.14799  0.60072  0.41252  1.0000
  C   C233      1.0  0.13251  0.62779  0.40484  1.0000
  C   C234      1.0  0.12169  0.60205  0.37860  1.0000
  C   C235      1.0  0.10505  0.60881  0.36956  1.0000
  H   H271      1.0  0.22225  0.34914  0.12493  1.0000
  H   H272      1.0  0.12713  0.57378  0.31683  1.0000
  H   H273      1.0  0.22032  0.61073  0.01711  1.0000
  H   H274      1.0  0.15494  0.39896  0.01417  1.0000
  H   H275      1.0  0.11701  0.59033  0.43710  1.0000
  H   H276      1.0  0.12588  0.60887  0.45709  1.0000
  H   H277      1.0  0.10650  0.61146  0.43427  1.0000
  H   H278      1.0  0.14736  0.58633  0.41616  1.0000
  H   H279      1.0  0.15427  0.60611  0.43387  1.0000
  H   H280      1.0  0.15704  0.60359  0.39268  1.0000
  H   H281      1.0  0.11992  0.63506  0.40272  1.0000
  H   H282      1.0  0.13913  0.63315  0.42577  1.0000
  H   H283      1.0  0.14059  0.63123  0.38412  1.0000
  H   H284      1.0  0.09840  0.61871  0.38328  1.0000
  C   C236      1.0  0.12444  0.34773  0.35965  1.0000
  H   H285      1.0  0.08430  0.60884  0.33540  1.0000
  C   C237      1.0  0.09680  0.60319  0.34230  1.0000
  C   C238      1.0  0.25345  0.65175  0.32499  1.0000
  H   H286      1.0  0.11568  0.37214  0.02958  1.0000
  H   H287      1.0  0.04932  0.60343  0.11975  1.0000
  H   H288      1.0  0.12471  0.39886  0.08029  1.0000
  H   H289      1.0  0.21188  0.64986  0.02135  1.0000
  Fe  Fe32      1.0  0.20172  0.65514  0.41267  1.0000
  H   H290      1.0  0.02484  0.63682  0.08368  1.0000
  H   H291      1.0  0.03882  0.46029  0.33360  1.0000
  H   H292      1.0  0.22706  0.65203  0.34379  1.0000
  S   S66       1.0  0.19257  0.66528  0.45945  1.0000
  H   H293      1.0  0.07204  0.63034  0.08162  1.0000
  C   C239      1.0  0.03132  0.63519  0.16295  1.0000
  C   C240      1.0  0.24586  0.38390  0.04446  1.0000
  H   H294      1.0  0.03577  0.44459  0.25183  1.0000
  C   C241      1.0  0.05796  0.63283  0.08747  1.0000
  C   C242      1.0  0.03621  0.63489  0.13082  1.0000
  H   H295      1.0  0.15058  0.35688  0.35264  1.0000
  H   H296      1.0  0.00950  0.40835  0.22516  1.0000
  H   H297      1.0  0.17805  0.62048  0.21064  1.0000
  C   C243      1.0  0.17178  0.65220  0.26445  1.0000
  H   H298      1.0  0.22989  0.62508  0.04479  1.0000
  C   C244      1.0  0.14232  0.34799  0.36571  1.0000
  C   C245      1.0  0.01391  0.63772  0.17222  1.0000
  H   H299      1.0  0.16326  0.33918  0.39401  1.0000
  C   C246      1.0  0.24164  0.34218  0.09031  1.0000
  C   C247      1.0  0.00794  0.48384  0.29379  1.0000
  H   H300      1.0  0.01044  0.63736  0.19686  1.0000
  Fe  Fe33      1.0  0.19722  0.34213  0.05261  1.0000
  S   S67       1.0  0.22711  0.34145  0.05784  1.0000
  C   C248      1.0  0.01451  0.55165  0.20952  1.0000
  H   H301      1.0  0.00845  0.58891  0.13703  1.0000
  H   H302      1.0  0.09435  0.39141  0.01118  1.0000
  C   C249      1.0  0.15023  0.65514  0.22327  1.0000
  C   C250      1.0  0.11935  0.40392  0.00126  1.0000
  N   N17       1.0  0.23136  0.63415  0.99695  1.0000
  C   C251      1.0  0.21424  0.64346  0.99833  1.0000
  C   C252      1.0  0.00956  0.59200  0.16163  1.0000
  C   C253      1.0  0.10171  0.39945  0.99508  1.0000
  H   H303      1.0  0.15151  0.67180  0.26392  1.0000
  Fe  Fe34      1.0  0.07639  0.42223  0.76943  1.0000
  S   S68       1.0  0.08182  0.43413  0.81628  1.0000
  S   S69       1.0  0.05006  0.41857  0.74542  1.0000
  Fe  Fe35      1.0  0.11562  0.41945  0.75301  1.0000
  S   S70       1.0  0.12371  0.43184  0.79849  1.0000
  S   S71       1.0  0.13720  0.41358  0.71731  1.0000
  Fe  Fe36      1.0  0.10383  0.41408  0.82071  1.0000
  S   S72       1.0  0.10745  0.39592  0.86359  1.0000
  Fe  Fe37      1.0  0.10128  0.45081  0.78999  1.0000
  S   S73       1.0  0.10070  0.48044  0.79661  1.0000
  S   S74       1.0  0.09673  0.40084  0.77526  1.0000
  S   S75       1.0  0.09489  0.43975  0.74333  1.0000
  Fe  Fe38      1.0  0.10244  0.56775  0.69111  1.0000
  S   S76       1.0  0.08023  0.57767  0.72102  1.0000
  S   S77       1.0  0.11277  0.53949  0.69258  1.0000
  Fe  Fe39      1.0  0.10719  0.60338  0.65687  1.0000
  S   S78       1.0  0.08545  0.61547  0.68588  1.0000
  S   S79       1.0  0.11947  0.62343  0.62282  1.0000
  Fe  Fe40      1.0  0.09722  0.60145  0.72720  1.0000
  S   S80       1.0  0.09794  0.61375  0.77589  1.0000
  Fe  Fe41      1.0  0.07032  0.59095  0.67718  1.0000
  S   S81       1.0  0.04328  0.59252  0.65414  1.0000
  S   S82       1.0  0.12004  0.59093  0.69928  1.0000
  S   S83       1.0  0.09154  0.57937  0.64640  1.0000
  H   H304      1.0  0.21015  0.61126  0.96580  1.0000
  S   S84       1.0  0.18033  0.36104  0.55719  1.0000
  H   H305      1.0  0.22753  0.65532  0.87290  1.0000
  C   C254      1.0  0.24101  0.65900  0.87644  1.0000
  S   S85       1.0  0.16662  0.37518  0.96419  1.0000
  C   C255      1.0  0.01431  0.42393  0.74582  1.0000
  Fe  Fe42      1.0  0.16784  0.35096  0.51261  1.0000
  C   C256      1.0  0.00724  0.59176  0.65267  1.0000
  Fe  Fe43      1.0  0.16948  0.65258  0.96794  1.0000
  H   H306      1.0  0.07417  0.43182  0.67402  1.0000
  H   H307      1.0  0.13238  0.36466  0.78370  1.0000
  H   H308      1.0  0.01529  0.42284  0.72063  1.0000
  C   C257      1.0  0.09209  0.45376  0.66572  1.0000
  Fe  Fe44      1.0  0.16851  0.65534  0.89561  1.0000
  S   S86       1.0  0.16449  0.64309  0.84757  1.0000
  S   S87       1.0  0.18743  0.64266  0.92930  1.0000
  H   H309      1.0  0.21352  0.65383  0.98007  1.0000
  C   C258      1.0  0.24089  0.34862  0.61131  1.0000
  C   C259      1.0  0.11946  0.41966  0.95093  1.0000
  C   C260      1.0  0.10220  0.41493  0.94553  1.0000
  C   C261      1.0  0.17822  0.37158  0.83255  1.0000
  C   C262      1.0  0.01212  0.38241  0.77578  1.0000
  H   H310      1.0  0.15405  0.40681  0.77588  1.0000
  C   C263      1.0  0.11655  0.62198  0.79538  1.0000
  C   C264      1.0  0.13311  0.62201  0.78134  1.0000
  C   C265      1.0  0.14761  0.62841  0.79784  1.0000
  C   C266      1.0  0.14575  0.63480  0.82852  1.0000
  C   C267      1.0  0.12920  0.63472  0.84265  1.0000
  C   C268      1.0  0.11468  0.62834  0.82610  1.0000
  H   H311      1.0  0.13476  0.61722  0.75771  1.0000
  H   H312      1.0  0.16035  0.62847  0.78667  1.0000
  H   H313      1.0  0.12757  0.63952  0.86628  1.0000
  H   H314      1.0  0.10191  0.62830  0.83719  1.0000
  C   C269      1.0  0.12970  0.62458  0.58505  1.0000
  C   C270      1.0  0.13151  0.61004  0.56543  1.0000
  C   C271      1.0  0.13916  0.61184  0.53536  1.0000
  C   C272      1.0  0.14533  0.62810  0.52448  1.0000
  C   C273      1.0  0.14359  0.64262  0.54414  1.0000
  C   C274      1.0  0.13577  0.64086  0.57408  1.0000
  H   H315      1.0  0.12700  0.59741  0.57341  1.0000
  H   H316      1.0  0.14045  0.60047  0.52052  1.0000
  H   H317      1.0  0.14817  0.65524  0.53626  1.0000
  H   H318      1.0  0.13445  0.65222  0.58894  1.0000
  C   C275      1.0  0.12427  0.39027  0.89095  1.0000
  C   C276      1.0  0.14058  0.39844  0.89114  1.0000
  C   C277      1.0  0.15329  0.39365  0.91369  1.0000
  C   C278      1.0  0.14997  0.38059  0.93632  1.0000
  C   C279      1.0  0.13369  0.37239  0.93608  1.0000
  C   C280      1.0  0.12097  0.37723  0.91359  1.0000
  H   H319      1.0  0.14333  0.40859  0.87417  1.0000
  H   H320      1.0  0.16582  0.40009  0.91355  1.0000
  H   H321      1.0  0.13088  0.36227  0.95308  1.0000
  H   H322      1.0  0.10841  0.37084  0.91379  1.0000
  C   C281      1.0  0.13830  0.39569  0.69105  1.0000
  C   C282      1.0  0.15199  0.39494  0.66892  1.0000
  C   C283      1.0  0.15348  0.38086  0.64782  1.0000
  C   C284      1.0  0.14135  0.36730  0.64883  1.0000
  C   C285      1.0  0.12765  0.36811  0.67097  1.0000
  C   C286      1.0  0.12606  0.38226  0.69188  1.0000
  H   H323      1.0  0.16154  0.40527  0.66809  1.0000
  H   H324      1.0  0.16409  0.38039  0.63096  1.0000
  H   H325      1.0  0.11820  0.35769  0.67189  1.0000
  H   H326      1.0  0.11542  0.38269  0.70866  1.0000
  C   C287      1.0  0.10226  0.49598  0.76553  1.0000
  C   C288      1.0  0.09478  0.51276  0.76933  1.0000
  C   C289      1.0  0.09721  0.52598  0.74656  1.0000
  C   C290      1.0  0.10767  0.52276  0.72021  1.0000
  C   C291      1.0  0.11492  0.50590  0.71614  1.0000
  C   C292      1.0  0.11206  0.49252  0.73843  1.0000
  H   H327      1.0  0.08724  0.51561  0.79023  1.0000
  H   H328      1.0  0.09130  0.53876  0.74967  1.0000
  H   H329      1.0  0.12304  0.50326  0.69586  1.0000
  H   H330      1.0  0.11801  0.47973  0.73528  1.0000
  H   H331      1.0  0.15175  0.40486  0.81765  1.0000
  C   C293      1.0  0.02962  0.42290  0.76399  1.0000
  C   C294      1.0  0.02820  0.42444  0.79650  1.0000
  H   H332      1.0  0.14161  0.41779  0.98015  1.0000
  H   H333      1.0  0.03985  0.42371  0.81078  1.0000
  C   C295      1.0  0.22178  0.61480  0.95283  1.0000
  C   C296      1.0  0.02218  0.59121  0.67187  1.0000
  C   C297      1.0  0.01992  0.58980  0.70430  1.0000
  H   H334      1.0  0.08067  0.49588  0.68603  1.0000
  H   H335      1.0  0.03125  0.58942  0.71939  1.0000
  H   H336      1.0  0.11172  0.46226  0.61530  1.0000
  H   H337      1.0  0.00882  0.59283  0.62757  1.0000
  H   H338      1.0  0.05674  0.65842  0.56808  1.0000
  C   C298      1.0  0.17158  0.35511  0.87959  1.0000
  C   C299      1.0  0.07495  0.63653  0.56130  1.0000
  C   C300      1.0  0.18361  0.36375  0.86062  1.0000
  C   C301      1.0  0.12351  0.44833  0.66919  1.0000
  H   H339      1.0  0.12023  0.44069  0.60816  1.0000
  N   N18       1.0  0.15497  0.38035  0.79378  1.0000
  C   C302      1.0  0.13604  0.37858  0.78689  1.0000
  C   C303      1.0  0.15857  0.39929  0.79680  1.0000
  C   C304      1.0  0.16048  0.37114  0.82278  1.0000
  H   H340      1.0  0.16050  0.37975  0.74413  1.0000
  H   H341      1.0  0.25199  0.36244  0.65033  1.0000
  C   C305      1.0  0.06272  0.45552  0.68944  1.0000
  H   H342      1.0  0.09668  0.61903  0.54750  1.0000
  H   H343      1.0  0.13238  0.38551  0.76482  1.0000
  H   H344      1.0  0.03769  0.37844  0.75569  1.0000
  H   H345      1.0  0.17912  0.37569  0.76811  1.0000
  H   H346      1.0  0.04014  0.63507  0.57950  1.0000
  C   C306      1.0  0.07623  0.44574  0.67549  1.0000
  H   H347      1.0  0.11637  0.54302  0.85410  1.0000
  H   H348      1.0  0.14498  0.50989  0.76821  1.0000
  C   C307      1.0  0.06805  0.63315  0.61627  1.0000
  C   C308      1.0  0.04782  0.62270  0.57767  1.0000
  H   H349      1.0  0.06139  0.64611  0.61754  1.0000
  H   H350      1.0  0.06194  0.62484  0.63474  1.0000
  S   S88       1.0  0.14964  0.66363  0.93369  1.0000
  H   H351      1.0  0.04150  0.61341  0.59440  1.0000
  H   H352      1.0  0.04613  0.61742  0.55366  1.0000
  C   C309      1.0  0.07479  0.60732  0.58687  1.0000
  N   N19       1.0  0.06664  0.62503  0.58496  1.0000
  C   C310      1.0  0.06808  0.65358  0.55548  1.0000
  C   C311      1.0  0.10913  0.44811  0.61902  1.0000
  H   H353      1.0  0.08866  0.60790  0.59471  1.0000
  C   C312      1.0  0.25109  0.62307  0.91670  1.0000
  H   H354      1.0  0.25029  0.64688  0.83384  1.0000
  H   H355      1.0  0.16288  0.35905  0.76393  1.0000
  H   H356      1.0  0.08204  0.63506  0.62272  1.0000
  Fe  Fe45      1.0  0.20058  0.66876  0.93062  1.0000
  N   N20       1.0  0.12136  0.56369  0.80208  1.0000
  H   H357      1.0  0.09788  0.57978  0.80325  1.0000
  C   C313      1.0  0.22393  0.60769  0.92293  1.0000
  H   H358      1.0  0.13473  0.43969  0.66231  1.0000
  H   H359      1.0  0.13729  0.49518  0.81790  1.0000
  H   H360      1.0  0.06793  0.59888  0.60424  1.0000
  H   H361      1.0  0.09864  0.56341  0.83281  1.0000
  H   H362      1.0  0.07426  0.60041  0.56407  1.0000
  H   H363      1.0  0.10436  0.47937  0.66127  1.0000
  H   H364      1.0  0.09704  0.44496  0.60582  1.0000
  C   C314      1.0  0.09021  0.63152  0.54417  1.0000
  C   C315      1.0  0.12496  0.57045  0.77008  1.0000
  H   H365      1.0  0.12773  0.46192  0.66438  1.0000
  H   H366      1.0  0.12788  0.58876  0.82158  1.0000
  H   H367      1.0  0.12641  0.42711  0.93324  1.0000
  H   H368      1.0  0.10332  0.42034  0.68027  1.0000
  H   H369      1.0  0.10985  0.63894  0.51038  1.0000
  C   C316      1.0  0.13912  0.51741  0.78709  1.0000
  H   H370      1.0  0.05113  0.44897  0.69820  1.0000
  C   C317      1.0  0.02368  0.37778  0.75187  1.0000
  H   H371      1.0  0.12190  0.44693  0.69500  1.0000
  N   N21       1.0  0.10713  0.44371  0.65265  1.0000
  C   C318      1.0  0.09799  0.64291  0.52264  1.0000
  C   C319      1.0  0.01722  0.37297  0.72275  1.0000
  C   C320      1.0  0.10232  0.56610  0.80811  1.0000
  H   H372      1.0  0.09449  0.55738  0.79301  1.0000
  C   C321      1.0  0.13499  0.53510  0.78253  1.0000
  C   C322      1.0  0.12671  0.51853  0.83902  1.0000
  H   H373      1.0  0.24005  0.60658  0.88149  1.0000
  C   C323      1.0  0.24562  0.66815  0.90336  1.0000
  H   H374      1.0  0.12079  0.58437  0.76756  1.0000
  H   H375      1.0  0.11772  0.56294  0.75206  1.0000
  Fe  Fe46      1.0  0.16107  0.34344  0.58212  1.0000
  C   C324      1.0  0.13483  0.50910  0.81511  1.0000
  C   C325      1.0  0.12271  0.53629  0.83490  1.0000
  H   H376      1.0  0.14557  0.57306  0.82082  1.0000
  C   C326      1.0  0.13119  0.57459  0.82443  1.0000
  H   H377      1.0  0.13811  0.54044  0.75973  1.0000
  H   H378      1.0  0.12826  0.57117  0.84919  1.0000
  C   C327      1.0  0.16483  0.37339  0.76644  1.0000
  C   C328      1.0  0.06437  0.47349  0.69338  1.0000
  C   C329      1.0  0.12642  0.54506  0.80628  1.0000
  H   H379      1.0  0.11694  0.41721  0.64669  1.0000
  H   H380      1.0  0.12311  0.51188  0.86053  1.0000
  C   C330      1.0  0.10513  0.42443  0.65539  1.0000
  H   H381      1.0  0.13917  0.57003  0.76432  1.0000
  H   H382      1.0  0.09395  0.41963  0.64137  1.0000
  C   C331      1.0  0.07939  0.48186  0.68282  1.0000
  C   C332      1.0  0.09299  0.47222  0.66893  1.0000
  H   H383      1.0  0.05407  0.48092  0.70494  1.0000
  C   C333      1.0  0.14856  0.36208  0.84259  1.0000
  H   H384      1.0  0.01721  0.38668  0.79812  1.0000
  H   H385      1.0  0.17274  0.40200  0.79917  1.0000
  H   H386      1.0  0.21406  0.59913  0.91351  1.0000
  S   S89       1.0  0.14284  0.34891  0.62367  1.0000
  C   C334      1.0  0.15416  0.35413  0.87041  1.0000
  C   C335      1.0  0.09333  0.40486  0.96757  1.0000
  C   C336      1.0  0.12804  0.41419  0.97820  1.0000
  H   H387      1.0  0.18799  0.37830  0.81882  1.0000
  C   C337      1.0  0.23411  0.62661  0.96536  1.0000
  H   H388      1.0  0.12776  0.38436  0.80584  1.0000
  H   H389      1.0  0.09721  0.66839  0.50119  1.0000
  H   H390      1.0  0.22807  0.35465  0.61385  1.0000
  H   H391      1.0  0.09586  0.41868  0.92376  1.0000
  C   C338      1.0  0.24895  0.63046  0.94638  1.0000
  C   C339      1.0  0.25397  0.65419  0.85437  1.0000
  H   H392      1.0  0.01066  0.42715  0.83596  1.0000
  H   H393      1.0  0.24537  0.65810  0.98916  1.0000
  C   C340      1.0  0.01161  0.42637  0.81072  1.0000
  C   C341      1.0  0.09091  0.65954  0.51753  1.0000
  H   H394      1.0  0.13473  0.36135  0.83770  1.0000
  C   C342      1.0  0.07596  0.66486  0.53387  1.0000
  C   C343      1.0  0.23854  0.61186  0.90487  1.0000
  H   H395      1.0  0.07998  0.40100  0.96295  1.0000
  H   H396      1.0  0.17566  0.34949  0.90180  1.0000
  H   H397      1.0  0.19713  0.36461  0.86803  1.0000
  H   H398      1.0  0.13186  0.66926  0.81163  1.0000
  H   H399      1.0  0.14478  0.34768  0.88554  1.0000
  H   H400      1.0  0.02634  0.36963  0.70413  1.0000
  C   C344      1.0  0.25451  0.35300  0.63199  1.0000
  H   H401      1.0  0.04505  0.96948  0.18161  1.0000
  Fe  Fe47      1.0  0.17946  0.68680  0.43146  1.0000
  S   S90       1.0  0.18648  0.71418  0.44848  1.0000
  C   C345      1.0  0.23135  0.69356  0.40369  1.0000
  Fe  Fe48      1.0  0.17047  0.81760  0.41263  1.0000
  S   S91       1.0  0.18755  0.82610  0.45239  1.0000
  S   S92       1.0  0.16298  0.78982  0.39904  1.0000
  Fe  Fe49      1.0  0.16009  0.85562  0.39561  1.0000
  S   S93       1.0  0.17648  0.86639  0.43446  1.0000
  S   S94       1.0  0.14246  0.87587  0.37193  1.0000
  Fe  Fe50      1.0  0.19691  0.84671  0.41815  1.0000
  S   S95       1.0  0.22500  0.85650  0.41255  1.0000
  Fe  Fe51      1.0  0.16551  0.84506  0.46494  1.0000
  C   C346      1.0  0.03375  0.95944  0.23775  1.0000
  S   S96       1.0  0.18098  0.83721  0.37759  1.0000
  S   S97       1.0  0.14811  0.83532  0.42675  1.0000
  Fe  Fe52      1.0  0.07763  0.91697  0.18314  1.0000
  S   S98       1.0  0.08543  0.93603  0.14570  1.0000
  S   S99       1.0  0.04994  0.90892  0.19779  1.0000
  Fe  Fe53      1.0  0.11597  0.90984  0.20121  1.0000
  S   S100      1.0  0.12622  0.92921  0.16562  1.0000
  S   S101      1.0  0.13531  0.89161  0.22596  1.0000
  Fe  Fe54      1.0  0.10389  0.94665  0.18195  1.0000
  S   S102      1.0  0.10378  0.97661  0.18530  1.0000
  Fe  Fe55      1.0  0.10718  0.91691  0.13243  1.0000
  S   S103      1.0  0.11275  0.91099  0.08019  1.0000
  S   S104      1.0  0.09523  0.92822  0.22007  1.0000
  S   S105      1.0  0.09776  0.89695  0.16732  1.0000
  C   C347      1.0  0.10367  0.99087  0.21812  1.0000
  H   H402      1.0  0.13075  0.73942  0.44061  1.0000
  C   C348      1.0  0.10864  0.98524  0.24804  1.0000
  H   H403      1.0  0.14774  0.72004  0.47590  1.0000
  H   H404      1.0  0.11226  0.97167  0.25188  1.0000
  C   C349      1.0  0.14019  0.87963  0.33118  1.0000
  C   C350      1.0  0.14860  0.86903  0.30903  1.0000
  C   C351      1.0  0.14661  0.87267  0.27688  1.0000
  C   C352      1.0  0.13628  0.88691  0.26657  1.0000
  C   C353      1.0  0.12772  0.89738  0.28874  1.0000
  C   C354      1.0  0.12969  0.89375  0.32091  1.0000
  H   H405      1.0  0.15653  0.85800  0.31658  1.0000
  H   H406      1.0  0.15317  0.86444  0.25983  1.0000
  H   H407      1.0  0.11978  0.90839  0.28108  1.0000
  H   H408      1.0  0.12312  0.90200  0.33788  1.0000
  C   C355      1.0  0.14862  0.87236  0.02428  1.0000
  C   C356      1.0  0.14902  0.87262  0.05732  1.0000
  C   C357      1.0  0.13848  0.88447  0.07477  1.0000
  C   C358      1.0  0.12727  0.89633  0.05947  1.0000
  C   C359      1.0  0.12696  0.89616  0.02643  1.0000
  C   C360      1.0  0.13752  0.88433  0.00898  1.0000
  H   H409      1.0  0.15749  0.86346  0.06956  1.0000
  H   H410      1.0  0.13899  0.88435  0.10007  1.0000
  H   H411      1.0  0.11840  0.90522  0.01418  1.0000
  C   C361      1.0  0.01410  0.90949  0.20497  1.0000
  C   C362      1.0  0.24127  0.84954  0.38519  1.0000
  H   H412      1.0  0.24784  0.72144  0.42833  1.0000
  C   C363      1.0  0.23859  0.83566  0.36459  1.0000
  H   H413      1.0  0.19050  0.89496  0.36390  1.0000
  H   H414      1.0  0.22628  0.82882  0.36498  1.0000
  C   C364      1.0  0.18083  0.73498  0.43251  1.0000
  C   C365      1.0  0.18838  0.75002  0.44538  1.0000
  C   C366      1.0  0.18358  0.76689  0.43471  1.0000
  C   C367      1.0  0.17087  0.76892  0.41142  1.0000
  C   C368      1.0  0.16367  0.75385  0.39802  1.0000
  C   C369      1.0  0.16870  0.73696  0.40831  1.0000
  H   H415      1.0  0.14344  0.98956  0.16806  1.0000
  H   H416      1.0  0.18959  0.77827  0.44472  1.0000
  H   H417      1.0  0.15392  0.75525  0.37984  1.0000
  H   H418      1.0  0.16280  0.72553  0.39815  1.0000
  H   H419      1.0  0.07035  0.99052  0.27014  1.0000
  C   C370      1.0  0.02559  0.93241  0.17195  1.0000
  C   C371      1.0  0.02855  0.91757  0.19060  1.0000
  H   H420      1.0  0.13903  0.87497  0.47297  1.0000
  H   H421      1.0  0.03644  0.93850  0.16002  1.0000
  C   C372      1.0  0.13351  0.88551  0.45782  1.0000
  H   H422      1.0  0.22699  0.88127  0.34960  1.0000
  H   H423      1.0  0.24447  0.82160  0.44721  1.0000
  H   H424      1.0  0.11689  0.84951  0.08195  1.0000
  C   C373      1.0  0.10788  0.89687  0.43157  1.0000
  C   C374      1.0  0.17891  0.91789  0.28171  1.0000
  H   H425      1.0  0.21856  0.90240  0.33899  1.0000
  H   H426      1.0  0.21718  0.72907  0.36268  1.0000
  H   H427      1.0  0.22011  0.69319  0.42044  1.0000
  H   H428      1.0  0.16746  0.91724  0.23572  1.0000
  H   H429      1.0  0.19072  0.91505  0.32638  1.0000
  C   C375      1.0  0.21727  0.71549  0.37206  1.0000
  H   H430      1.0  0.11723  0.86449  0.41794  1.0000
  H   H431      1.0  0.21432  0.86031  0.29720  1.0000
  S   S106      1.0  0.16141  0.85610  0.00381  1.0000
  H   H432      1.0  0.21552  0.70645  0.35197  1.0000
  C   C376      1.0  0.21972  0.88862  0.33101  1.0000
  N   N22       1.0  0.11431  0.88371  0.45464  1.0000
  N   N23       1.0  0.08371  0.86470  0.06900  1.0000
  C   C377      1.0  0.07912  0.88181  0.05429  1.0000
  C   C378      1.0  0.06745  0.85464  0.07392  1.0000
  C   C379      1.0  0.09121  0.86832  0.10032  1.0000
  C   C380      1.0  0.09573  0.85471  0.04822  1.0000
  C   C381      1.0  0.11206  0.84770  0.05849  1.0000
  C   C382      1.0  0.09114  0.85166  0.01652  1.0000
  H   H433      1.0  0.11661  0.85555  0.45644  1.0000
  C   C383      1.0  0.11855  0.83638  0.00682  1.0000
  H   H434      1.0  0.22440  0.72263  0.43274  1.0000
  H   H435      1.0  0.07040  0.88051  0.03376  1.0000
  H   H436      1.0  0.07230  0.89082  0.07090  1.0000
  H   H437      1.0  0.09110  0.88862  0.04609  1.0000
  H   H438      1.0  0.06045  0.85227  0.05161  1.0000
  H   H439      1.0  0.05813  0.86168  0.08973  1.0000
  H   H440      1.0  0.07042  0.84163  0.08465  1.0000
  H   H441      1.0  0.10353  0.87589  0.09831  1.0000
  H   H442      1.0  0.08212  0.87631  0.11505  1.0000
  H   H443      1.0  0.09396  0.85611  0.11377  1.0000
  H   H444      1.0  0.13596  0.83408  0.04583  1.0000
  H   H445      1.0  0.07887  0.85641  0.00713  1.0000
  H   H446      1.0  0.21137  0.85482  0.33736  1.0000
  H   H447      1.0  0.16754  0.79431  0.47098  1.0000
  H   H448      1.0  0.24312  0.68929  0.41710  1.0000
  N   N24       1.0  0.05057  0.96836  0.23130  1.0000
  C   C384      1.0  0.06414  0.95978  0.25113  1.0000
  C   C385      1.0  0.17510  0.91018  0.25314  1.0000
  C   C386      1.0  0.05553  0.96538  0.19814  1.0000
  H   H449      1.0  0.13798  0.79863  0.45212  1.0000
  H   H450      1.0  0.00633  0.95082  0.15415  1.0000
  C   C387      1.0  0.18067  0.89312  0.24717  1.0000
  C   C388      1.0  0.14480  0.77045  0.49246  1.0000
  H   H451      1.0  0.11378  0.99291  0.29573  1.0000
  C   C389      1.0  0.10584  0.88663  0.48549  1.0000
  H   H452      1.0  0.13320  0.81393  0.48241  1.0000
  H   H453      1.0  0.06466  0.94536  0.24736  1.0000
  H   H454      1.0  0.06146  0.96177  0.27649  1.0000
  H   H455      1.0  0.11322  0.89430  0.40762  1.0000
  H   H456      1.0  0.17724  0.88710  0.22509  1.0000
  H   H457      1.0  0.03511  0.94496  0.23529  1.0000
  C   C390      1.0  0.05969  0.99673  0.25760  1.0000
  H   H458      1.0  0.06747  0.97283  0.19175  1.0000
  H   H459      1.0  0.05841  0.95130  0.19351  1.0000
  C   C391      1.0  0.25203  0.83037  0.34377  1.0000
  C   C392      1.0  0.14653  0.73390  0.48095  1.0000
  C   C393      1.0  0.13325  0.79970  0.47679  1.0000
  H   H460      1.0  0.13725  0.89821  0.46818  1.0000
  C   C394      1.0  0.04865  0.98741  0.23692  1.0000
  H   H461      1.0  0.22865  0.68352  0.38563  1.0000
  H   H462      1.0  0.19319  0.87021  0.26394  1.0000
  C   C395      1.0  0.13697  0.74486  0.46108  1.0000
  H   H463      1.0  0.19798  0.87359  0.37334  1.0000
  H   H464      1.0  0.14428  0.99469  0.22496  1.0000
  H   H465      1.0  0.22799  0.88848  0.30946  1.0000
  H   H466      1.0  0.17845  0.87656  0.35041  1.0000
  H   H467      1.0  0.14029  0.88457  0.43482  1.0000
  C   C396      1.0  0.10958  0.99734  0.27283  1.0000
  H   H468      1.0  0.17444  0.93115  0.28626  1.0000
  C   C397      1.0  0.11098  0.86613  0.44140  1.0000
  C   C398      1.0  0.23537  0.72378  0.41550  1.0000
  H   H469      1.0  0.19267  0.85546  0.31241  1.0000
  H   H470      1.0  0.01621  0.89797  0.21936  1.0000
  N   N25       1.0  0.23354  0.71117  0.38944  1.0000
  H   H471      1.0  0.20545  0.71440  0.38735  1.0000
  H   H472      1.0  0.02908  0.96214  0.26197  1.0000
  H   H473      1.0  0.09334  0.89677  0.43006  1.0000
  C   C399      1.0  0.12319  0.83865  0.03798  1.0000
  H   H474      1.0  0.11385  0.91388  0.48954  1.0000
  N   N26       1.0  0.20238  0.88084  0.32502  1.0000
  C   C400      1.0  0.19187  0.88155  0.35433  1.0000
  C   C401      1.0  0.20526  0.86206  0.31747  1.0000
  C   C402      1.0  0.19337  0.89079  0.29982  1.0000
  C   C403      1.0  0.18807  0.90846  0.30465  1.0000
  C   C404      1.0  0.18969  0.88348  0.27002  1.0000
  H   H475      1.0  0.07746  0.96467  0.24540  1.0000
  H   H476      1.0  0.23509  0.73759  0.40734  1.0000
  H   H477      1.0  0.19784  0.74861  0.46401  1.0000
  S   S107      1.0  0.18947  0.67714  0.38506  1.0000
  H   H478      1.0  0.02326  0.96341  0.22115  1.0000
  H   H479      1.0  0.09673  0.86391  0.43827  1.0000
  H   H480      1.0  0.11192  0.91036  0.43743  1.0000
  H   H481      1.0  0.24987  0.81953  0.32813  1.0000
  C   C405      1.0  0.03562  0.99733  0.22088  1.0000
  H   H482      1.0  0.02704  0.99123  0.20423  1.0000
  H   H483      1.0  0.11944  0.79529  0.47800  1.0000
  C   C406      1.0  0.24878  0.71228  0.36790  1.0000
  C   C407      1.0  0.14366  0.00284  0.17688  1.0000
  H   H484      1.0  0.25111  0.80116  0.40400  1.0000
  C   C408      1.0  0.13618  0.76289  0.46645  1.0000
  C   C409      1.0  0.00846  0.93929  0.16848  1.0000
  H   H485      1.0  0.12916  0.77063  0.44929  1.0000
  H   H486      1.0  0.24545  0.74016  0.35786  1.0000
  C   C410      1.0  0.25313  0.72846  0.35348  1.0000
  S   S108      1.0  0.15405  0.67199  0.42901  1.0000
  C   C411      1.0  0.10249  0.84275  0.99614  1.0000
  H   H487      1.0  0.03505  0.98280  0.62063  1.0000
  Fe  Fe56      1.0  0.16563  0.68849  0.93477  1.0000
  S   S109      1.0  0.15232  0.71533  0.93799  1.0000
  H   H488      1.0  0.06717  0.00275  0.70347  1.0000
  Fe  Fe57      1.0  0.17913  0.81807  0.90958  1.0000
  S   S110      1.0  0.19335  0.82981  0.95024  1.0000
  S   S111      1.0  0.18385  0.78921  0.89659  1.0000
  Fe  Fe58      1.0  0.17038  0.85481  0.88234  1.0000
  S   S112      1.0  0.18452  0.86846  0.92146  1.0000
  S   S113      1.0  0.16359  0.87163  0.83932  1.0000
  Fe  Fe59      1.0  0.20567  0.84792  0.91512  1.0000
  S   S114      1.0  0.23506  0.85380  0.91645  1.0000
  Fe  Fe60      1.0  0.17088  0.84944  0.95353  1.0000
  S   S115      1.0  0.15096  0.84538  0.51243  1.0000
  S   S116      1.0  0.19252  0.83560  0.87442  1.0000
  S   S117      1.0  0.15562  0.83643  0.91450  1.0000
  Fe  Fe61      1.0  0.06566  0.91963  0.67079  1.0000
  S   S118      1.0  0.08646  0.93462  0.64478  1.0000
  S   S119      1.0  0.03795  0.92674  0.65398  1.0000
  Fe  Fe62      1.0  0.09309  0.90432  0.71536  1.0000
  S   S120      1.0  0.11545  0.91855  0.69269  1.0000
  S   S121      1.0  0.09468  0.88807  0.76019  1.0000
  Fe  Fe63      1.0  0.09691  0.94173  0.69195  1.0000
  S   S122      1.0  0.10636  0.96968  0.69921  1.0000
  Fe  Fe64      1.0  0.10341  0.91029  0.64686  1.0000
  S   S123      1.0  0.12092  0.90583  0.60326  1.0000
  S   S124      1.0  0.07539  0.92817  0.71784  1.0000
  S   S125      1.0  0.08179  0.89460  0.66963  1.0000
  C   C412      1.0  0.09892  0.98665  0.72441  1.0000
  C   C413      1.0  0.13829  0.79307  0.53087  1.0000
  C   C414      1.0  0.08695  0.98372  0.74870  1.0000
  H   H489      1.0  0.15383  0.72001  0.86687  1.0000
  H   H490      1.0  0.08205  0.97070  0.75285  1.0000
  C   C415      1.0  0.14426  0.87502  0.81712  1.0000
  C   C416      1.0  0.12781  0.86960  0.82751  1.0000
  C   C417      1.0  0.11278  0.87344  0.80954  1.0000
  C   C418      1.0  0.11405  0.88263  0.78100  1.0000
  C   C419      1.0  0.13054  0.88785  0.77045  1.0000
  C   C420      1.0  0.14553  0.88413  0.78850  1.0000
  H   H491      1.0  0.12663  0.86262  0.84950  1.0000
  H   H492      1.0  0.10007  0.86934  0.81787  1.0000
  H   H493      1.0  0.13174  0.89478  0.74841  1.0000
  H   H494      1.0  0.15821  0.88829  0.78017  1.0000
  C   C421      1.0  0.14305  0.86238  0.53785  1.0000
  C   C422      1.0  0.13132  0.85811  0.56223  1.0000
  C   C423      1.0  0.12460  0.87106  0.58277  1.0000
  C   C424      1.0  0.12950  0.88857  0.57920  1.0000
  C   C425      1.0  0.14133  0.89279  0.55496  1.0000
  C   C426      1.0  0.14815  0.87983  0.53462  1.0000
  H   H495      1.0  0.12733  0.84469  0.56528  1.0000
  H   H496      1.0  0.11553  0.86755  0.60121  1.0000
  H   H497      1.0  0.14532  0.90623  0.55202  1.0000
  H   H498      1.0  0.15971  0.69728  0.79895  1.0000
  H   H499      1.0  0.16121  0.67748  0.82173  1.0000
  H   H500      1.0  0.23046  0.72772  0.90255  1.0000
  C   C427      1.0  0.24607  0.84395  0.85680  1.0000
  H   H501      1.0  0.14693  0.75117  0.86684  1.0000
  H   H502      1.0  0.23289  0.83945  0.85321  1.0000
  C   C428      1.0  0.16198  0.73580  0.92844  1.0000
  C   C429      1.0  0.15321  0.75143  0.93674  1.0000
  C   C430      1.0  0.15994  0.76791  0.92810  1.0000
  C   C431      1.0  0.17540  0.76896  0.91051  1.0000
  C   C432      1.0  0.18415  0.75331  0.90218  1.0000
  C   C433      1.0  0.17761  0.73686  0.91133  1.0000
  C   C434      1.0  0.15735  0.69158  0.82259  1.0000
  H   H503      1.0  0.15300  0.77979  0.93454  1.0000
  H   H504      1.0  0.19606  0.75394  0.88847  1.0000
  H   H505      1.0  0.18449  0.72500  0.90467  1.0000
  C   C435      1.0  0.24841  0.70349  0.84368  1.0000
  C   C436      1.0  0.04328  0.99683  0.67802  1.0000
  C   C437      1.0  0.01703  0.91922  0.66651  1.0000
  C   C438      1.0  0.11367  0.99454  0.82410  1.0000
  H   H506      1.0  0.05886  0.95505  0.67668  1.0000
  H   H507      1.0  0.02659  0.89955  0.69851  1.0000
  H   H508      1.0  0.11294  0.71235  0.79778  1.0000
  H   H509      1.0  0.23927  0.77199  0.84206  1.0000
  C   C439      1.0  0.09037  0.89292  0.54504  1.0000
  C   C440      1.0  0.01509  0.90572  0.68845  1.0000
  C   C441      1.0  0.24862  0.80472  0.89222  1.0000
  C   C442      1.0  0.03846  0.97320  0.63935  1.0000
  H   H510      1.0  0.12345  0.76320  0.83313  1.0000
  H   H511      1.0  0.10665  0.74353  0.79892  1.0000
  H   H512      1.0  0.21880  0.87026  0.86429  1.0000
  H   H513      1.0  0.12287  0.68879  0.87295  1.0000
  C   C443      1.0  0.25368  0.73448  0.87652  1.0000
  H   H514      1.0  0.04153  0.96401  0.70009  1.0000
  S   S126      1.0  0.18407  0.67803  0.97141  1.0000
  H   H515      1.0  0.08501  0.89522  0.56826  1.0000
  H   H516      1.0  0.08285  0.86603  0.54418  1.0000
  H   H517      1.0  0.06360  0.97157  0.70446  1.0000
  C   C444      1.0  0.23685  0.70853  0.86759  1.0000
  H   H518      1.0  0.01660  0.99605  0.65906  1.0000
  H   H519      1.0  0.10058  0.91881  0.54089  1.0000
  C   C445      1.0  0.02572  0.00279  0.67386  1.0000
  C   C446      1.0  0.09690  0.87324  0.50217  1.0000
  H   H520      1.0  0.24367  0.88754  0.85789  1.0000
  C   C447      1.0  0.10678  0.90323  0.50017  1.0000
  C   C448      1.0  0.05374  0.96736  0.68717  1.0000
  C   C449      1.0  0.08927  0.87646  0.53146  1.0000
  N   N27       1.0  0.05041  0.98086  0.66286  1.0000
  C   C450      1.0  0.16261  0.79628  0.49526  1.0000
  H   H521      1.0  0.12670  0.99950  0.78039  1.0000
  H   H522      1.0  0.11385  0.68394  0.81763  1.0000
  H   H523      1.0  0.22477  0.79177  0.88010  1.0000
  H   H524      1.0  0.06559  0.99575  0.62974  1.0000
  C   C451      1.0  0.13653  0.68677  0.86436  1.0000
  H   H525      1.0  0.13731  0.80742  0.53554  1.0000
  H   H526      1.0  0.22977  0.88165  0.75976  1.0000
  H   H527      1.0  0.12945  0.68763  0.78613  1.0000
  N   N28       1.0  0.21479  0.88132  0.81832  1.0000
  C   C452      1.0  0.20906  0.86432  0.80543  1.0000
  C   C453      1.0  0.21139  0.88101  0.85259  1.0000
  C   C454      1.0  0.20381  0.89552  0.80463  1.0000
  C   C455      1.0  0.23340  0.88424  0.81019  1.0000
  S   S127      1.0  0.18300  0.68090  0.89452  1.0000
  H   H528      1.0  0.02625  0.96817  0.65037  1.0000
  H   H529      1.0  0.16657  0.69783  0.83902  1.0000
  H   H530      1.0  0.07238  0.99524  0.78700  1.0000
  C   C456      1.0  0.12642  0.74930  0.83276  1.0000
  H   H531      1.0  0.21796  0.85350  0.81287  1.0000
  H   H532      1.0  0.19565  0.86088  0.81350  1.0000
  H   H533      1.0  0.20858  0.86430  0.77947  1.0000
  H   H534      1.0  0.19737  0.87874  0.85802  1.0000
  H   H535      1.0  0.21469  0.89361  0.86388  1.0000
  H   H536      1.0  0.20791  0.90853  0.81334  1.0000
  H   H537      1.0  0.20454  0.89580  0.77866  1.0000
  H   H538      1.0  0.18973  0.89387  0.81085  1.0000
  C   C457      1.0  0.23896  0.88388  0.77842  1.0000
  H   H539      1.0  0.14108  0.75078  0.94984  1.0000
  H   H540      1.0  0.07785  0.98809  0.66305  1.0000
  N   N29       1.0  0.11963  0.93988  0.80043  1.0000
  C   C458      1.0  0.10961  0.93670  0.77143  1.0000
  C   C459      1.0  0.13836  0.93560  0.79454  1.0000
  C   C460      1.0  0.11319  0.92748  0.82470  1.0000
  C   C461      1.0  0.11769  0.95852  0.80926  1.0000
  C   C462      1.0  0.12398  0.97185  0.78902  1.0000
  C   C463      1.0  0.10927  0.96404  0.83739  1.0000
  C   C464      1.0  0.12213  0.98955  0.79657  1.0000
  C   C465      1.0  0.10730  0.98182  0.84449  1.0000
  H   H541      1.0  0.22605  0.70013  0.87413  1.0000
  H   H542      1.0  0.11453  0.94444  0.75118  1.0000
  H   H543      1.0  0.11030  0.92269  0.76441  1.0000
  H   H544      1.0  0.09554  0.94021  0.77466  1.0000
  H   H545      1.0  0.14038  0.92145  0.78953  1.0000
  H   H546      1.0  0.14649  0.93884  0.81523  1.0000
  H   H547      1.0  0.14370  0.94271  0.77391  1.0000
  H   H548      1.0  0.09886  0.92909  0.82886  1.0000
  H   H549      1.0  0.11512  0.91359  0.81744  1.0000
  H   H550      1.0  0.12031  0.92897  0.84719  1.0000
  H   H551      1.0  0.12996  0.96874  0.76668  1.0000
  H   H552      1.0  0.10393  0.95491  0.85414  1.0000
  C   C466      1.0  0.10535  0.00365  0.71979  1.0000
  H   H553      1.0  0.16311  0.73232  0.52121  1.0000
  S   S128      1.0  0.23001  0.67375  0.93268  1.0000
  C   C467      1.0  0.09913  0.90626  0.52947  1.0000
  H   H554      1.0  0.04453  0.96160  0.62758  1.0000
  C   C468      1.0  0.11699  0.73817  0.81353  1.0000
  H   H555      1.0  0.16167  0.76366  0.53199  1.0000
  H   H556      1.0  0.24582  0.69111  0.83268  1.0000
  H   H557      1.0  0.07230  0.97316  0.63346  1.0000
  C   C469      1.0  0.15525  0.74088  0.50644  1.0000
  C   C470      1.0  0.15439  0.75886  0.51227  1.0000
  N   N30       1.0  0.13881  0.69397  0.83232  1.0000
  H   H558      1.0  0.13692  0.88431  0.98369  1.0000
  H   H559      1.0  0.14526  0.69301  0.88165  1.0000
  C   C471      1.0  0.12795  0.68337  0.81093  1.0000
  C   C472      1.0  0.13425  0.71287  0.83218  1.0000
  C   C473      1.0  0.14354  0.72461  0.85149  1.0000
  C   C474      1.0  0.12078  0.72020  0.81312  1.0000
  C   C475      1.0  0.13966  0.74252  0.85170  1.0000
  C   C476      1.0  0.23941  0.72402  0.88383  1.0000
  C   C477      1.0  0.08150  0.99768  0.76806  1.0000
  C   C478      1.0  0.24647  0.88738  0.83307  1.0000
  H   H560      1.0  0.17201  0.78975  0.51139  1.0000
  H   H561      1.0  0.15751  0.88337  0.51669  1.0000
  C   C479      1.0  0.06718  0.98471  0.64661  1.0000
  H   H562      1.0  0.10061  0.98581  0.86578  1.0000
  H   H563      1.0  0.13954  0.67247  0.86526  1.0000
  C   C480      1.0  0.25068  0.85080  0.88587  1.0000
  H   H564      1.0  0.24209  0.81359  0.90846  1.0000
  C   C481      1.0  0.23882  0.79248  0.87613  1.0000
  C   C482      1.0  0.24705  0.78135  0.85474  1.0000
  H   H565      1.0  0.07060  0.67789  0.53009  1.0000
  H   H566      1.0  0.14725  0.78769  0.54901  1.0000
  H   H567      1.0  0.12512  0.78737  0.53486  1.0000
  H   H568      1.0  0.25467  0.83817  0.80969  1.0000
  H   H569      1.0  0.09900  0.84101  0.97179  1.0000
  H   H570      1.0  0.16312  0.81053  0.50032  1.0000
  N   N31       1.0  0.14461  0.78952  0.49857  1.0000
  H   H571      1.0  0.12765  0.83000  0.99083  1.0000
  H   H572      1.0  0.09588  0.86009  0.49344  1.0000
  C   C483      1.0  0.32380  0.28050  0.24939  1.0000
  H   H573      1.0  0.47740  0.09425  0.46729  1.0000
  Fe  Fe65      1.0  0.34227  0.32118  0.15729  1.0000
  S   S129      1.0  0.35339  0.29430  0.14448  1.0000
  H   H574      1.0  0.37656  0.13966  0.38343  1.0000
  Fe  Fe66      1.0  0.44170  0.09572  0.41543  1.0000
  S   S130      1.0  0.43049  0.07461  0.38559  1.0000
  S   S131      1.0  0.46947  0.10368  0.40205  1.0000
  Fe  Fe67      1.0  0.40675  0.10071  0.45031  1.0000
  S   S132      1.0  0.39373  0.07928  0.42292  1.0000
  H   H575      1.0  0.40071  0.03471  0.48778  1.0000
  Fe  Fe68      1.0  0.41898  0.06411  0.43039  1.0000
  S   S133      1.0  0.42521  0.03477  0.43451  1.0000
  Fe  Fe69      1.0  0.40634  0.09150  0.38030  1.0000
  S   S134      1.0  0.39134  0.09278  0.33344  1.0000
  S   S135      1.0  0.43129  0.08473  0.46076  1.0000
  S   S136      1.0  0.41833  0.11346  0.40710  1.0000
  Fe  Fe70      1.0  0.32969  0.19239  0.16567  1.0000
  S   S137      1.0  0.31809  0.17303  0.19934  1.0000
  S   S138      1.0  0.31943  0.22017  0.17476  1.0000
  Fe  Fe71      1.0  0.34716  0.16254  0.12825  1.0000
  S   S139      1.0  0.33604  0.14129  0.15916  1.0000
  S   S140      1.0  0.36710  0.15987  0.08856  1.0000
  Fe  Fe72      1.0  0.31098  0.15757  0.15663  1.0000
  S   S141      1.0  0.28232  0.14919  0.15701  1.0000
  Fe  Fe73      1.0  0.34399  0.15865  0.19926  1.0000
  S   S142      1.0  0.35948  0.15333  0.24465  1.0000
  S   S143      1.0  0.32162  0.17743  0.12296  1.0000
  S   S144      1.0  0.35612  0.17926  0.16835  1.0000
  C   C484      1.0  0.27127  0.15258  0.09505  1.0000
  C   C485      1.0  0.26651  0.15054  0.12652  1.0000
  H   H576      1.0  0.28496  0.15344  0.08870  1.0000
  H   H577      1.0  0.39125  0.27639  0.21441  1.0000
  C   C486      1.0  0.38219  0.11057  0.03269  1.0000
  C   C487      1.0  0.36922  0.10977  0.05613  1.0000
  C   C488      1.0  0.36426  0.12478  0.07317  1.0000
  C   C489      1.0  0.37222  0.14078  0.06683  1.0000
  C   C490      1.0  0.38517  0.14160  0.04334  1.0000
  C   C491      1.0  0.39016  0.12658  0.02633  1.0000
  H   H578      1.0  0.36298  0.09744  0.06120  1.0000
  H   H579      1.0  0.35430  0.12394  0.09118  1.0000
  H   H580      1.0  0.39148  0.15392  0.03846  1.0000
  H   H581      1.0  0.27764  0.20657  0.10084  1.0000
  C   C492      1.0  0.38320  0.10987  0.30843  1.0000
  C   C493      1.0  0.38536  0.12761  0.31514  1.0000
  C   C494      1.0  0.37788  0.14060  0.29551  1.0000
  C   C495      1.0  0.36833  0.13614  0.26861  1.0000
  C   C496      1.0  0.36657  0.11841  0.26138  1.0000
  C   C497      1.0  0.37392  0.10540  0.28120  1.0000
  H   H582      1.0  0.39291  0.13136  0.33529  1.0000
  H   H583      1.0  0.37959  0.15426  0.30113  1.0000
  H   H584      1.0  0.35943  0.11470  0.24070  1.0000
  H   H585      1.0  0.37227  0.09174  0.27555  1.0000
  H   H586      1.0  0.42564  0.11052  0.15565  1.0000
  H   H587      1.0  0.35787  0.09701  0.40363  1.0000
  H   H588      1.0  0.40026  0.12736  0.00856  1.0000
  C   C498      1.0  0.38348  0.29230  0.26791  1.0000
  H   H589      1.0  0.32441  0.31860  0.28983  1.0000
  C   C499      1.0  0.34344  0.27384  0.15218  1.0000
  C   C500      1.0  0.35263  0.25836  0.14459  1.0000
  C   C501      1.0  0.34550  0.24181  0.15123  1.0000
  C   C502      1.0  0.32906  0.24059  0.16554  1.0000
  C   C503      1.0  0.31984  0.25608  0.17305  1.0000
  C   C504      1.0  0.32698  0.27263  0.16641  1.0000
  H   H590      1.0  0.36536  0.25916  0.13350  1.0000
  H   H591      1.0  0.35271  0.23001  0.14525  1.0000
  H   H592      1.0  0.30713  0.25529  0.18416  1.0000
  H   H593      1.0  0.31980  0.28443  0.17248  1.0000
  S   S145      1.0  0.32677  0.32710  0.20079  1.0000
  H   H594      1.0  0.39520  0.14001  0.22420  1.0000
  C   C505      1.0  0.48930  0.10103  0.42321  1.0000
  C   C506      1.0  0.48958  0.09642  0.45495  1.0000
  C   C507      1.0  0.34143  0.27941  0.24051  1.0000
  C   C508      1.0  0.32921  0.30750  0.27643  1.0000
  H   H595      1.0  0.31479  0.27051  0.24192  1.0000
  H   H596      1.0  0.36977  0.27596  0.19873  1.0000
  C   C509      1.0  0.27165  0.19721  0.17775  1.0000
  C   C510      1.0  0.35351  0.29250  0.24933  1.0000
  N   N32       1.0  0.37218  0.29207  0.23975  1.0000
  H   H597      1.0  0.26889  0.18298  0.17551  1.0000
  H   H598      1.0  0.37868  0.11634  0.38034  1.0000
  H   H599      1.0  0.35939  0.10648  0.44111  1.0000
  H   H600      1.0  0.28554  0.33754  0.10536  1.0000
  H   H601      1.0  0.34514  0.26833  0.22624  1.0000
  H   H602      1.0  0.50518  0.10737  0.38298  1.0000
  C   C511      1.0  0.47803  0.04154  0.42415  1.0000
  C   C512      1.0  0.32756  0.13184  0.31650  1.0000
  C   C513      1.0  0.28012  0.20031  0.12399  1.0000
  H   H603      1.0  0.43343  0.10236  0.25343  1.0000
  H   H604      1.0  0.32139  0.13372  0.29389  1.0000
  S   S146      1.0  0.38768  0.09119  0.01205  1.0000
  C   C514      1.0  0.37599  0.30771  0.22032  1.0000
  H   H605      1.0  0.38032  0.28124  0.28396  1.0000
  C   C515      1.0  0.25831  0.15297  0.07158  1.0000
  H   H606      1.0  0.33804  0.10651  0.30492  1.0000
  H   H607      1.0  0.28500  0.22816  0.15709  1.0000
  C   C516      1.0  0.37716  0.27639  0.22113  1.0000
  H   H608      1.0  0.26415  0.33564  0.06185  1.0000
  H   H609      1.0  0.28574  0.19839  0.18415  1.0000
  C   C517      1.0  0.48858  0.05507  0.41359  1.0000
  H   H610      1.0  0.41083  0.12462  0.26579  1.0000
  H   H611      1.0  0.39914  0.14106  0.11052  1.0000
  H   H612      1.0  0.29389  0.20332  0.13030  1.0000
  H   H613      1.0  0.42024  0.13684  0.12682  1.0000
  H   H614      1.0  0.48261  0.06641  0.40229  1.0000
  C   C518      1.0  0.48562  0.02694  0.43857  1.0000
  H   H615      1.0  0.27962  0.18584  0.12144  1.0000
  C   C519      1.0  0.40546  0.02149  0.48397  1.0000
  C   C520      1.0  0.27090  0.22561  0.15269  1.0000
  C   C521      1.0  0.31769  0.29453  0.26723  1.0000
  H   H616      1.0  0.44064  0.09559  0.19819  1.0000
  C   C522      1.0  0.41710  0.01806  0.45934  1.0000
  C   C523      1.0  0.33695  0.11652  0.32275  1.0000
  H   H617      1.0  0.36699  0.30848  0.19996  1.0000
  N   N33       1.0  0.35526  0.12535  0.40383  1.0000
  C   C524      1.0  0.35251  0.10783  0.41821  1.0000
  C   C525      1.0  0.37401  0.12709  0.39580  1.0000
  C   C526      1.0  0.35088  0.13861  0.42807  1.0000
  C   C527      1.0  0.34491  0.12740  0.37476  1.0000
  C   C528      1.0  0.34569  0.11437  0.35121  1.0000
  C   C529      1.0  0.33504  0.14283  0.36777  1.0000
  C   C530      1.0  0.32656  0.14494  0.33899  1.0000
  C   C531      1.0  0.34685  0.30653  0.26768  1.0000
  H   H618      1.0  0.30396  0.29548  0.27361  1.0000
  H   H619      1.0  0.38961  0.30750  0.21097  1.0000
  H   H620      1.0  0.37436  0.32011  0.23353  1.0000
  H   H621      1.0  0.33835  0.10541  0.42230  1.0000
  H   H622      1.0  0.26387  0.20219  0.19790  1.0000
  H   H623      1.0  0.26709  0.23328  0.13155  1.0000
  H   H624      1.0  0.38239  0.12669  0.41696  1.0000
  H   H625      1.0  0.33668  0.13850  0.43400  1.0000
  H   H626      1.0  0.35819  0.13608  0.45025  1.0000
  H   H627      1.0  0.35468  0.15200  0.42057  1.0000
  H   H628      1.0  0.35369  0.10270  0.35393  1.0000
  H   H629      1.0  0.33397  0.15364  0.38383  1.0000
  H   H630      1.0  0.26216  0.15421  0.04728  1.0000
  H   H631      1.0  0.31943  0.15695  0.33375  1.0000
  H   H632      1.0  0.47727  0.01646  0.44668  1.0000
  N   N34       1.0  0.39910  0.13642  0.16051  1.0000
  C   C532      1.0  0.38079  0.13031  0.16131  1.0000
  C   C533      1.0  0.39906  0.15565  0.16551  1.0000
  C   C534      1.0  0.40622  0.13318  0.12856  1.0000
  C   C535      1.0  0.40909  0.12732  0.18552  1.0000
  C   C536      1.0  0.40528  0.13071  0.21749  1.0000
  C   C537      1.0  0.42209  0.11430  0.17917  1.0000
  C   C538      1.0  0.41408  0.12187  0.24155  1.0000
  C   C539      1.0  0.43081  0.10552  0.20348  1.0000
  C   C540      1.0  0.42681  0.10929  0.23459  1.0000
  H   H633      1.0  0.37293  0.13641  0.14218  1.0000
  H   H634      1.0  0.38015  0.11587  0.15841  1.0000
  H   H635      1.0  0.37412  0.13360  0.18383  1.0000
  H   H636      1.0  0.39160  0.15962  0.18681  1.0000
  H   H637      1.0  0.39261  0.16283  0.14580  1.0000
  H   H638      1.0  0.41263  0.16062  0.16769  1.0000
  H   H639      1.0  0.40469  0.11930  0.12137  1.0000
  H   H640      1.0  0.26381  0.23109  0.17321  1.0000
  C   C541      1.0  0.50379  0.02586  0.44271  1.0000
  H   H641      1.0  0.39762  0.29125  0.26162  1.0000
  H   H642      1.0  0.35514  0.31714  0.27485  1.0000
  H   H643      1.0  0.38193  0.30463  0.28142  1.0000
  S   S147      1.0  0.38987  0.11986  0.47905  1.0000
  H   H644      1.0  0.37480  0.26407  0.23440  1.0000
  N   N35       1.0  0.26760  0.20668  0.14823  1.0000
  H   H645      1.0  0.46393  0.04239  0.42107  1.0000
  C   C542      1.0  0.50527  0.10380  0.40753  1.0000
  H   H646      1.0  0.45015  0.03991  0.48916  1.0000
  C   C543      1.0  0.40387  0.00865  0.99439  1.0000
  S   S148      1.0  0.32583  0.33830  0.12545  1.0000
  H   H647      1.0  0.39701  0.02110  0.99349  1.0000
  C   C544      1.0  0.41904  0.16587  0.52345  1.0000
  H   H648      1.0  0.26339  0.31997  0.56540  1.0000
  Fe  Fe74      1.0  0.34241  0.31497  0.68387  1.0000
  S   S149      1.0  0.34206  0.28803  0.70779  1.0000
  H   H649      1.0  0.28382  0.28955  0.65749  1.0000
  Fe  Fe75      1.0  0.44015  0.08448  0.93267  1.0000
  S   S150      1.0  0.42896  0.06480  0.89973  1.0000
  S   S151      1.0  0.46668  0.09379  0.91423  1.0000
  Fe  Fe76      1.0  0.40618  0.08497  0.97135  1.0000
  S   S152      1.0  0.39347  0.06523  0.93982  1.0000
  H   H650      1.0  0.43536  0.13208  0.85494  1.0000
  Fe  Fe77      1.0  0.41915  0.05068  0.94263  1.0000
  S   S153      1.0  0.42503  0.02120  0.94581  1.0000
  Fe  Fe78      1.0  0.40443  0.08143  0.90014  1.0000
  S   S154      1.0  0.38976  0.08705  0.85396  1.0000
  H   H651      1.0  0.47952  0.01331  0.99122  1.0000
  S   S155      1.0  0.41582  0.10183  0.93136  1.0000
  Fe  Fe79      1.0  0.34876  0.18487  0.66968  1.0000
  S   S156      1.0  0.33114  0.17847  0.71010  1.0000
  S   S157      1.0  0.35639  0.21184  0.65076  1.0000
  Fe  Fe80      1.0  0.35266  0.14612  0.65134  1.0000
  S   S158      1.0  0.33465  0.13721  0.69043  1.0000
  S   S159      1.0  0.36849  0.12586  0.62344  1.0000
  Fe  Fe81      1.0  0.31767  0.16044  0.67630  1.0000
  S   S160      1.0  0.28770  0.16302  0.67647  1.0000
  Fe  Fe82      1.0  0.34960  0.15575  0.72098  1.0000
  S   S161      1.0  0.35985  0.15158  0.77151  1.0000
  S   S162      1.0  0.33456  0.16784  0.63527  1.0000
  S   S163      1.0  0.36828  0.16370  0.68253  1.0000
  C   C545      1.0  0.27712  0.15735  0.61486  1.0000
  C   C546      1.0  0.27243  0.16269  0.64505  1.0000
  H   H652      1.0  0.29048  0.15330  0.60998  1.0000
  H   H653      1.0  0.38469  0.20937  0.60158  1.0000
  C   C547      1.0  0.38335  0.12053  0.51904  1.0000
  C   C548      1.0  0.37175  0.13390  0.52881  1.0000
  C   C549      1.0  0.36657  0.13538  0.56042  1.0000
  C   C550      1.0  0.37324  0.12370  0.58281  1.0000
  C   C551      1.0  0.38459  0.11014  0.57295  1.0000
  C   C552      1.0  0.38957  0.10849  0.54122  1.0000
  C   C553      1.0  0.34493  0.11833  0.96529  1.0000
  H   H654      1.0  0.35743  0.14552  0.56745  1.0000
  H   H655      1.0  0.38972  0.10095  0.59003  1.0000
  H   H656      1.0  0.39844  0.09810  0.53405  1.0000
  C   C554      1.0  0.38199  0.10535  0.83125  1.0000
  C   C555      1.0  0.38240  0.12261  0.84209  1.0000
  C   C556      1.0  0.37563  0.13648  0.82348  1.0000
  C   C557      1.0  0.36840  0.13342  0.79369  1.0000
  C   C558      1.0  0.36819  0.11620  0.78272  1.0000
  C   C559      1.0  0.37485  0.10232  0.80141  1.0000
  H   H657      1.0  0.38770  0.12529  0.86493  1.0000
  H   H658      1.0  0.37586  0.14971  0.83235  1.0000
  H   H659      1.0  0.36275  0.11353  0.75991  1.0000
  H   H660      1.0  0.37443  0.08908  0.79262  1.0000
  H   H661      1.0  0.33648  0.11422  0.83317  1.0000
  H   H662      1.0  0.40050  0.16922  0.63781  1.0000
  H   H663      1.0  0.34809  0.09970  0.87909  1.0000
  H   H664      1.0  0.33483  0.16329  0.88095  1.0000
  H   H665      1.0  0.46191  0.12832  0.82175  1.0000
  C   C560      1.0  0.34611  0.26699  0.69135  1.0000
  C   C561      1.0  0.35196  0.26480  0.66052  1.0000
  C   C562      1.0  0.35514  0.24785  0.64862  1.0000
  C   C563      1.0  0.35236  0.23288  0.66723  1.0000
  C   C564      1.0  0.34640  0.23505  0.69801  1.0000
  C   C565      1.0  0.34333  0.25201  0.70996  1.0000
  H   H666      1.0  0.35419  0.27617  0.64591  1.0000
  H   H667      1.0  0.35976  0.24636  0.62479  1.0000
  H   H668      1.0  0.34433  0.22370  0.71273  1.0000
  H   H669      1.0  0.33882  0.25352  0.73385  1.0000
  C   C566      1.0  0.37350  0.12299  0.94271  1.0000
  C   C567      1.0  0.30165  0.26757  0.65708  1.0000
  C   C568      1.0  0.48761  0.09149  0.93207  1.0000
  H   H670      1.0  0.38517  0.20262  0.56182  1.0000
  H   H671      1.0  0.28845  0.21881  0.71003  1.0000
  N   N36       1.0  0.35477  0.31585  0.79141  1.0000
  C   C569      1.0  0.36321  0.32293  0.76285  1.0000
  C   C570      1.0  0.36027  0.29720  0.79454  1.0000
  H   H672      1.0  0.48201  0.05364  0.92156  1.0000
  C   C571      1.0  0.41814  0.00561  0.97435  1.0000
  C   C572      1.0  0.41620  0.12335  0.74055  1.0000
  C   C573      1.0  0.27134  0.10804  0.67158  1.0000
  H   H673      1.0  0.31601  0.21661  0.67909  1.0000
  C   C574      1.0  0.27438  0.33333  0.60508  1.0000
  H   H674      1.0  0.44738  0.08237  0.81367  1.0000
  C   C575      1.0  0.27024  0.26498  0.65798  1.0000
  H   H675      1.0  0.36043  0.31477  0.74200  1.0000
  H   H676      1.0  0.37477  0.29570  0.79503  1.0000
  H   H677      1.0  0.42666  0.08575  0.83288  1.0000
  H   H678      1.0  0.35585  0.28929  0.77419  1.0000
  H   H679      1.0  0.44812  0.09651  0.76818  1.0000
  C   C576      1.0  0.48728  0.02194  0.97660  1.0000
  H   H680      1.0  0.40813  0.19046  0.53556  1.0000
  S   S164      1.0  0.36580  0.33278  0.68102  1.0000
  C   C577      1.0  0.41151  0.13192  0.76804  1.0000
  C   C578      1.0  0.50555  0.02190  0.97904  1.0000
  S   S165      1.0  0.33172  0.32261  0.63662  1.0000
  H   H681      1.0  0.34650  0.14947  0.92831  1.0000
  C   C579      1.0  0.40011  0.00780  0.50397  1.0000
  N   N37       1.0  0.44172  0.10919  0.82738  1.0000
  H   H682      1.0  0.40214  0.14785  0.60269  1.0000
  C   C580      1.0  0.46045  0.11402  0.82584  1.0000
  H   H683      1.0  0.31521  0.21625  0.63678  1.0000
  C   C581      1.0  0.35964  0.32678  0.81849  1.0000
  H   H684      1.0  0.27428  0.08355  0.64765  1.0000
  C   C582      1.0  0.40713  0.15352  0.58122  1.0000
  H   H685      1.0  0.36934  0.17506  0.57290  1.0000
  C   C583      1.0  0.26439  0.15683  0.59101  1.0000
  H   H686      1.0  0.40950  0.12653  0.71889  1.0000
  N   N38       1.0  0.39338  0.18261  0.59472  1.0000
  C   C584      1.0  0.39222  0.20120  0.58446  1.0000
  H   H687      1.0  0.35456  0.29112  0.81595  1.0000
  H   H688      1.0  0.28348  0.19829  0.69221  1.0000
  H   H689      1.0  0.26813  0.15242  0.56786  1.0000
  H   H690      1.0  0.46756  0.10706  0.80678  1.0000
  C   C585      1.0  0.27191  0.24672  0.65833  1.0000
  C   C586      1.0  0.37533  0.17584  0.59655  1.0000
  C   C587      1.0  0.40383  0.17133  0.57340  1.0000
  H   H691      1.0  0.33002  0.14591  0.83312  1.0000
  C   C588      1.0  0.41014  0.17723  0.54381  1.0000
  C   C589      1.0  0.30348  0.24933  0.65741  1.0000
  H   H692      1.0  0.47948  0.05128  0.50165  1.0000
  H   H693      1.0  0.36441  0.09017  0.95681  1.0000
  H   H694      1.0  0.37492  0.16253  0.60713  1.0000
  H   H695      1.0  0.46738  0.11066  0.84810  1.0000
  H   H696      1.0  0.38044  0.11661  0.96266  1.0000
  C   C590      1.0  0.40103  0.18237  0.62663  1.0000
  H   H697      1.0  0.26616  0.21358  0.63423  1.0000
  H   H698      1.0  0.28405  0.10716  0.68273  1.0000
  C   C591      1.0  0.37084  0.32064  0.84284  1.0000
  H   H699      1.0  0.40120  0.14183  0.76751  1.0000
  H   H700      1.0  0.37768  0.32354  0.76552  1.0000
  N   N39       1.0  0.29000  0.21898  0.65973  1.0000
  C   C592      1.0  0.28206  0.21272  0.68945  1.0000
  C   C593      1.0  0.28052  0.21117  0.63305  1.0000
  C   C594      1.0  0.30831  0.21219  0.65861  1.0000
  C   C595      1.0  0.42199  0.14847  0.53190  1.0000
  H   H701      1.0  0.38200  0.12160  0.92163  1.0000
  H   H702      1.0  0.44059  0.11312  0.87744  1.0000
  H   H703      1.0  0.46466  0.03331  0.95403  1.0000
  H   H704      1.0  0.49899  0.03475  0.53757  1.0000
  H   H705      1.0  0.36673  0.18433  0.61118  1.0000
  C   C596      1.0  0.43783  0.10632  0.76910  1.0000
  S   S166      1.0  0.32592  0.33509  0.70927  1.0000
  H   H706      1.0  0.43312  0.10408  0.71950  1.0000
  H   H707      1.0  0.37603  0.30746  0.84348  1.0000
  H   H708      1.0  0.36676  0.14321  0.51182  1.0000
  H   H709      1.0  0.42347  0.17046  0.50073  1.0000
  H   H710      1.0  0.31670  0.24423  0.65735  1.0000
  H   H711      1.0  0.30882  0.19761  0.65928  1.0000
  H   H712      1.0  0.48977  0.00735  0.56106  1.0000
  H   H713      1.0  0.28225  0.19668  0.63250  1.0000
  H   H714      1.0  0.41496  0.18646  0.62605  1.0000
  C   C597      1.0  0.48867  0.04456  0.93723  1.0000
  C   C598      1.0  0.26582  0.09481  0.65175  1.0000
  H   H715      1.0  0.40543  0.20707  0.58225  1.0000
  N   N40       1.0  0.35615  0.11508  0.93737  1.0000
  C   C599      1.0  0.35881  0.09586  0.93488  1.0000
  C   C600      1.0  0.28861  0.23832  0.65819  1.0000
  H   H716      1.0  0.32857  0.31202  0.80869  1.0000
  C   C601      1.0  0.34816  0.12308  0.90909  1.0000
  C   C602      1.0  0.34415  0.14127  0.90826  1.0000
  C   C603      1.0  0.34498  0.11347  0.88126  1.0000
  C   C604      1.0  0.33750  0.14933  0.88126  1.0000
  C   C605      1.0  0.33825  0.12167  0.85447  1.0000
  C   C606      1.0  0.33463  0.13956  0.85438  1.0000
  H   H717      1.0  0.36818  0.09245  0.91572  1.0000
  H   H718      1.0  0.34625  0.08905  0.93073  1.0000
  C   C607      1.0  0.45302  0.01698  0.51842  1.0000
  H   H719      1.0  0.44016  0.01256  0.51203  1.0000
  C   C608      1.0  0.48060  0.01394  0.54573  1.0000
  C   C609      1.0  0.47886  0.03321  0.95568  1.0000
  C   C610      1.0  0.43294  0.11436  0.79781  1.0000
  H   H720      1.0  0.41826  0.12874  0.56711  1.0000
  H   H721      1.0  0.31321  0.27573  0.65705  1.0000
  C   C611      1.0  0.41968  0.12757  0.79632  1.0000
  C   C612      1.0  0.48955  0.08731  0.96380  1.0000
  H   H722      1.0  0.39374  0.19131  0.64279  1.0000
  H   H723      1.0  0.39118  0.01062  0.52308  1.0000
  H   H724      1.0  0.44686  0.08587  0.85456  1.0000
  H   H725      1.0  0.38472  0.32690  0.88523  1.0000
  C   C613      1.0  0.44058  0.09000  0.83218  1.0000
  C   C614      1.0  0.37597  0.33169  0.86711  1.0000
  H   H726      1.0  0.41515  0.13459  0.81670  1.0000
  H   H727      1.0  0.33147  0.11332  0.96167  1.0000
  S   S167      1.0  0.43161  0.06956  0.97575  1.0000
  H   H728      1.0  0.41987  0.11431  0.85822  1.0000
  C   C615      1.0  0.46372  0.00716  0.53937  1.0000
  H   H729      1.0  0.35852  0.33641  0.75730  1.0000
  C   C616      1.0  0.42944  0.11066  0.74101  1.0000
  C   C617      1.0  0.43397  0.11762  0.85558  1.0000
  C   C618      1.0  0.33549  0.31621  0.78699  1.0000
  H   H730      1.0  0.26780  0.21565  0.69092  1.0000
  H   H731      1.0  0.42848  0.13958  0.51573  1.0000
  C   C619      1.0  0.26057  0.12255  0.67684  1.0000
  C   C620      1.0  0.41622  0.14238  0.56086  1.0000
  C   C621      1.0  0.26081  0.32912  0.58414  1.0000
  C   C622      1.0  0.48613  0.02970  0.53227  1.0000
  C   C623      1.0  0.45865  0.03269  0.50512  1.0000
  H   H732      1.0  0.26002  0.23920  0.65923  1.0000
  C   C624      1.0  0.28509  0.27538  0.65739  1.0000
  H   H733      1.0  0.47807  0.08506  0.97812  1.0000
  H   H734      1.0  0.34380  0.13243  0.97123  1.0000
  H   H735      1.0  0.28545  0.21637  0.61032  1.0000
  H   H736      1.0  0.35038  0.11180  0.98664  1.0000
  H   H737      1.0  0.28721  0.32738  0.60241  1.0000
  C   C625      1.0  0.50274  0.09436  0.91387  1.0000
  H   H738      1.0  0.26501  0.13291  0.69205  1.0000
  C   C626      1.0  0.47516  0.03908  0.51211  1.0000
  H   H739      1.0  0.37250  0.13714  0.94837  1.0000
  H   H740      1.0  0.50142  0.09762  0.88932  1.0000
  H   H741      1.0  0.33143  0.30742  0.76761  1.0000
  H   H742      1.0  0.33041  0.32940  0.78042  1.0000
  H   H743      1.0  0.25738  0.27114  0.65871  1.0000
  C   C627      1.0  0.30067  0.38291  0.11279  1.0000
  H   H744      1.0  0.30869  0.40153  0.04201  1.0000
  H   H745      1.0  0.47902  0.53407  0.46140  1.0000
  S   S168      1.0  0.36088  0.35312  0.25408  1.0000
  Fe  Fe83      1.0  0.34403  0.36000  0.13865  1.0000
  S   S169      1.0  0.35083  0.38298  0.10696  1.0000
  S   S170      1.0  0.32838  0.36831  0.18098  1.0000
  C   C628      1.0  0.42245  0.38564  0.13035  1.0000
  S   S171      1.0  0.33876  0.63671  0.29060  1.0000
  S   S172      1.0  0.37622  0.65147  0.35286  1.0000
  C   C629      1.0  0.37638  0.66300  0.00168  1.0000
  Fe  Fe84      1.0  0.31120  0.34539  0.16934  1.0000
  Fe  Fe85      1.0  0.34649  0.65221  0.24755  1.0000
  S   S173      1.0  0.35122  0.63718  0.20100  1.0000
  H   H746      1.0  0.29489  0.37063  0.12206  1.0000
  Fe  Fe86      1.0  0.43442  0.41565  0.42886  1.0000
  S   S174      1.0  0.42577  0.43432  0.39096  1.0000
  S   S175      1.0  0.46107  0.40171  0.43224  1.0000
  Fe  Fe87      1.0  0.39931  0.41808  0.46315  1.0000
  S   S176      1.0  0.38832  0.43722  0.42771  1.0000
  H   H747      1.0  0.34765  0.57536  0.20731  1.0000
  Fe  Fe88      1.0  0.40026  0.41951  0.39073  1.0000
  S   S177      1.0  0.38441  0.41553  0.34519  1.0000
  Fe  Fe89      1.0  0.41438  0.45051  0.43045  1.0000
  S   S178      1.0  0.41877  0.48017  0.42941  1.0000
  S   S179      1.0  0.40962  0.39958  0.42629  1.0000
  S   S180      1.0  0.42465  0.43264  0.46815  1.0000
  Fe  Fe90      1.0  0.41720  0.59270  0.06679  1.0000
  S   S181      1.0  0.42695  0.60480  0.02150  1.0000
  S   S182      1.0  0.41352  0.60927  0.11131  1.0000
  Fe  Fe91      1.0  0.41597  0.55578  0.03764  1.0000
  C   C630      1.0  0.49716  0.40163  0.43441  1.0000
  S   S183      1.0  0.41165  0.52697  0.04930  1.0000
  Fe  Fe92      1.0  0.44478  0.58103  0.01754  1.0000
  H   H748      1.0  0.34716  0.62245  0.03755  1.0000
  H   H749      1.0  0.26749  0.38310  0.11305  1.0000
  H   H750      1.0  0.42760  0.39471  0.08337  1.0000
  S   S184      1.0  0.43671  0.57015  0.06428  1.0000
  S   S185      1.0  0.39595  0.57736  0.04412  1.0000
  C   C631      1.0  0.41630  0.49541  0.46057  1.0000
  H   H751      1.0  0.38350  0.35405  0.30779  1.0000
  C   C632      1.0  0.41104  0.49311  0.02670  1.0000
  H   H752      1.0  0.29431  0.39425  0.12465  1.0000
  H   H753      1.0  0.35893  0.55505  0.16779  1.0000
  C   C633      1.0  0.42053  0.51306  0.45520  1.0000
  H   H754      1.0  0.40901  0.58163  0.17119  1.0000
  H   H755      1.0  0.41382  0.48921  0.05055  1.0000
  H   H756      1.0  0.36653  0.55076  0.11720  1.0000
  H   H757      1.0  0.42518  0.51701  0.43232  1.0000
  C   C634      1.0  0.36878  0.62991  0.17606  1.0000
  C   C635      1.0  0.38622  0.63462  0.18081  1.0000
  C   C636      1.0  0.39960  0.62834  0.16058  1.0000
  C   C637      1.0  0.39585  0.61718  0.13536  1.0000
  C   C638      1.0  0.37842  0.61245  0.13056  1.0000
  C   C639      1.0  0.36502  0.61886  0.15062  1.0000
  H   H758      1.0  0.38941  0.64309  0.20012  1.0000
  H   H759      1.0  0.41300  0.63209  0.16469  1.0000
  H   H760      1.0  0.37526  0.60372  0.11167  1.0000
  H   H761      1.0  0.35162  0.61501  0.14677  1.0000
  C   C640      1.0  0.37591  0.63901  0.38805  1.0000
  C   C641      1.0  0.36040  0.63255  0.40095  1.0000
  C   C642      1.0  0.36077  0.62329  0.42960  1.0000
  C   C643      1.0  0.37663  0.62028  0.44550  1.0000
  C   C644      1.0  0.39215  0.62659  0.43246  1.0000
  C   C645      1.0  0.39175  0.63599  0.40399  1.0000
  H   H762      1.0  0.34811  0.63480  0.38898  1.0000
  H   H763      1.0  0.34868  0.61848  0.43948  1.0000
  H   H764      1.0  0.40445  0.62440  0.44442  1.0000
  H   H765      1.0  0.40382  0.64094  0.39421  1.0000
  S   S186      1.0  0.47233  0.57807  0.99656  1.0000
  C   C646      1.0  0.37806  0.50216  0.42035  1.0000
  C   C647      1.0  0.39145  0.53595  0.15168  1.0000
  C   C648      1.0  0.36801  0.38288  0.07898  1.0000
  C   C649      1.0  0.38089  0.36974  0.07859  1.0000
  C   C650      1.0  0.39483  0.37063  0.05695  1.0000
  C   C651      1.0  0.39594  0.38453  0.03537  1.0000
  C   C652      1.0  0.38285  0.39749  0.03536  1.0000
  C   C653      1.0  0.36901  0.39671  0.05725  1.0000
  H   H766      1.0  0.38031  0.35907  0.09526  1.0000
  H   H767      1.0  0.40494  0.36059  0.05716  1.0000
  H   H768      1.0  0.31458  0.38281  0.12034  1.0000
  H   H769      1.0  0.35914  0.40697  0.05745  1.0000
  C   C654      1.0  0.36707  0.37074  0.27919  1.0000
  C   C655      1.0  0.36090  0.38793  0.27510  1.0000
  C   C656      1.0  0.36637  0.40135  0.29546  1.0000
  C   C657      1.0  0.37794  0.39785  0.32047  1.0000
  C   C658      1.0  0.38402  0.38064  0.32464  1.0000
  C   C659      1.0  0.37864  0.36725  0.30415  1.0000
  H   H770      1.0  0.35171  0.39089  0.25661  1.0000
  H   H771      1.0  0.36143  0.41454  0.29211  1.0000
  H   H772      1.0  0.39290  0.37767  0.34364  1.0000
  H   H773      1.0  0.34671  0.40235  0.47169  1.0000
  H   H774      1.0  0.38505  0.54791  0.09228  1.0000
  C   C660      1.0  0.36641  0.52542  0.45282  1.0000
  H   H775      1.0  0.35967  0.49819  0.45769  1.0000
  H   H776      1.0  0.41390  0.54916  0.11017  1.0000
  C   C661      1.0  0.48181  0.41203  0.43433  1.0000
  C   C662      1.0  0.48334  0.43020  0.43645  1.0000
  C   C663      1.0  0.45919  0.53109  0.99921  1.0000
  H   H777      1.0  0.47167  0.43837  0.43639  1.0000
  C   C664      1.0  0.41153  0.38703  0.15662  1.0000
  C   C665      1.0  0.49308  0.58303  0.01272  1.0000
  C   C666      1.0  0.49482  0.59166  0.04130  1.0000
  H   H778      1.0  0.36488  0.61174  0.05743  1.0000
  H   H779      1.0  0.48324  0.59536  0.05450  1.0000
  C   C667      1.0  0.27682  0.64922  0.36272  1.0000
  H   H780      1.0  0.28747  0.38528  0.01744  1.0000
  H   H781      1.0  0.36652  0.59833  0.22885  1.0000
  C   C668      1.0  0.35862  0.56417  0.43986  1.0000
  C   C669      1.0  0.28074  0.38429  0.06716  1.0000
  C   C670      1.0  0.39051  0.63084  0.03374  1.0000
  C   C671      1.0  0.25960  0.33892  0.08513  1.0000
  C   C672      1.0  0.36818  0.64606  0.06347  1.0000
  H   H782      1.0  0.30991  0.36967  0.03883  1.0000
  C   C673      1.0  0.36147  0.61962  0.03627  1.0000
  H   H783      1.0  0.37809  0.53155  0.15812  1.0000
  N   N41       1.0  0.29909  0.38410  0.07818  1.0000
  H   H784      1.0  0.37062  0.63804  0.08491  1.0000
  H   H785      1.0  0.41048  0.57169  0.11985  1.0000
  C   C674      1.0  0.40959  0.55812  0.12932  1.0000
  H   H786      1.0  0.47462  0.50956  0.42575  1.0000
  S   S187      1.0  0.36190  0.34237  0.16629  1.0000
  N   N42       1.0  0.38534  0.39963  0.18495  1.0000
  C   C675      1.0  0.37675  0.38248  0.18866  1.0000
  C   C676      1.0  0.39548  0.40334  0.21369  1.0000
  C   C677      1.0  0.37125  0.41314  0.18240  1.0000
  C   C678      1.0  0.39714  0.39898  0.15733  1.0000
  H   H787      1.0  0.35568  0.56328  0.41441  1.0000
  C   C679      1.0  0.39444  0.40948  0.13012  1.0000
  C   C680      1.0  0.25986  0.38454  0.02351  1.0000
  C   C681      1.0  0.27149  0.65064  0.33151  1.0000
  H   H788      1.0  0.38907  0.58139  0.43967  1.0000
  H   H789      1.0  0.36703  0.38252  0.20814  1.0000
  C   C682      1.0  0.26611  0.38386  0.08791  1.0000
  H   H790      1.0  0.38621  0.37172  0.19400  1.0000
  H   H791      1.0  0.40295  0.41569  0.21114  1.0000
  H   H792      1.0  0.40496  0.39270  0.21959  1.0000
  H   H793      1.0  0.38684  0.40469  0.23467  1.0000
  H   H794      1.0  0.36237  0.41041  0.16238  1.0000
  H   H795      1.0  0.36279  0.41343  0.20375  1.0000
  H   H796      1.0  0.37677  0.42646  0.17956  1.0000
  C   C683      1.0  0.47029  0.50858  0.44989  1.0000
  H   H797      1.0  0.38359  0.41856  0.12789  1.0000
  H   H798      1.0  0.39718  0.60073  0.21116  1.0000
  C   C684      1.0  0.26626  0.34503  0.13970  1.0000
  H   H799      1.0  0.40306  0.41588  0.08328  1.0000
  H   H800      1.0  0.42349  0.37288  0.49268  1.0000
  H   H801      1.0  0.39404  0.62211  0.05378  1.0000
  H   H802      1.0  0.41420  0.37840  0.17616  1.0000
  H   H803      1.0  0.30192  0.35642  0.07051  1.0000
  H   H804      1.0  0.37670  0.65766  0.06561  1.0000
  C   C685      1.0  0.41944  0.39613  0.10412  1.0000
  C   C686      1.0  0.30865  0.36886  0.06469  1.0000
  S   S188      1.0  0.28663  0.65050  0.29974  1.0000
  H   H805      1.0  0.39984  0.53442  0.17281  1.0000
  H   H806      1.0  0.32227  0.36777  0.07377  1.0000
  H   H807      1.0  0.38704  0.56863  0.40532  1.0000
  N   N43       1.0  0.37614  0.55663  0.44692  1.0000
  H   H808      1.0  0.35773  0.57826  0.44651  1.0000
  H   H809      1.0  0.43314  0.37618  0.13004  1.0000
  C   C687      1.0  0.36723  0.50772  0.44471  1.0000
  C   C688      1.0  0.37680  0.53806  0.43714  1.0000
  H   H810      1.0  0.45962  0.48285  0.44388  1.0000
  C   C689      1.0  0.38742  0.53198  0.41187  1.0000
  C   C690      1.0  0.36764  0.64691  0.00664  1.0000
  C   C691      1.0  0.38798  0.51426  0.40379  1.0000
  S   S189      1.0  0.32277  0.67004  0.25188  1.0000
  C   C692      1.0  0.27181  0.34019  0.10968  1.0000
  H   H811      1.0  0.25820  0.64063  0.00695  1.0000
  C   C693      1.0  0.26422  0.64840  0.38695  1.0000
  S   S190      1.0  0.28130  0.34806  0.17095  1.0000
  Fe  Fe93      1.0  0.40643  0.58826  0.99875  1.0000
  N   N44       1.0  0.37175  0.63598  0.03446  1.0000
  S   S191      1.0  0.37630  0.60884  0.48177  1.0000
  C   C694      1.0  0.37923  0.55795  0.48113  1.0000
  C   C695      1.0  0.41887  0.52561  0.47917  1.0000
  C   C696      1.0  0.47266  0.52254  0.47045  1.0000
  H   H812      1.0  0.39571  0.54052  0.39838  1.0000
  H   H813      1.0  0.32163  0.40085  0.07654  1.0000
  H   H814      1.0  0.39668  0.50968  0.38533  1.0000
  H   H815      1.0  0.43558  0.38931  0.47222  1.0000
  N   N45       1.0  0.39152  0.55427  0.14014  1.0000
  H   H816      1.0  0.34803  0.55730  0.45274  1.0000
  C   C697      1.0  0.37990  0.55569  0.11246  1.0000
  C   C698      1.0  0.38512  0.56615  0.16515  1.0000
  C   C699      1.0  0.39570  0.57929  0.17865  1.0000
  C   C700      1.0  0.36770  0.56480  0.17665  1.0000
  C   C701      1.0  0.38906  0.59047  0.20179  1.0000
  C   C702      1.0  0.36114  0.57624  0.19946  1.0000
  C   C703      1.0  0.37178  0.58911  0.21187  1.0000
  H   H817      1.0  0.36973  0.37899  0.16684  1.0000
  H   H818      1.0  0.41930  0.55651  0.14848  1.0000
  H   H819      1.0  0.39649  0.52669  0.13351  1.0000
  H   H820      1.0  0.37856  0.56956  0.10467  1.0000
  H   H821      1.0  0.50101  0.45190  0.44011  1.0000
  C   C704      1.0  0.30789  0.40036  0.06791  1.0000
  C   C705      1.0  0.41048  0.49044  0.49037  1.0000
  H   H822      1.0  0.35433  0.65075  0.06435  1.0000
  H   H823      1.0  0.39935  0.64223  0.03521  1.0000
  C   C706      1.0  0.40556  0.40808  0.10411  1.0000
  Fe  Fe94      1.0  0.31605  0.65578  0.29642  1.0000
  Fe  Fe95      1.0  0.35429  0.65653  0.31748  1.0000
  H   H824      1.0  0.29062  0.64825  0.36810  1.0000
  C   C707      1.0  0.40937  0.51103  0.01928  1.0000
  C   C708      1.0  0.50002  0.43784  0.43855  1.0000
  C   C709      1.0  0.38941  0.56767  0.43096  1.0000
  C   C710      1.0  0.33926  0.39651  0.49065  1.0000
  Fe  Fe96      1.0  0.34539  0.34956  0.20826  1.0000
  H   H825      1.0  0.40291  0.56253  0.43508  1.0000
  S   S192      1.0  0.41439  0.38569  0.01020  1.0000
  H   H826      1.0  0.30083  0.41215  0.07688  1.0000
  H   H827      1.0  0.42217  0.53907  0.47448  1.0000
  H   H828      1.0  0.49615  0.38757  0.43274  1.0000
  C   C711      1.0  0.27705  0.38484  0.03460  1.0000
  H   H829      1.0  0.26847  0.64690  0.41095  1.0000
  H   H830      1.0  0.41045  0.46646  0.00954  1.0000
  H   H831      1.0  0.38359  0.40828  0.01894  1.0000
  C   C712      1.0  0.46196  0.49347  0.46007  1.0000
  H   H832      1.0  0.46496  0.55667  0.48722  1.0000
  H   H833      1.0  0.36421  0.61100  0.01577  1.0000
  H   H834      1.0  0.39373  0.62379  0.01164  1.0000
  H   H835      1.0  0.35211  0.37154  0.48652  1.0000
  H   H836      1.0  0.44836  0.48853  0.00324  1.0000
  C   C713      1.0  0.40915  0.48017  0.00346  1.0000
  H   H837      1.0  0.45924  0.54262  0.01391  1.0000
  S   S193      1.0  0.36312  0.67134  0.27414  1.0000
  H   H838      1.0  0.37912  0.48835  0.41469  1.0000
  C   C714      1.0  0.45368  0.51515  0.01138  1.0000
  H   H839      1.0  0.46407  0.37914  0.48989  1.0000
  H   H840      1.0  0.50144  0.60512  0.48383  1.0000
  H   H841      1.0  0.38609  0.66753  0.01797  1.0000
  H   H842      1.0  0.44923  0.51441  0.03551  1.0000
  H   H843      1.0  0.25734  0.38457  0.99855  1.0000
  H   H844      1.0  0.35773  0.52904  0.47179  1.0000
  H   H845      1.0  0.37989  0.57179  0.48883  1.0000
  H   H846      1.0  0.39172  0.55136  0.48779  1.0000
  C   C715      1.0  0.45599  0.49225  0.49083  1.0000
  H   H847      1.0  0.44587  0.35478  0.55545  1.0000
  H   H848      1.0  0.44394  0.37878  0.86589  1.0000
  Fe  Fe97      1.0  0.34866  0.35337  0.70385  1.0000
  S   S194      1.0  0.35443  0.37259  0.74410  1.0000
  C   C716      1.0  0.37020  0.60554  0.79047  1.0000
  C   C717      1.0  0.42950  0.38599  0.49511  1.0000
  S   S195      1.0  0.33826  0.36378  0.65776  1.0000
  Fe  Fe98      1.0  0.35414  0.66379  0.83698  1.0000
  S   S196      1.0  0.33848  0.64190  0.81673  1.0000
  S   S197      1.0  0.37634  0.66043  0.87190  1.0000
  Fe  Fe99      1.0  0.31545  0.66051  0.82109  1.0000
  S   S198      1.0  0.28733  0.65187  0.83032  1.0000
  Fe  Fe100     1.0  0.34438  0.65452  0.76998  1.0000
  S   S199      1.0  0.34917  0.63628  0.72773  1.0000
  S   S200      1.0  0.42072  0.57996  0.49522  1.0000
  Fe  Fe101     1.0  0.44659  0.42186  0.93054  1.0000
  S   S201      1.0  0.42682  0.43336  0.89724  1.0000
  S   S202      1.0  0.47426  0.43124  0.91917  1.0000
  Fe  Fe102     1.0  0.41730  0.40491  0.96967  1.0000
  S   S203      1.0  0.39572  0.41563  0.93900  1.0000
  H   H849      1.0  0.26229  0.62653  0.90232  1.0000
  Fe  Fe103     1.0  0.41297  0.40747  0.89815  1.0000
  S   S204      1.0  0.40833  0.38953  0.85537  1.0000
  Fe  Fe104     1.0  0.41150  0.44068  0.94061  1.0000
  S   S205      1.0  0.40234  0.46933  0.94225  1.0000
  S   S206      1.0  0.43391  0.39558  0.92913  1.0000
  S   S207      1.0  0.43184  0.43030  0.97375  1.0000
  Fe  Fe105     1.0  0.41151  0.59953  0.57896  1.0000
  S   S208      1.0  0.41875  0.61593  0.53678  1.0000
  S   S209      1.0  0.40745  0.61534  0.62456  1.0000
  Fe  Fe106     1.0  0.41409  0.56548  0.53927  1.0000
  H   H850      1.0  0.34961  0.61397  0.57773  1.0000
  S   S210      1.0  0.41121  0.53577  0.54050  1.0000
  Fe  Fe107     1.0  0.43906  0.59504  0.52614  1.0000
  H   H851      1.0  0.46727  0.37330  0.53016  1.0000
  C   C718      1.0  0.41422  0.37022  0.60362  1.0000
  H   H852      1.0  0.44251  0.47803  0.89850  1.0000
  S   S211      1.0  0.43332  0.57967  0.56987  1.0000
  S   S212      1.0  0.39190  0.58377  0.55245  1.0000
  C   C719      1.0  0.40517  0.48500  0.97260  1.0000
  C   C720      1.0  0.35855  0.64614  0.59678  1.0000
  C   C721      1.0  0.40899  0.50297  0.51445  1.0000
  H   H853      1.0  0.35457  0.63814  0.51848  1.0000
  H   H854      1.0  0.28971  0.67135  0.88935  1.0000
  C   C722      1.0  0.40341  0.50290  0.96529  1.0000
  H   H855      1.0  0.46459  0.54543  0.57063  1.0000
  H   H856      1.0  0.40454  0.49893  0.53743  1.0000
  C   C723      1.0  0.38753  0.59463  0.84646  1.0000
  H   H857      1.0  0.40024  0.50683  0.94160  1.0000
  C   C724      1.0  0.36590  0.63034  0.70006  1.0000
  C   C725      1.0  0.38232  0.63828  0.69919  1.0000
  C   C726      1.0  0.39482  0.63339  0.67616  1.0000
  C   C727      1.0  0.39118  0.62051  0.65363  1.0000
  C   C728      1.0  0.37489  0.61233  0.65497  1.0000
  C   C729      1.0  0.36237  0.61726  0.67790  1.0000
  H   H858      1.0  0.38529  0.64840  0.71588  1.0000
  H   H859      1.0  0.40737  0.63980  0.67555  1.0000
  H   H860      1.0  0.37193  0.60208  0.63856  1.0000
  H   H861      1.0  0.34979  0.61092  0.67837  1.0000
  C   C730      1.0  0.37886  0.64196  0.89672  1.0000
  C   C731      1.0  0.36671  0.62845  0.89698  1.0000
  C   C732      1.0  0.36871  0.61436  0.91803  1.0000
  C   C733      1.0  0.38298  0.61349  0.93866  1.0000
  C   C734      1.0  0.39525  0.62691  0.93822  1.0000
  C   C735      1.0  0.39316  0.64111  0.91734  1.0000
  H   H862      1.0  0.35563  0.62898  0.88133  1.0000
  H   H863      1.0  0.35918  0.60400  0.91820  1.0000
  H   H864      1.0  0.40633  0.62637  0.95387  1.0000
  H   H865      1.0  0.40259  0.65155  0.91729  1.0000
  C   C736      1.0  0.27161  0.65862  0.85875  1.0000
  H   H866      1.0  0.43850  0.47076  0.96533  1.0000
  H   H867      1.0  0.45523  0.37139  0.80142  1.0000
  C   C737      1.0  0.37307  0.36348  0.56732  1.0000
  C   C738      1.0  0.36709  0.37995  0.57705  1.0000
  C   C739      1.0  0.37030  0.39486  0.55840  1.0000
  C   C740      1.0  0.37956  0.39351  0.52992  1.0000
  C   C741      1.0  0.38529  0.37699  0.51997  1.0000
  C   C742      1.0  0.38213  0.36209  0.53867  1.0000
  H   H868      1.0  0.36021  0.38124  0.59910  1.0000
  H   H869      1.0  0.38264  0.65666  0.55198  1.0000
  C   C743      1.0  0.33689  0.65115  0.63865  1.0000
  S   S213      1.0  0.38354  0.41285  0.50788  1.0000
  C   C744      1.0  0.37004  0.37739  0.77406  1.0000
  C   C745      1.0  0.38517  0.36723  0.77907  1.0000
  C   C746      1.0  0.39664  0.37119  0.80394  1.0000
  C   C747      1.0  0.39328  0.38538  0.82420  1.0000
  C   C748      1.0  0.37826  0.39564  0.81900  1.0000
  C   C749      1.0  0.36677  0.39166  0.79417  1.0000
  H   H870      1.0  0.38800  0.35628  0.76390  1.0000
  H   H871      1.0  0.40815  0.36309  0.80765  1.0000
  H   H872      1.0  0.37543  0.40663  0.83415  1.0000
  H   H873      1.0  0.35516  0.39967  0.79062  1.0000
  H   H874      1.0  0.45114  0.45839  0.93846  1.0000
  H   H875      1.0  0.33699  0.35841  0.53040  1.0000
  H   H876      1.0  0.47906  0.49324  0.90933  1.0000
  H   H877      1.0  0.38670  0.34939  0.53085  1.0000
  C   C750      1.0  0.49482  0.42109  0.92700  1.0000
  C   C751      1.0  0.39532  0.58939  0.87463  1.0000
  H   H878      1.0  0.48447  0.39695  0.94491  1.0000
  H   H879      1.0  0.41870  0.39562  0.49913  1.0000
  C   C752      1.0  0.48808  0.58715  0.55261  1.0000
  C   C753      1.0  0.48680  0.59519  0.52322  1.0000
  C   C754      1.0  0.41127  0.38663  0.59031  1.0000
  H   H880      1.0  0.47634  0.58448  0.56596  1.0000
  N   N46       1.0  0.45725  0.48586  0.93907  1.0000
  H   H881      1.0  0.34596  0.35036  0.80197  1.0000
  C   C755      1.0  0.35078  0.64348  0.54187  1.0000
  H   H882      1.0  0.46918  0.52251  0.56677  1.0000
  C   C756      1.0  0.48812  0.54074  0.52531  1.0000
  S   S214      1.0  0.36964  0.34432  0.59011  1.0000
  C   C757      1.0  0.49619  0.40407  0.93894  1.0000
  H   H883      1.0  0.45252  0.50454  0.53460  1.0000
  H   H884      1.0  0.43132  0.49295  0.92398  1.0000
  H   H885      1.0  0.41749  0.62529  0.82468  1.0000
  H   H886      1.0  0.37446  0.35769  0.88632  1.0000
  C   C758      1.0  0.41100  0.61516  0.83791  1.0000
  H   H887      1.0  0.43690  0.38459  0.81264  1.0000
  H   H888      1.0  0.39191  0.37567  0.49771  1.0000
  Fe  Fe108     1.0  0.39997  0.59940  0.50995  1.0000
  C   C759      1.0  0.45183  0.46950  0.95508  1.0000
  C   C760      1.0  0.32097  0.38164  0.54216  1.0000
  H   H889      1.0  0.41640  0.59328  0.90689  1.0000
  H   H890      1.0  0.31512  0.34684  0.55986  1.0000
  H   H891      1.0  0.37686  0.63792  0.77763  1.0000
  N   N47       1.0  0.46917  0.53684  0.52307  1.0000
  C   C761      1.0  0.35193  0.65256  0.95745  1.0000
  C   C762      1.0  0.42064  0.39181  0.56373  1.0000
  C   C763      1.0  0.43654  0.36420  0.56449  1.0000
  H   H892      1.0  0.45876  0.40488  0.54358  1.0000
  N   N48       1.0  0.44252  0.38608  0.52064  1.0000
  C   C764      1.0  0.40573  0.51583  0.98831  1.0000
  C   C765      1.0  0.47466  0.48237  0.92465  1.0000
  C   C766      1.0  0.42686  0.35905  0.59082  1.0000
  C   C767      1.0  0.37013  0.34902  0.86794  1.0000
  C   C768      1.0  0.27133  0.34545  0.62902  1.0000
  C   C769      1.0  0.33345  0.37175  0.52458  1.0000
  C   C770      1.0  0.43366  0.38080  0.55007  1.0000
  C   C771      1.0  0.46370  0.51760  0.94863  1.0000
  H   H893      1.0  0.28489  0.36812  0.58236  1.0000
  C   C772      1.0  0.31774  0.39914  0.53218  1.0000
  H   H894      1.0  0.39141  0.63753  0.57196  1.0000
  H   H895      1.0  0.43045  0.61605  0.87434  1.0000
  C   C773      1.0  0.50228  0.59884  0.50653  1.0000
  C   C774      1.0  0.29252  0.37343  0.56221  1.0000
  H   H896      1.0  0.32411  0.64870  0.64881  1.0000
  C   C775      1.0  0.34164  0.64369  0.60996  1.0000
  C   C776      1.0  0.46423  0.53232  0.96793  1.0000
  C   C777      1.0  0.45815  0.50112  0.96024  1.0000
  S   S215      1.0  0.46622  0.60042  0.50600  1.0000
  N   N49       1.0  0.36331  0.63788  0.56654  1.0000
  C   C778      1.0  0.38410  0.63305  0.79860  1.0000
  H   H897      1.0  0.30763  0.38012  0.61862  1.0000
  N   N50       1.0  0.38722  0.61386  0.79742  1.0000
  H   H898      1.0  0.34280  0.64836  0.93970  1.0000
  H   H899      1.0  0.47454  0.47042  0.90975  1.0000
  H   H900      1.0  0.37246  0.61383  0.58715  1.0000
  H   H901      1.0  0.44834  0.50065  0.89864  1.0000
  C   C779      1.0  0.46249  0.53386  0.55538  1.0000
  H   H902      1.0  0.28671  0.38648  0.55671  1.0000
  C   C780      1.0  0.50464  0.58252  0.56481  1.0000
  H   H903      1.0  0.37634  0.63665  0.81976  1.0000
  H   H904      1.0  0.46737  0.51931  0.92437  1.0000
  H   H905      1.0  0.46404  0.36723  0.85763  1.0000
  H   H906      1.0  0.48479  0.48015  0.94295  1.0000
  C   C781      1.0  0.45725  0.37428  0.51139  1.0000
  C   C782      1.0  0.49178  0.39949  0.85090  1.0000
  H   H907      1.0  0.40110  0.39512  0.59981  1.0000
  H   H908      1.0  0.36570  0.40756  0.56618  1.0000
  C   C783      1.0  0.44971  0.40398  0.52335  1.0000
  H   H909      1.0  0.32783  0.38789  0.60204  1.0000
  C   C784      1.0  0.45984  0.55243  0.51040  1.0000
  H   H910      1.0  0.34835  0.62975  0.98465  1.0000
  H   H911      1.0  0.30821  0.40736  0.54396  1.0000
  H   H912      1.0  0.46113  0.56393  0.52604  1.0000
  H   H913      1.0  0.36032  0.60836  0.80908  1.0000
  C   C785      1.0  0.32692  0.40646  0.50701  1.0000
  H   H914      1.0  0.30741  0.39889  0.59411  1.0000
  H   H915      1.0  0.45245  0.39347  0.78598  1.0000
  H   H916      1.0  0.41695  0.40420  0.55315  1.0000
  C   C786      1.0  0.35528  0.64196  0.98358  1.0000
  C   C787      1.0  0.41312  0.52062  0.50903  1.0000
  H   H917      1.0  0.37538  0.58838  0.84068  1.0000
  C   C788      1.0  0.31370  0.38584  0.59713  1.0000
  C   C789      1.0  0.36088  0.66815  0.95317  1.0000
  H   H918      1.0  0.42884  0.34616  0.60096  1.0000
  H   H919      1.0  0.29018  0.36482  0.54174  1.0000
  C   C790      1.0  0.37040  0.65648  0.61419  1.0000
  H   H920      1.0  0.38422  0.63607  0.53238  1.0000
  H   H921      1.0  0.41188  0.61699  0.77297  1.0000
  S   S216      1.0  0.38482  0.59530  0.96427  1.0000
  C   C791      1.0  0.39515  0.60778  0.82723  1.0000
  C   C792      1.0  0.44439  0.48957  0.91391  1.0000
  H   H922      1.0  0.46824  0.54489  0.95858  1.0000
  H   H923      1.0  0.25887  0.63955  0.95341  1.0000
  C   C793      1.0  0.45316  0.50032  0.99235  1.0000
  C   C794      1.0  0.48827  0.38752  0.79898  1.0000
  C   C795      1.0  0.39930  0.60994  0.77102  1.0000
  Fe  Fe109     1.0  0.35383  0.34208  0.63538  1.0000
  C   C796      1.0  0.38117  0.64232  0.55534  1.0000
  H   H924      1.0  0.37165  0.59113  0.78767  1.0000
  H   H925      1.0  0.43934  0.41416  0.52616  1.0000
  H   H926      1.0  0.46377  0.38580  0.88322  1.0000
  H   H927      1.0  0.33177  0.35636  0.58436  1.0000
  H   H928      1.0  0.48073  0.38241  0.77985  1.0000
  H   H929      1.0  0.44563  0.54982  0.50782  1.0000
  N   N51       1.0  0.31145  0.37438  0.56949  1.0000
  H   H930      1.0  0.38906  0.57974  0.88953  1.0000
  H   H931      1.0  0.45709  0.40786  0.50183  1.0000
  H   H932      1.0  0.33206  0.63570  0.59850  1.0000
  H   H933      1.0  0.36549  0.61198  0.54720  1.0000
  H   H934      1.0  0.39639  0.64063  0.79953  1.0000
  H   H935      1.0  0.39349  0.61388  0.74808  1.0000
  H   H936      1.0  0.40240  0.59569  0.76987  1.0000
  C   C797      1.0  0.41077  0.59704  0.88453  1.0000
  H   H937      1.0  0.35021  0.65800  0.53982  1.0000
  H   H938      1.0  0.31051  0.35168  0.59973  1.0000
  H   H939      1.0  0.48671  0.40388  0.87317  1.0000
  H   H940      1.0  0.45264  0.36097  0.50537  1.0000
  H   H941      1.0  0.34516  0.66669  0.67758  1.0000
  C   C798      1.0  0.31754  0.35654  0.57861  1.0000
  N   N52       1.0  0.46135  0.39201  0.83384  1.0000
  C   C799      1.0  0.45428  0.40974  0.84087  1.0000
  C   C800      1.0  0.45118  0.38503  0.80716  1.0000
  C   C801      1.0  0.45819  0.38046  0.86127  1.0000
  C   C802      1.0  0.48041  0.39298  0.82765  1.0000
  C   C803      1.0  0.36263  0.61860  0.56984  1.0000
  S   S217      1.0  0.28817  0.35234  0.65478  1.0000
  C   C804      1.0  0.41860  0.60990  0.86622  1.0000
  H   H942      1.0  0.36447  0.61053  0.76815  1.0000
  H   H943      1.0  0.40633  0.36596  0.62336  1.0000
  H   H944      1.0  0.45724  0.41911  0.82161  1.0000
  H   H945      1.0  0.43980  0.40964  0.84415  1.0000
  H   H946      1.0  0.45971  0.41519  0.86281  1.0000
  H   H947      1.0  0.49069  0.55102  0.54298  1.0000
  H   H948      1.0  0.33730  0.63882  0.54651  1.0000
  H   H949      1.0  0.40432  0.52952  0.98218  1.0000
  H   H950      1.0  0.44809  0.53163  0.55555  1.0000
  H   H951      1.0  0.35470  0.36891  0.84510  1.0000
  Fe  Fe110     1.0  0.31678  0.34385  0.66168  1.0000
  C   C805      1.0  0.45810  0.50619  0.51152  1.0000
  S   S218      1.0  0.32007  0.67143  0.77288  1.0000
  H   H952      1.0  0.32464  0.42000  0.50033  1.0000
  C   C806      1.0  0.27618  0.66798  0.88549  1.0000
  H   H953      1.0  0.49580  0.52889  0.53217  1.0000
  C   C807      1.0  0.34873  0.66136  0.65490  1.0000
  H   H954      1.0  0.40719  0.47693  0.49490  1.0000
  C   C808      1.0  0.35392  0.34449  0.82020  1.0000
  C   C809      1.0  0.34232  0.37914  0.49913  1.0000
  H   H955      1.0  0.38374  0.65858  0.60680  1.0000
  S   S219      1.0  0.42483  0.56550  0.99085  1.0000
  C   C810      1.0  0.36541  0.66404  0.64267  1.0000
  C   C811      1.0  0.35899  0.35533  0.84471  1.0000
  H   H956      1.0  0.46119  0.46550  0.97375  1.0000
  H   H957      1.0  0.50547  0.57618  0.58748  1.0000
  C   C812      1.0  0.46661  0.52179  0.50192  1.0000
  H   H958      1.0  0.44900  0.48065  0.49824  1.0000
  H   H959      1.0  0.36869  0.55201  0.49546  1.0000
  H   H960      1.0  0.49361  0.54580  0.50293  1.0000
  H   H961      1.0  0.37475  0.67152  0.65596  1.0000
  Fe  Fe111     1.0  0.33874  0.68790  0.28195  1.0000
  C   C813      1.0  0.36961  0.94295  0.41370  1.0000
  S   S220      1.0  0.33163  0.71726  0.28082  1.0000
  C   C814      1.0  0.40998  0.83908  0.16300  1.0000
  Fe  Fe112     1.0  0.34983  0.81858  0.31048  1.0000
  S   S221      1.0  0.33045  0.82784  0.27467  1.0000
  S   S222      1.0  0.36473  0.79251  0.30586  1.0000
  Fe  Fe113     1.0  0.34613  0.85278  0.34793  1.0000
  S   S223      1.0  0.32662  0.86418  0.31361  1.0000
  S   S224      1.0  0.34911  0.86766  0.39390  1.0000
  Fe  Fe114     1.0  0.31422  0.83768  0.31541  1.0000
  S   S225      1.0  0.28511  0.83089  0.31784  1.0000
  Fe  Fe115     1.0  0.34469  0.85354  0.27585  1.0000
  S   S226      1.0  0.34894  0.86730  0.22815  1.0000
  S   S227      1.0  0.33284  0.82662  0.35117  1.0000
  S   S228      1.0  0.36503  0.84392  0.31023  1.0000
  Fe  Fe116     1.0  0.44673  0.91525  0.04816  1.0000
  S   S229      1.0  0.43219  0.93076  0.08482  1.0000
  S   S230      1.0  0.47473  0.92150  0.03300  1.0000
  Fe  Fe117     1.0  0.41316  0.89758  0.02613  1.0000
  S   S231      1.0  0.39612  0.91207  0.06069  1.0000
  C   C815      1.0  0.31843  0.84195  0.43198  1.0000
  Fe  Fe118     1.0  0.41215  0.93568  0.04732  1.0000
  S   S232      1.0  0.39875  0.96234  0.04177  1.0000
  Fe  Fe119     1.0  0.41723  0.90601  0.09573  1.0000
  S   S233      1.0  0.41334  0.89665  0.14666  1.0000
  C   C816      1.0  0.27350  0.69899  0.33905  1.0000
  S   S234      1.0  0.43360  0.89009  0.06189  1.0000
  H   H962      1.0  0.32838  0.85084  0.44203  1.0000
  H   H963      1.0  0.35890  0.77489  0.37774  1.0000
  C   C817      1.0  0.38293  0.84587  0.13654  1.0000
  H   H964      1.0  0.35023  0.95646  0.34502  1.0000
  C   C818      1.0  0.42146  0.97620  0.99714  1.0000
  C   C819      1.0  0.36842  0.87382  0.41368  1.0000
  C   C820      1.0  0.36691  0.88129  0.44363  1.0000
  C   C821      1.0  0.38181  0.88711  0.45973  1.0000
  C   C822      1.0  0.39837  0.88564  0.44583  1.0000
  C   C823      1.0  0.39990  0.87804  0.41601  1.0000
  C   C824      1.0  0.38501  0.87213  0.39999  1.0000
  H   H965      1.0  0.35413  0.88267  0.45440  1.0000
  H   H966      1.0  0.47327  0.88281  0.02158  1.0000
  H   H967      1.0  0.41266  0.87680  0.40510  1.0000
  H   H968      1.0  0.38635  0.86645  0.37694  1.0000
  C   C825      1.0  0.36724  0.87469  0.20554  1.0000
  C   C826      1.0  0.38432  0.87475  0.21724  1.0000
  C   C827      1.0  0.39818  0.88144  0.19884  1.0000
  C   C828      1.0  0.39526  0.88806  0.16841  1.0000
  C   C829      1.0  0.37820  0.88788  0.15661  1.0000
  C   C830      1.0  0.36433  0.88125  0.17506  1.0000
  H   H969      1.0  0.38685  0.86989  0.24062  1.0000
  H   H970      1.0  0.41130  0.88151  0.20829  1.0000
  H   H971      1.0  0.37565  0.89289  0.13335  1.0000
  H   H972      1.0  0.35118  0.88135  0.16573  1.0000
  C   C831      1.0  0.27096  0.85274  0.36378  1.0000
  C   C832      1.0  0.26838  0.83870  0.34353  1.0000
  H   H973      1.0  0.35196  0.92468  0.33427  1.0000
  H   H974      1.0  0.28335  0.85942  0.36338  1.0000
  C   C833      1.0  0.37069  0.92490  0.40630  1.0000
  C   C834      1.0  0.34140  0.73807  0.28652  1.0000
  C   C835      1.0  0.33042  0.75296  0.28870  1.0000
  C   C836      1.0  0.33734  0.76971  0.29420  1.0000
  C   C837      1.0  0.35540  0.77179  0.29759  1.0000
  C   C838      1.0  0.36643  0.75697  0.29486  1.0000
  C   C839      1.0  0.35950  0.74022  0.28927  1.0000
  H   H975      1.0  0.31642  0.75151  0.28634  1.0000
  H   H976      1.0  0.32866  0.78095  0.29610  1.0000
  H   H977      1.0  0.38042  0.75842  0.29732  1.0000
  H   H978      1.0  0.36815  0.72903  0.28694  1.0000
  H   H979      1.0  0.37598  0.85280  0.11810  1.0000
  H   H980      1.0  0.39297  0.73120  0.39336  1.0000
  H   H981      1.0  0.29326  0.86508  0.41598  1.0000
  C   C840      1.0  0.49585  0.91400  0.04474  1.0000
  H   H982      1.0  0.35963  0.83581  0.15591  1.0000
  H   H983      1.0  0.48710  0.89285  0.07409  1.0000
  H   H984      1.0  0.39762  0.93078  0.44778  1.0000
  H   H985      1.0  0.34724  0.80848  0.22159  1.0000
  C   C841      1.0  0.37355  0.96844  0.44866  1.0000
  C   C842      1.0  0.27748  0.71508  0.32555  1.0000
  H   H986      1.0  0.38888  0.68436  0.38208  1.0000
  C   C843      1.0  0.40101  0.84753  0.13888  1.0000
  H   H987      1.0  0.42401  0.84069  0.16500  1.0000
  H   H988      1.0  0.25709  0.68463  0.36928  1.0000
  H   H989      1.0  0.35858  0.68071  0.38567  1.0000
  H   H990      1.0  0.28128  0.68749  0.33295  1.0000
  H   H991      1.0  0.35954  0.97247  0.44707  1.0000
  H   H992      1.0  0.37642  0.91560  0.42241  1.0000
  H   H993      1.0  0.36887  0.81753  0.25754  1.0000
  C   C844      1.0  0.50025  0.86998  0.47496  1.0000
  C   C845      1.0  0.35594  0.94766  0.36227  1.0000
  H   H994      1.0  0.35025  0.81071  0.18036  1.0000
  H   H995      1.0  0.38044  0.70826  0.32468  1.0000
  C   C846      1.0  0.25942  0.69753  0.35996  1.0000
  H   H996      1.0  0.37259  0.83845  0.23956  1.0000
  H   H997      1.0  0.30511  0.87212  0.44966  1.0000
  H   H998      1.0  0.31404  0.84979  0.49069  1.0000
  C   C847      1.0  0.49220  0.88683  0.47437  1.0000
  C   C848      1.0  0.37708  0.75379  0.38735  1.0000
  C   C849      1.0  0.26731  0.72979  0.33273  1.0000
  H   H999      1.0  0.43214  0.99803  0.43572  1.0000
  H   H1000     1.0  0.37215  0.96062  0.99605  1.0000
  H   H1001     1.0  0.40842  0.82277  0.20334  1.0000
  H   H1002     1.0  0.37755  0.79234  0.18420  1.0000
  C   C850      1.0  0.39483  0.94512  0.44769  1.0000
  C   C851      1.0  0.41779  0.98712  0.47471  1.0000
  H   H1003     1.0  0.37253  0.79032  0.22535  1.0000
  H   H1004     1.0  0.36883  0.92607  0.47074  1.0000
  H   H1005     1.0  0.30679  0.82762  0.48651  1.0000
  C   C852      1.0  0.25746  0.85814  0.38442  1.0000
  H   H1006     1.0  0.35542  0.69852  0.41262  1.0000
  S   S235      1.0  0.41743  0.89342  0.46448  1.0000
  H   H1007     1.0  0.45440  0.89266  0.00369  1.0000
  H   H1008     1.0  0.40004  0.95020  0.47014  1.0000
  H   H1009     1.0  0.30318  0.81987  0.39757  1.0000
  H   H1010     1.0  0.39037  0.82333  0.24596  1.0000
  C   C853      1.0  0.29088  0.82038  0.41006  1.0000
  H   H1011     1.0  0.37298  0.68668  0.33367  1.0000
  H   H1012     1.0  0.36506  0.90451  0.37323  1.0000
  H   H1013     1.0  0.35186  0.94245  0.46760  1.0000
  H   H1014     1.0  0.49256  0.85826  0.47341  1.0000
  C   C854      1.0  0.39826  0.99541  0.01525  1.0000
  S   S236      1.0  0.42726  0.92155  0.00986  1.0000
  N   N53       1.0  0.37937  0.94828  0.14543  1.0000
  C   C855      1.0  0.39391  0.93790  0.13142  1.0000
  C   C856      1.0  0.36779  0.95406  0.11937  1.0000
  C   C857      1.0  0.38672  0.96415  0.15995  1.0000
  C   C858      1.0  0.37036  0.93769  0.16963  1.0000
  C   C859      1.0  0.35209  0.93427  0.16885  1.0000
  C   C860      1.0  0.37997  0.93032  0.19496  1.0000
  H   H1015     1.0  0.40257  0.95104  0.42828  1.0000
  H   H1016     1.0  0.45216  0.90794  0.46879  1.0000
  H   H1017     1.0  0.47227  0.91461  0.45148  1.0000
  H   H1018     1.0  0.38922  0.92496  0.12342  1.0000
  H   H1019     1.0  0.39989  0.94475  0.11100  1.0000
  H   H1020     1.0  0.40476  0.93525  0.14812  1.0000
  H   H1021     1.0  0.36218  0.94266  0.10695  1.0000
  H   H1022     1.0  0.37509  0.96172  0.10132  1.0000
  H   H1023     1.0  0.35698  0.96274  0.12779  1.0000
  H   H1024     1.0  0.37624  0.97218  0.17130  1.0000
  H   H1025     1.0  0.39661  0.96088  0.17816  1.0000
  H   H1026     1.0  0.39344  0.97254  0.14227  1.0000
  C   C861      1.0  0.34413  0.92390  0.19183  1.0000
  H   H1027     1.0  0.39394  0.93206  0.19685  1.0000
  C   C862      1.0  0.30338  0.84153  0.48125  1.0000
  H   H1028     1.0  0.46977  0.86622  0.44128  1.0000
  C   C863      1.0  0.37186  0.92002  0.21781  1.0000
  C   C864      1.0  0.40698  0.97909  0.01669  1.0000
  H   H1029     1.0  0.47375  0.88654  0.42132  1.0000
  H   H1030     1.0  0.34793  0.82994  0.20490  1.0000
  C   C865      1.0  0.26131  0.80941  0.41312  1.0000
  H   H1031     1.0  0.40801  0.85578  0.12242  1.0000
  N   N54       1.0  0.37591  0.94926  0.44436  1.0000
  H   H1032     1.0  0.28840  0.71605  0.30923  1.0000
  C   C866      1.0  0.29522  0.86260  0.44143  1.0000
  H   H1033     1.0  0.39365  0.79731  0.21327  1.0000
  C   C867      1.0  0.36218  0.95425  0.39059  1.0000
  H   H1034     1.0  0.34367  0.93920  0.15052  1.0000
  C   C868      1.0  0.25762  0.82090  0.43752  1.0000
  N   N55       1.0  0.30101  0.84427  0.44709  1.0000
  C   C869      1.0  0.27051  0.83214  0.44841  1.0000
  H   H1035     1.0  0.38137  0.97605  0.43136  1.0000
  N   N56       1.0  0.47293  0.88862  0.47151  1.0000
  H   H1036     1.0  0.38729  0.76248  0.39509  1.0000
  H   H1037     1.0  0.45267  0.88217  0.43853  1.0000
  C   C870      1.0  0.35693  0.92979  0.35609  1.0000
  C   C871      1.0  0.36433  0.91844  0.37805  1.0000
  H   H1038     1.0  0.42843  0.96381  0.99807  1.0000
  H   H1039     1.0  0.31794  0.84517  0.40653  1.0000
  H   H1040     1.0  0.36099  0.96821  0.39377  1.0000
  C   C872      1.0  0.27788  0.80919  0.39937  1.0000
  N   N57       1.0  0.37031  0.70510  0.37141  1.0000
  C   C873      1.0  0.35627  0.69512  0.38738  1.0000
  C   C874      1.0  0.37027  0.70082  0.33764  1.0000
  C   C875      1.0  0.38729  0.69884  0.38447  1.0000
  C   C876      1.0  0.36717  0.72414  0.37504  1.0000
  C   C877      1.0  0.35097  0.73179  0.36566  1.0000
  C   C878      1.0  0.38018  0.73572  0.38612  1.0000
  C   C879      1.0  0.34796  0.74982  0.36738  1.0000
  C   C880      1.0  0.36105  0.76083  0.37785  1.0000
  H   H1041     1.0  0.34319  0.69754  0.37691  1.0000
  H   H1042     1.0  0.34788  0.90826  0.23336  1.0000
  C   C881      1.0  0.42314  0.00079  0.45475  1.0000
  C   C882      1.0  0.49832  0.89948  0.06438  1.0000
  C   C883      1.0  0.35399  0.91678  0.21621  1.0000
  H   H1043     1.0  0.35748  0.70390  0.32644  1.0000
  H   H1044     1.0  0.38830  0.70182  0.40986  1.0000
  H   H1045     1.0  0.42264  0.97395  0.47093  1.0000
  H   H1046     1.0  0.39861  0.70460  0.37176  1.0000
  H   H1047     1.0  0.34072  0.72398  0.35557  1.0000
  C   C884      1.0  0.28761  0.83216  0.43517  1.0000
  H   H1048     1.0  0.33568  0.75537  0.35912  1.0000
  N   N58       1.0  0.37309  0.81683  0.20767  1.0000
  C   C885      1.0  0.37642  0.82437  0.23895  1.0000
  C   C886      1.0  0.35381  0.81653  0.20325  1.0000
  C   C887      1.0  0.37951  0.79843  0.20752  1.0000
  C   C888      1.0  0.38243  0.82715  0.18350  1.0000
  C   C889      1.0  0.37367  0.83597  0.15856  1.0000
  C   C890      1.0  0.40090  0.82894  0.18490  1.0000
  H   H1049     1.0  0.45544  0.86949  0.00988  1.0000
  H   H1050     1.0  0.33029  0.92104  0.19047  1.0000
  H   H1051     1.0  0.27036  0.74224  0.32184  1.0000
  C   C891      1.0  0.36625  0.94042  0.47006  1.0000
  H   H1052     1.0  0.32362  0.82838  0.43492  1.0000
  S   S237      1.0  0.33103  0.67424  0.32665  1.0000
  C   C892      1.0  0.50347  0.90146  0.47663  1.0000
  H   H1053     1.0  0.28047  0.80085  0.37935  1.0000
  H   H1054     1.0  0.26679  0.84117  0.46672  1.0000
  H   H1055     1.0  0.37958  0.91399  0.23627  1.0000
  C   C893      1.0  0.46664  0.90708  0.47140  1.0000
  C   C894      1.0  0.46708  0.88053  0.44189  1.0000
  C   C895      1.0  0.46328  0.88104  0.00298  1.0000
  H   H1056     1.0  0.37798  0.97270  0.47218  1.0000
  H   H1057     1.0  0.38046  0.89277  0.48279  1.0000
  H   H1058     1.0  0.49866  0.91479  0.47725  1.0000
  H   H1059     1.0  0.25962  0.86898  0.40005  1.0000
  H   H1060     1.0  0.28266  0.86581  0.45343  1.0000
  H   H1061     1.0  0.38707  0.99786  0.03028  1.0000
  S   S238      1.0  0.40265  0.87552  0.99650  1.0000
  H   H1062     1.0  0.37840  0.93134  0.00272  1.0000
  H   H1063     1.0  0.36641  0.90232  0.01262  1.0000
  Fe  Fe120     1.0  0.33633  0.69177  0.79685  1.0000
  C   C896      1.0  0.41535  0.88888  0.72028  1.0000
  S   S239      1.0  0.32945  0.71966  0.78081  1.0000
  H   H1064     1.0  0.30183  0.80585  0.90489  1.0000
  Fe  Fe121     1.0  0.34834  0.82029  0.81942  1.0000
  S   S240      1.0  0.33316  0.82710  0.77626  1.0000
  S   S241      1.0  0.35154  0.79281  0.84010  1.0000
  Fe  Fe122     1.0  0.35558  0.85909  0.83388  1.0000
  S   S242      1.0  0.33976  0.86833  0.79216  1.0000
  S   S243      1.0  0.37018  0.88075  0.85955  1.0000
  Fe  Fe123     1.0  0.32040  0.84766  0.80680  1.0000
  S   S244      1.0  0.29057  0.84855  0.80460  1.0000
  Fe  Fe124     1.0  0.35399  0.84717  0.76546  1.0000
  S   S245      1.0  0.36854  0.84956  0.71801  1.0000
  S   S246      1.0  0.33498  0.84028  0.85042  1.0000
  S   S247      1.0  0.37036  0.83846  0.80677  1.0000
  Fe  Fe125     1.0  0.44569  0.92697  0.54866  1.0000
  S   S248      1.0  0.42528  0.94073  0.57799  1.0000
  S   S249      1.0  0.47390  0.93657  0.55058  1.0000
  C   C897      1.0  0.26512  0.78238  0.84950  1.0000
  S   S250      1.0  0.39526  0.92231  0.53509  1.0000
  H   H1065     1.0  0.43791  0.98679  0.96058  1.0000
  Fe  Fe126     1.0  0.41145  0.94674  0.53299  1.0000
  N   N59       1.0  0.45738  0.99049  0.55288  1.0000
  Fe  Fe127     1.0  0.41049  0.91528  0.57882  1.0000
  S   S251      1.0  0.39540  0.91020  0.62481  1.0000
  H   H1066     1.0  0.26061  0.88508  0.74587  1.0000
  S   S252      1.0  0.43225  0.90089  0.55272  1.0000
  H   H1067     1.0  0.42255  0.85168  0.92994  1.0000
  H   H1068     1.0  0.44978  0.96513  0.53647  1.0000
  H   H1069     1.0  0.40378  0.93822  0.72763  1.0000
  C   C898      1.0  0.48268  0.86336  0.97128  1.0000
  C   C899      1.0  0.41944  0.90055  0.69609  1.0000
  C   C900      1.0  0.37918  0.87904  0.89761  1.0000
  C   C901      1.0  0.38813  0.89339  0.91005  1.0000
  C   C902      1.0  0.39527  0.89263  0.94042  1.0000
  C   C903      1.0  0.39361  0.87742  0.95850  1.0000
  C   C904      1.0  0.38489  0.86302  0.94584  1.0000
  C   C905      1.0  0.37766  0.86381  0.91559  1.0000
  H   H1070     1.0  0.38937  0.90522  0.89628  1.0000
  H   H1071     1.0  0.40207  0.90374  0.94983  1.0000
  H   H1072     1.0  0.38364  0.85117  0.95960  1.0000
  H   H1073     1.0  0.37087  0.85266  0.90626  1.0000
  C   C906      1.0  0.37513  0.86657  0.69147  1.0000
  C   C907      1.0  0.36942  0.88398  0.69443  1.0000
  C   C908      1.0  0.37559  0.89698  0.67358  1.0000
  C   C909      1.0  0.38727  0.89283  0.64899  1.0000
  C   C910      1.0  0.39270  0.87538  0.64559  1.0000
  C   C911      1.0  0.38671  0.86240  0.66672  1.0000
  H   H1074     1.0  0.36015  0.88747  0.71260  1.0000
  H   H1075     1.0  0.37125  0.91039  0.67652  1.0000
  H   H1076     1.0  0.40169  0.87190  0.62695  1.0000
  H   H1077     1.0  0.39114  0.84900  0.66390  1.0000
  C   C912      1.0  0.28069  0.85451  0.86648  1.0000
  C   C913      1.0  0.27586  0.84841  0.83696  1.0000
  C   C914      1.0  0.27965  0.72347  0.78931  1.0000
  H   H1078     1.0  0.29394  0.85882  0.87033  1.0000
  H   H1079     1.0  0.27383  0.89138  0.84236  1.0000
  C   C915      1.0  0.33597  0.73981  0.79756  1.0000
  C   C916      1.0  0.34503  0.74056  0.82589  1.0000
  C   C917      1.0  0.34975  0.75688  0.83843  1.0000
  C   C918      1.0  0.34563  0.77262  0.82274  1.0000
  C   C919      1.0  0.33641  0.77188  0.79455  1.0000
  C   C920      1.0  0.33155  0.75557  0.78215  1.0000
  H   H1080     1.0  0.34849  0.72857  0.83807  1.0000
  H   H1081     1.0  0.35682  0.75729  0.86031  1.0000
  H   H1082     1.0  0.33316  0.78385  0.78215  1.0000
  H   H1083     1.0  0.32458  0.75516  0.76018  1.0000
  H   H1084     1.0  0.48441  0.89982  0.56119  1.0000
  S   S253      1.0  0.33067  0.68147  0.84529  1.0000
  N   N60       1.0  0.47139  0.87928  0.97157  1.0000
  C   C921      1.0  0.49447  0.92543  0.55146  1.0000
  C   C922      1.0  0.27555  0.79464  0.86568  1.0000
  C   C923      1.0  0.45510  0.89007  0.92299  1.0000
  H   H1085     1.0  0.27089  0.77364  0.83247  1.0000
  C   C924      1.0  0.25853  0.84299  0.83237  1.0000
  C   C925      1.0  0.26398  0.88967  0.82447  1.0000
  C   C926      1.0  0.35389  0.90053  0.96792  1.0000
  H   H1086     1.0  0.37848  0.94891  0.89873  1.0000
  H   H1087     1.0  0.35870  0.67594  0.93220  1.0000
  H   H1088     1.0  0.30236  0.69904  0.80904  1.0000
  H   H1089     1.0  0.31816  0.80822  0.87519  1.0000
  H   H1090     1.0  0.27329  0.81603  0.89991  1.0000
  H   H1091     1.0  0.29150  0.81228  0.82009  1.0000
  C   C927      1.0  0.40333  0.91298  0.75047  1.0000
  H   H1092     1.0  0.47539  0.90717  0.96836  1.0000
  H   H1093     1.0  0.46396  0.97025  0.58654  1.0000
  C   C928      1.0  0.45743  0.87777  0.94778  1.0000
  H   H1094     1.0  0.26693  0.67981  0.92840  1.0000
  C   C929      1.0  0.44156  0.88833  0.90128  1.0000
  C   C930      1.0  0.36375  0.90892  0.99057  1.0000
  C   C931      1.0  0.26812  0.85582  0.89069  1.0000
  H   H1095     1.0  0.41928  0.87325  0.88722  1.0000
  H   H1096     1.0  0.31241  0.80132  0.82197  1.0000
  C   C932      1.0  0.43002  0.87440  0.90357  1.0000
  C   C933      1.0  0.25654  0.88599  0.77016  1.0000
  H   H1097     1.0  0.29353  0.78957  0.81036  1.0000
  S   S254      1.0  0.36112  0.67573  0.79004  1.0000
  H   H1098     1.0  0.47152  0.99164  0.59646  1.0000
  H   H1099     1.0  0.29861  0.76768  0.85049  1.0000
  H   H1100     1.0  0.48220  0.97875  0.56609  1.0000
  C   C934      1.0  0.43192  0.86218  0.92759  1.0000
  C   C935      1.0  0.27000  0.69382  0.79147  1.0000
  C   C936      1.0  0.39562  0.94951  0.95290  1.0000
  H   H1101     1.0  0.35525  0.93040  0.90972  1.0000
  H   H1102     1.0  0.28688  0.73418  0.80078  1.0000
  H   H1103     1.0  0.46706  0.86534  0.49862  1.0000
  H   H1104     1.0  0.39935  0.94662  0.97752  1.0000
  C   C937      1.0  0.26903  0.88878  0.79317  1.0000
  C   C938      1.0  0.36818  0.93396  0.95520  1.0000
  C   C939      1.0  0.29237  0.70331  0.82646  1.0000
  H   H1105     1.0  0.43982  0.89798  0.88287  1.0000
  N   N61       1.0  0.40228  0.88283  0.77426  1.0000
  C   C940      1.0  0.40752  0.86430  0.76868  1.0000
  C   C941      1.0  0.41061  0.88839  0.80385  1.0000
  C   C942      1.0  0.38305  0.88337  0.77866  1.0000
  H   H1106     1.0  0.40077  0.85888  0.74783  1.0000
  H   H1107     1.0  0.42190  0.86285  0.76534  1.0000
  H   H1108     1.0  0.40383  0.85568  0.78867  1.0000
  H   H1109     1.0  0.40745  0.87928  0.82352  1.0000
  H   H1110     1.0  0.40588  0.90146  0.81161  1.0000
  H   H1111     1.0  0.42510  0.88886  0.80123  1.0000
  H   H1112     1.0  0.37621  0.87936  0.75707  1.0000
  H   H1113     1.0  0.37887  0.87429  0.79746  1.0000
  H   H1114     1.0  0.37797  0.89650  0.78535  1.0000
  H   H1115     1.0  0.41817  0.87525  0.71583  1.0000
  N   N62       1.0  0.37637  0.95111  0.94893  1.0000
  N   N63       1.0  0.29469  0.79529  0.85998  1.0000
  C   C943      1.0  0.42685  0.98929  0.97589  1.0000
  H   H1116     1.0  0.34354  0.90183  0.92134  1.0000
  C   C944      1.0  0.44010  0.99329  0.56833  1.0000
  H   H1117     1.0  0.28840  0.71931  0.76963  1.0000
  C   C945      1.0  0.46425  0.87962  0.49813  1.0000
  C   C946      1.0  0.40718  0.89479  0.74837  1.0000
  H   H1118     1.0  0.29960  0.77363  0.89121  1.0000
  H   H1119     1.0  0.29024  0.69218  0.84284  1.0000
  H   H1120     1.0  0.29912  0.82196  0.87388  1.0000
  H   H1121     1.0  0.31738  0.77835  0.86496  1.0000
  H   H1122     1.0  0.47538  0.85140  0.97790  1.0000
  C   C947      1.0  0.30282  0.77797  0.86697  1.0000
  C   C948      1.0  0.30373  0.80843  0.87945  1.0000
  H   H1123     1.0  0.40118  0.93885  0.93809  1.0000
  H   H1124     1.0  0.39680  0.91837  0.77080  1.0000
  C   C949      1.0  0.29814  0.79975  0.82670  1.0000
  H   H1125     1.0  0.44972  0.88106  0.49700  1.0000
  H   H1126     1.0  0.41775  0.92702  0.67925  1.0000
  C   C950      1.0  0.36945  0.96428  0.97134  1.0000
  H   H1127     1.0  0.27184  0.86104  0.91317  1.0000
  C   C951      1.0  0.40729  0.92448  0.72595  1.0000
  H   H1128     1.0  0.42503  0.89572  0.67434  1.0000
  C   C952      1.0  0.49601  0.90742  0.55689  1.0000
  S   S255      1.0  0.39964  0.97398  0.52607  1.0000
  N   N64       1.0  0.27588  0.70868  0.81096  1.0000
  C   C953      1.0  0.26669  0.80593  0.88709  1.0000
  C   C954      1.0  0.41529  0.91825  0.69878  1.0000
  H   H1129     1.0  0.29829  0.71413  0.83995  1.0000
  H   H1130     1.0  0.44646  0.98238  0.50888  1.0000
  H   H1131     1.0  0.46341  0.90130  0.92010  1.0000
  H   H1132     1.0  0.27967  0.69050  0.77272  1.0000
  H   H1133     1.0  0.40239  0.96188  0.94661  1.0000
  C   C955      1.0  0.35786  0.92512  0.93273  1.0000
  C   C956      1.0  0.40642  0.99061  0.49971  1.0000
  H   H1134     1.0  0.28275  0.88976  0.78685  1.0000
  H   H1135     1.0  0.48987  0.89403  0.94382  1.0000
  H   H1136     1.0  0.25725  0.69679  0.78000  1.0000
  C   C957      1.0  0.48291  0.89461  0.96672  1.0000
  H   H1137     1.0  0.37954  0.97084  0.91298  1.0000
  C   C958      1.0  0.35086  0.90865  0.93917  1.0000
  H   H1138     1.0  0.48847  0.86118  0.94763  1.0000
  H   H1139     1.0  0.37555  0.97732  0.96766  1.0000
  H   H1140     1.0  0.46854  0.88510  0.52089  1.0000
  H   H1141     1.0  0.44598  0.85417  0.96800  1.0000
  C   C959      1.0  0.45535  0.97757  0.52748  1.0000
  C   C960      1.0  0.37313  0.95797  0.91683  1.0000
  H   H1142     1.0  0.25577  0.74635  0.88973  1.0000
  C   C961      1.0  0.26542  0.72950  0.85283  1.0000
  H   H1143     1.0  0.35890  0.96016  0.91256  1.0000
  C   C962      1.0  0.37072  0.92543  0.98448  1.0000
  H   H1144     1.0  0.43539  0.98121  0.58024  1.0000
  C   C963      1.0  0.44538  0.86378  0.94939  1.0000
  H   H1145     1.0  0.27664  0.73766  0.84887  1.0000
  C   C964      1.0  0.46934  0.98260  0.57656  1.0000
  H   H1146     1.0  0.38019  0.68539  0.97151  1.0000
  Fe  Fe128     1.0  0.41762  0.90950  0.50916  1.0000
  S   S256      1.0  0.43245  0.93457  0.50366  1.0000
  H   H1147     1.0  0.29142  0.84496  0.49492  1.0000
  H   H1148     1.0  0.26872  0.68158  0.80544  1.0000
  H   H1149     1.0  0.26738  0.72897  0.77909  1.0000
  H   H1150     1.0  0.46817  0.97433  0.51627  1.0000
  H   H1151     1.0  0.34896  0.88750  0.97238  1.0000
  H   H1152     1.0  0.35501  0.96590  0.96911  1.0000
  H   H1153     1.0  0.44071  0.00386  0.58611  1.0000
  C   C965      1.0  0.26299  0.71397  0.83528  1.0000
  H   H1154     1.0  0.49318  0.89539  0.98514  1.0000
  C   C966      1.0  0.26324  0.67269  0.90767  1.0000
  H   H1155     1.0  0.49367  0.86438  0.98827  1.0000
  H   H1156     1.0  0.42959  0.99687  0.55149  1.0000
  C   C967      1.0  0.37307  0.67337  0.97525  1.0000
  H   H1157     1.0  0.46984  0.91378  0.49374  1.0000
  H   H1158     1.0  0.37009  0.94549  0.49348  1.0000
  Fe  Fe129     1.0  0.66410  0.32195  0.17910  1.0000
  C   C968      1.0  0.60742  0.33122  0.08158  1.0000
  S   S257      1.0  0.65204  0.29646  0.16215  1.0000
  C   C969      1.0  0.67196  0.14611  0.34382  1.0000
  Fe  Fe130     1.0  0.65508  0.16343  0.14965  1.0000
  S   S258      1.0  0.67464  0.14443  0.17060  1.0000
  S   S259      1.0  0.63419  0.15732  0.11302  1.0000
  Fe  Fe131     1.0  0.66460  0.19276  0.19504  1.0000
  S   S260      1.0  0.68415  0.17521  0.21916  1.0000
  S   S261      1.0  0.66343  0.21958  0.21829  1.0000
  Fe  Fe132     1.0  0.69305  0.16748  0.17082  1.0000
  S   S262      1.0  0.72307  0.16870  0.16812  1.0000
  Fe  Fe133     1.0  0.66419  0.15391  0.21731  1.0000
  S   S263      1.0  0.66031  0.13413  0.25773  1.0000
  S   S264      1.0  0.67414  0.18593  0.14668  1.0000
  S   S265      1.0  0.64396  0.17196  0.19648  1.0000
  Fe  Fe134     1.0  0.56873  0.09342  0.45491  1.0000
  S   S266      1.0  0.57385  0.07958  0.40953  1.0000
  C   C970      1.0  0.63631  0.01785  0.06630  1.0000
  Fe  Fe135     1.0  0.60801  0.09522  0.47032  1.0000
  S   S267      1.0  0.61552  0.08073  0.42608  1.0000
  H   H1159     1.0  0.50768  0.08366  0.00199  1.0000
  Fe  Fe136     1.0  0.59608  0.09858  0.40210  1.0000
  S   S268      1.0  0.59967  0.11479  0.35673  1.0000
  Fe  Fe137     1.0  0.59287  0.06307  0.43761  1.0000
  S   S269      1.0  0.59224  0.03333  0.43165  1.0000
  S   S270      1.0  0.58937  0.11377  0.44601  1.0000
  H   H1160     1.0  0.70877  0.22214  0.13877  1.0000
  C   C971      1.0  0.52163  0.09812  0.45531  1.0000
  C   C972      1.0  0.52136  0.10219  0.42337  1.0000
  S   S271      1.0  0.63029  0.09727  0.00962  1.0000
  H   H1161     1.0  0.53351  0.10459  0.41105  1.0000
  H   H1162     1.0  0.63630  0.02690  0.08563  1.0000
  C   C973      1.0  0.59120  0.01792  0.46295  1.0000
  H   H1163     1.0  0.55708  0.03753  0.40563  1.0000
  H   H1164     1.0  0.74355  0.17051  0.05784  1.0000
  C   C974      1.0  0.54072  0.02315  0.45319  1.0000
  H   H1165     1.0  0.66283  0.10918  0.41285  1.0000
  C   C975      1.0  0.63092  0.11389  0.03858  1.0000
  C   C976      1.0  0.64571  0.11496  0.05798  1.0000
  C   C977      1.0  0.64695  0.12810  0.08094  1.0000
  C   C978      1.0  0.63341  0.14042  0.08461  1.0000
  C   C979      1.0  0.61859  0.13929  0.06527  1.0000
  C   C980      1.0  0.61732  0.12612  0.04239  1.0000
  H   H1166     1.0  0.65636  0.10563  0.05518  1.0000
  H   H1167     1.0  0.65844  0.12880  0.09558  1.0000
  H   H1168     1.0  0.60803  0.14874  0.06793  1.0000
  H   H1169     1.0  0.60584  0.12547  0.02772  1.0000
  C   C981      1.0  0.64337  0.12939  0.28553  1.0000
  C   C982      1.0  0.64612  0.11582  0.30751  1.0000
  C   C983      1.0  0.63313  0.11137  0.32978  1.0000
  C   C984      1.0  0.61707  0.12040  0.33036  1.0000
  C   C985      1.0  0.61433  0.13400  0.30842  1.0000
  C   C986      1.0  0.62737  0.13853  0.28627  1.0000
  H   H1170     1.0  0.65840  0.10863  0.30720  1.0000
  H   H1171     1.0  0.63543  0.10067  0.34594  1.0000
  H   H1172     1.0  0.60196  0.14104  0.30843  1.0000
  H   H1173     1.0  0.62501  0.14903  0.26972  1.0000
  H   H1174     1.0  0.73154  0.20410  0.19035  1.0000
  C   C987      1.0  0.73422  0.16966  0.10566  1.0000
  C   C988      1.0  0.73889  0.16883  0.13728  1.0000
  H   H1175     1.0  0.65838  0.15407  0.44729  1.0000
  H   H1176     1.0  0.72054  0.17003  0.09927  1.0000
  H   H1177     1.0  0.53461  0.03243  0.01409  1.0000
  C   C989      1.0  0.65595  0.27519  0.17774  1.0000
  C   C990      1.0  0.65241  0.26049  0.15917  1.0000
  C   C991      1.0  0.65476  0.24336  0.17101  1.0000
  C   C992      1.0  0.66030  0.24077  0.20188  1.0000
  C   C993      1.0  0.66379  0.25547  0.22046  1.0000
  C   C994      1.0  0.66184  0.27258  0.20837  1.0000
  H   H1178     1.0  0.64778  0.26237  0.13548  1.0000
  H   H1179     1.0  0.65200  0.23220  0.15646  1.0000
  H   H1180     1.0  0.66805  0.25362  0.24438  1.0000
  H   H1181     1.0  0.66452  0.28374  0.22299  1.0000
  C   C995      1.0  0.59102  0.01718  0.99600  1.0000
  H   H1182     1.0  0.67755  0.12797  0.37994  1.0000
  N   N65       1.0  0.64815  0.13320  0.41948  1.0000
  C   C996      1.0  0.64620  0.14637  0.44470  1.0000
  C   C997      1.0  0.66135  0.12002  0.43003  1.0000
  H   H1183     1.0  0.66323  0.16472  0.30916  1.0000
  H   H1184     1.0  0.59245  0.30696  0.08617  1.0000
  H   H1185     1.0  0.69746  0.23471  0.21992  1.0000
  H   H1186     1.0  0.69119  0.22505  0.16659  1.0000
  H   H1187     1.0  0.75059  0.27867  0.16277  1.0000
  H   H1188     1.0  0.64331  0.14006  0.46777  1.0000
  C   C998      1.0  0.61964  0.05093  0.04363  1.0000
  H   H1189     1.0  0.55425  0.04126  0.99754  1.0000
  H   H1190     1.0  0.62752  0.11726  0.43803  1.0000
  H   H1191     1.0  0.67432  0.12605  0.43407  1.0000
  H   H1192     1.0  0.65743  0.11373  0.45261  1.0000
  N   N66       1.0  0.61581  0.33105  0.11276  1.0000
  H   H1193     1.0  0.74345  0.22279  0.20192  1.0000
  N   N67       1.0  0.63510  0.04289  0.02786  1.0000
  H   H1194     1.0  0.60742  0.04415  0.03702  1.0000
  C   C999      1.0  0.54041  0.05444  0.45233  1.0000
  H   H1195     1.0  0.50875  0.01421  0.45411  1.0000
  N   N68       1.0  0.61307  0.12523  0.18676  1.0000
  C   C1000     1.0  0.60824  0.14401  0.18979  1.0000
  C   C1001     1.0  0.63235  0.12413  0.18235  1.0000
  C   C1002     1.0  0.60487  0.11829  0.15804  1.0000
  C   C1003     1.0  0.60676  0.11548  0.21460  1.0000
  C   C1004     1.0  0.61812  0.10572  0.23461  1.0000
  C   C1005     1.0  0.58871  0.11589  0.22280  1.0000
  C   C1006     1.0  0.61175  0.09728  0.26138  1.0000
  C   C1007     1.0  0.58255  0.10761  0.24990  1.0000
  C   C1008     1.0  0.59408  0.09844  0.26929  1.0000
  H   H1196     1.0  0.61339  0.14947  0.21201  1.0000
  H   H1197     1.0  0.61358  0.15195  0.17004  1.0000
  H   H1198     1.0  0.59387  0.14633  0.18963  1.0000
  H   H1199     1.0  0.63937  0.12973  0.20269  1.0000
  H   H1200     1.0  0.63671  0.13162  0.16135  1.0000
  H   H1201     1.0  0.63696  0.11043  0.17881  1.0000
  H   H1202     1.0  0.59040  0.11994  0.15824  1.0000
  H   H1203     1.0  0.60969  0.12519  0.13662  1.0000
  H   H1204     1.0  0.60789  0.10410  0.15524  1.0000
  H   H1205     1.0  0.63210  0.10487  0.23083  1.0000
  H   H1206     1.0  0.57927  0.12294  0.20864  1.0000
  H   H1207     1.0  0.62072  0.09037  0.27683  1.0000
  H   H1208     1.0  0.56882  0.10855  0.25630  1.0000
  H   H1209     1.0  0.58941  0.09252  0.29086  1.0000
  C   C1009     1.0  0.74733  0.16993  0.08221  1.0000
  H   H1210     1.0  0.68351  0.14242  0.33041  1.0000
  H   H1211     1.0  0.63634  0.02442  0.45438  1.0000
  H   H1212     1.0  0.73986  0.21831  0.16068  1.0000
  H   H1213     1.0  0.63211  0.11407  0.39721  1.0000
  C   C1010     1.0  0.66824  0.13779  0.37231  1.0000
  C   C1011     1.0  0.73624  0.25500  0.17247  1.0000
  C   C1012     1.0  0.63612  0.01167  0.46566  1.0000
  C   C1013     1.0  0.66052  0.15873  0.33175  1.0000
  C   C1014     1.0  0.63131  0.12405  0.41600  1.0000
  C   C1015     1.0  0.70638  0.27629  0.16676  1.0000
  C   C1016     1.0  0.58809  0.31874  0.04187  1.0000
  H   H1214     1.0  0.53527  0.02280  0.47739  1.0000
  C   C1017     1.0  0.65276  0.14194  0.38955  1.0000
  N   N69       1.0  0.53425  0.03874  0.43558  1.0000
  S   S272      1.0  0.72754  0.33546  0.17511  1.0000
  C   C1018     1.0  0.64140  0.15486  0.37649  1.0000
  H   H1215     1.0  0.53950  0.05043  0.39030  1.0000
  H   H1216     1.0  0.63618  0.17257  0.33807  1.0000
  S   S273      1.0  0.58693  0.07613  0.48326  1.0000
  N   N70       1.0  0.71730  0.22859  0.18530  1.0000
  C   C1019     1.0  0.73384  0.21814  0.18444  1.0000
  H   H1217     1.0  0.57921  0.30857  0.03467  1.0000
  H   H1218     1.0  0.61464  0.30333  0.12255  1.0000
  C   C1020     1.0  0.71954  0.24724  0.17665  1.0000
  H   H1219     1.0  0.70422  0.20575  0.16786  1.0000
  H   H1220     1.0  0.65250  0.05006  0.06541  1.0000
  H   H1221     1.0  0.53327  0.05640  0.47485  1.0000
  H   H1222     1.0  0.59626  0.31618  0.13764  1.0000
  C   C1021     1.0  0.61059  0.31609  0.13298  1.0000
  H   H1223     1.0  0.53763  0.01077  0.44094  1.0000
  C   C1022     1.0  0.64527  0.16309  0.34803  1.0000
  C   C1023     1.0  0.59579  0.31800  0.07155  1.0000
  H   H1224     1.0  0.61800  0.06501  0.03729  1.0000
  H   H1225     1.0  0.64181  0.32919  0.13173  1.0000
  H   H1226     1.0  0.63522  0.15571  0.44023  1.0000
  C   C1024     1.0  0.63508  0.33001  0.10880  1.0000
  H   H1227     1.0  0.55524  0.02322  0.45564  1.0000
  H   H1228     1.0  0.61718  0.31648  0.15624  1.0000
  C   C1025     1.0  0.71012  0.22749  0.21754  1.0000
  H   H1229     1.0  0.66523  0.33781  0.35957  1.0000
  H   H1230     1.0  0.62026  0.13302  0.40996  1.0000
  H   H1231     1.0  0.64656  0.33323  0.31352  1.0000
  C   C1026     1.0  0.64082  0.33813  0.33510  1.0000
  H   H1232     1.0  0.58785  0.03062  0.00147  1.0000
  H   H1233     1.0  0.53425  0.05386  0.99693  1.0000
  H   H1234     1.0  0.69478  0.28460  0.16485  1.0000
  C   C1027     1.0  0.63587  0.02388  0.03480  1.0000
  C   C1028     1.0  0.65115  0.05134  0.03961  1.0000
  H   H1235     1.0  0.53862  0.06658  0.43829  1.0000
  H   H1236     1.0  0.70746  0.21370  0.22459  1.0000
  H   H1237     1.0  0.55467  0.05366  0.45767  1.0000
  H   H1238     1.0  0.63911  0.31820  0.09528  1.0000
  H   H1239     1.0  0.65112  0.06565  0.03425  1.0000
  C   C1029     1.0  0.51494  0.03951  0.43225  1.0000
  H   H1240     1.0  0.51430  0.06503  0.40887  1.0000
  H   H1241     1.0  0.58635  0.00779  0.04309  1.0000
  S   S274      1.0  0.68401  0.32709  0.21633  1.0000
  C   C1030     1.0  0.54252  0.03839  0.40409  1.0000
  C   C1031     1.0  0.70486  0.22013  0.16363  1.0000
  H   H1242     1.0  0.66309  0.04544  0.02873  1.0000
  H   H1243     1.0  0.69163  0.25360  0.17657  1.0000
  S   S275      1.0  0.54153  0.09681  0.47660  1.0000
  H   H1244     1.0  0.71923  0.23320  0.23485  1.0000
  H   H1245     1.0  0.62921  0.15843  0.38785  1.0000
  C   C1032     1.0  0.70470  0.25846  0.17345  1.0000
  H   H1246     1.0  0.53800  0.02700  0.39031  1.0000
  H   H1247     1.0  0.62062  0.05048  0.06954  1.0000
  S   S276      1.0  0.67895  0.33612  0.14118  1.0000
  C   C1033     1.0  0.59179  0.33248  0.02138  1.0000
  C   C1034     1.0  0.72290  0.28350  0.16296  1.0000
  C   C1035     1.0  0.63610  0.01090  0.01102  1.0000
  H   H1248     1.0  0.51139  0.01324  0.99622  1.0000
  H   H1249     1.0  0.74830  0.24761  0.17458  1.0000
  H   H1250     1.0  0.72415  0.29741  0.15812  1.0000
  H   H1251     1.0  0.61983  0.33580  0.44442  1.0000
  C   C1036     1.0  0.73779  0.27288  0.16566  1.0000
  C   C1037     1.0  0.50674  0.05413  0.41751  1.0000
  H   H1252     1.0  0.58582  0.33304  0.99842  1.0000
  C   C1038     1.0  0.53982  0.04039  0.99438  1.0000
  C   C1039     1.0  0.63372  0.04697  0.99391  1.0000
  C   C1040     1.0  0.50568  0.09513  0.47096  1.0000
  Fe  Fe138     1.0  0.67212  0.31680  0.65421  1.0000
  H   H1253     1.0  0.62598  0.08997  0.64287  1.0000
  S   S277      1.0  0.66722  0.28919  0.63621  1.0000
  H   H1254     1.0  0.62908  0.23187  0.56409  1.0000
  Fe  Fe139     1.0  0.65799  0.15895  0.65180  1.0000
  S   S278      1.0  0.67685  0.13983  0.67450  1.0000
  S   S279      1.0  0.63571  0.15397  0.61742  1.0000
  Fe  Fe140     1.0  0.66849  0.18903  0.69448  1.0000
  S   S280      1.0  0.68764  0.17184  0.72050  1.0000
  S   S281      1.0  0.66257  0.21692  0.71086  1.0000
  Fe  Fe141     1.0  0.69604  0.16218  0.67275  1.0000
  S   S282      1.0  0.72600  0.16074  0.66754  1.0000
  Fe  Fe142     1.0  0.66710  0.15090  0.72060  1.0000
  S   S283      1.0  0.66273  0.13265  0.76332  1.0000
  S   S284      1.0  0.67774  0.18061  0.64682  1.0000
  S   S285      1.0  0.64737  0.16878  0.69800  1.0000
  Fe  Fe143     1.0  0.56972  0.08764  0.95621  1.0000
  S   S286      1.0  0.57658  0.07424  0.91106  1.0000
  C   C1041     1.0  0.54248  0.01480  0.96169  1.0000
  C   C1042     1.0  0.74960  0.15239  0.58225  1.0000
  S   S287      1.0  0.61769  0.07721  0.93107  1.0000
  H   H1255     1.0  0.62805  0.26464  0.66382  1.0000
  Fe  Fe144     1.0  0.59808  0.09431  0.90585  1.0000
  S   S288      1.0  0.60193  0.11032  0.86027  1.0000
  Fe  Fe145     1.0  0.59564  0.05846  0.94027  1.0000
  S   S289      1.0  0.59821  0.02877  0.93542  1.0000
  S   S290      1.0  0.58978  0.10895  0.94963  1.0000
  C   C1043     1.0  0.63464  0.01061  0.49812  1.0000
  C   C1044     1.0  0.52149  0.08961  0.95917  1.0000
  H   H1256     1.0  0.61240  0.10951  0.64722  1.0000
  C   C1045     1.0  0.51959  0.09327  0.92723  1.0000
  C   C1046     1.0  0.59613  0.01273  0.96556  1.0000
  H   H1257     1.0  0.74566  0.15017  0.55831  1.0000
  H   H1258     1.0  0.72506  0.32677  0.72762  1.0000
  C   C1047     1.0  0.63152  0.12492  0.69014  1.0000
  H   H1259     1.0  0.69667  0.33813  0.79358  1.0000
  C   C1048     1.0  0.62776  0.25729  0.64218  1.0000
  H   H1260     1.0  0.63410  0.11114  0.63275  1.0000
  C   C1049     1.0  0.63230  0.11682  0.53297  1.0000
  C   C1050     1.0  0.64821  0.11861  0.54908  1.0000
  C   C1051     1.0  0.64950  0.12981  0.57510  1.0000
  C   C1052     1.0  0.63487  0.13946  0.58513  1.0000
  C   C1053     1.0  0.61896  0.13764  0.56908  1.0000
  C   C1054     1.0  0.61764  0.12637  0.54318  1.0000
  H   H1261     1.0  0.65964  0.11129  0.54136  1.0000
  H   H1262     1.0  0.66185  0.13108  0.58716  1.0000
  H   H1263     1.0  0.60754  0.14501  0.57667  1.0000
  H   H1264     1.0  0.60532  0.12513  0.53103  1.0000
  C   C1055     1.0  0.64566  0.12715  0.79053  1.0000
  C   C1056     1.0  0.62834  0.13305  0.78705  1.0000
  C   C1057     1.0  0.61524  0.12768  0.80848  1.0000
  C   C1058     1.0  0.61916  0.11641  0.83382  1.0000
  C   C1059     1.0  0.63647  0.11050  0.83727  1.0000
  C   C1060     1.0  0.64956  0.11580  0.81576  1.0000
  H   H1265     1.0  0.62500  0.14168  0.76780  1.0000
  H   H1266     1.0  0.60192  0.13234  0.80542  1.0000
  H   H1267     1.0  0.63980  0.10175  0.85635  1.0000
  H   H1268     1.0  0.66285  0.11102  0.81864  1.0000
  C   C1061     1.0  0.60238  0.07927  0.75372  1.0000
  C   C1062     1.0  0.73666  0.15469  0.60570  1.0000
  C   C1063     1.0  0.74155  0.15745  0.63681  1.0000
  H   H1269     1.0  0.62229  0.08775  0.78541  1.0000
  H   H1270     1.0  0.72293  0.15422  0.59973  1.0000
  H   H1271     1.0  0.62039  0.13794  0.97044  1.0000
  C   C1064     1.0  0.66838  0.26944  0.65835  1.0000
  C   C1065     1.0  0.67181  0.25355  0.64281  1.0000
  C   C1066     1.0  0.67095  0.23740  0.65888  1.0000
  C   C1067     1.0  0.66611  0.23693  0.69050  1.0000
  C   C1068     1.0  0.66298  0.25283  0.70615  1.0000
  C   C1069     1.0  0.66430  0.26900  0.69031  1.0000
  H   H1272     1.0  0.67487  0.25374  0.61806  1.0000
  H   H1273     1.0  0.67363  0.22532  0.64668  1.0000
  H   H1274     1.0  0.65926  0.25262  0.73062  1.0000
  H   H1275     1.0  0.66147  0.28108  0.70252  1.0000
  C   C1070     1.0  0.61397  0.20262  0.59850  1.0000
  C   C1071     1.0  0.62979  0.20180  0.64672  1.0000
  N   N71       1.0  0.64103  0.13698  0.93563  1.0000
  C   C1072     1.0  0.63791  0.11860  0.92663  1.0000
  C   C1073     1.0  0.65402  0.13681  0.96146  1.0000
  C   C1074     1.0  0.62448  0.14458  0.94832  1.0000
  C   C1075     1.0  0.66934  0.16166  0.87623  1.0000
  H   H1276     1.0  0.63310  0.06132  0.98950  1.0000
  C   C1076     1.0  0.63525  0.14928  0.88185  1.0000
  H   H1277     1.0  0.63380  0.02245  0.51192  1.0000
  N   N72       1.0  0.53533  0.03296  0.96351  1.0000
  Fe  Fe146     1.0  0.60847  0.09093  0.97504  1.0000
  H   H1278     1.0  0.64979  0.11258  0.91575  1.0000
  H   H1279     1.0  0.66192  0.16981  0.82974  1.0000
  C   C1077     1.0  0.64678  0.14684  0.90754  1.0000
  C   C1078     1.0  0.65768  0.16374  0.85147  1.0000
  H   H1280     1.0  0.54120  0.05758  0.94090  1.0000
  H   H1281     1.0  0.61330  0.14318  0.93200  1.0000
  H   H1282     1.0  0.71286  0.32089  0.79599  1.0000
  H   H1283     1.0  0.53807  0.00823  0.93997  1.0000
  H   H1284     1.0  0.63549  0.01408  0.98638  1.0000
  H   H1285     1.0  0.62211  0.14416  0.88231  1.0000
  H   H1286     1.0  0.70026  0.32439  0.76098  1.0000
  S   S291      1.0  0.63160  0.10286  0.49989  1.0000
  H   H1287     1.0  0.58013  0.32915  0.79966  1.0000
  H   H1288     1.0  0.55894  0.04237  0.94124  1.0000
  H   H1289     1.0  0.59477  0.07296  0.77196  1.0000
  H   H1290     1.0  0.53106  0.09574  0.91301  1.0000
  N   N73       1.0  0.62944  0.20965  0.61486  1.0000
  H   H1291     1.0  0.60160  0.20714  0.60991  1.0000
  H   H1292     1.0  0.60096  0.08729  0.67597  1.0000
  H   H1293     1.0  0.65205  0.08564  0.68090  1.0000
  H   H1294     1.0  0.65740  0.20937  0.60894  1.0000
  C   C1079     1.0  0.62864  0.23853  0.58632  1.0000
  H   H1295     1.0  0.61347  0.20669  0.57352  1.0000
  H   H1296     1.0  0.63025  0.18727  0.64585  1.0000
  C   C1080     1.0  0.62861  0.25683  0.58580  1.0000
  H   H1297     1.0  0.64159  0.20589  0.65989  1.0000
  H   H1298     1.0  0.61792  0.20537  0.66054  1.0000
  H   H1299     1.0  0.63752  0.12781  0.71320  1.0000
  H   H1300     1.0  0.64706  0.18915  0.59911  1.0000
  H   H1301     1.0  0.61408  0.18801  0.59868  1.0000
  C   C1081     1.0  0.62859  0.22903  0.61499  1.0000
  C   C1082     1.0  0.62830  0.26618  0.61369  1.0000
  H   H1302     1.0  0.63953  0.10234  0.74514  1.0000
  C   C1083     1.0  0.65097  0.10013  0.68294  1.0000
  H   H1303     1.0  0.62897  0.28035  0.61334  1.0000
  H   H1304     1.0  0.62837  0.23308  0.66605  1.0000
  H   H1305     1.0  0.62711  0.11750  0.90940  1.0000
  H   H1306     1.0  0.54108  0.03885  0.91511  1.0000
  C   C1084     1.0  0.64552  0.20367  0.59824  1.0000
  H   H1307     1.0  0.66634  0.12988  0.95462  1.0000
  H   H1308     1.0  0.73912  0.32177  0.75978  1.0000
  C   C1085     1.0  0.62217  0.09628  0.70632  1.0000
  H   H1309     1.0  0.60331  0.32816  0.80519  1.0000
  H   H1310     1.0  0.74497  0.20718  0.59216  1.0000
  S   S292      1.0  0.68951  0.32251  0.69488  1.0000
  S   S293      1.0  0.68731  0.33393  0.62066  1.0000
  C   C1086     1.0  0.62769  0.09590  0.73800  1.0000
  H   H1311     1.0  0.61775  0.12982  0.69094  1.0000
  C   C1087     1.0  0.61791  0.08756  0.76127  1.0000
  C   C1088     1.0  0.59661  0.07924  0.72281  1.0000
  H   H1312     1.0  0.64526  0.04197  0.98055  1.0000
  N   N74       1.0  0.63237  0.10604  0.68256  1.0000
  C   C1089     1.0  0.60627  0.08765  0.69933  1.0000
  H   H1313     1.0  0.67383  0.15203  0.92200  1.0000
  H   H1314     1.0  0.63859  0.13284  0.67239  1.0000
  H   H1315     1.0  0.65789  0.10405  0.70467  1.0000
  C   C1090     1.0  0.62584  0.10395  0.65005  1.0000
  C   C1091     1.0  0.64064  0.15772  0.85442  1.0000
  H   H1316     1.0  0.58449  0.07278  0.71707  1.0000
  H   H1317     1.0  0.56041  0.33163  0.84171  1.0000
  H   H1318     1.0  0.65863  0.10595  0.66331  1.0000
  H   H1319     1.0  0.58930  0.32342  0.83756  1.0000
  H   H1320     1.0  0.64552  0.20734  0.57307  1.0000
  C   C1092     1.0  0.62798  0.23900  0.64303  1.0000
  H   H1321     1.0  0.62922  0.26385  0.56372  1.0000
  H   H1322     1.0  0.68264  0.16628  0.87368  1.0000
  H   H1323     1.0  0.74518  0.26470  0.62398  1.0000
  H   H1324     1.0  0.63426  0.11049  0.94725  1.0000
  C   C1093     1.0  0.66405  0.15337  0.90396  1.0000
  S   S294      1.0  0.58793  0.07089  0.98551  1.0000
  H   H1325     1.0  0.63167  0.15919  0.83496  1.0000
  H   H1326     1.0  0.59191  0.01449  0.54258  1.0000
  S   S295      1.0  0.54230  0.08910  0.97776  1.0000
  C   C1094     1.0  0.59117  0.01039  0.51843  1.0000
  C   C1095     1.0  0.51601  0.03304  0.96012  1.0000
  H   H1327     1.0  0.55708  0.01453  0.96154  1.0000
  C   C1096     1.0  0.54442  0.04338  0.93903  1.0000
  H   H1328     1.0  0.75246  0.20441  0.63223  1.0000
  H   H1329     1.0  0.62595  0.15875  0.95343  1.0000
  C   C1097     1.0  0.59070  0.33205  0.81665  1.0000
  C   C1098     1.0  0.50638  0.08652  0.97727  1.0000
  H   H1330     1.0  0.64903  0.12973  0.98254  1.0000
  H   H1331     1.0  0.62164  0.04140  0.98368  1.0000
  H   H1332     1.0  0.65712  0.15032  0.96912  1.0000
  H   H1333     1.0  0.53862  0.00657  0.98201  1.0000
  H   H1334     1.0  0.75128  0.33658  0.55399  1.0000
  H   H1335     1.0  0.59270  0.03676  0.50006  1.0000
  C   C1099     1.0  0.73249  0.33275  0.74718  1.0000
  H   H1336     1.0  0.74487  0.23316  0.61889  1.0000
  C   C1100     1.0  0.50696  0.04459  0.93937  1.0000
  H   H1337     1.0  0.72959  0.33621  0.59753  1.0000
  H   H1338     1.0  0.51364  0.05405  0.92492  1.0000
  S   S296      1.0  0.65225  0.33802  0.66656  1.0000
  C   C1101     1.0  0.70715  0.33112  0.78033  1.0000
  C   C1102     1.0  0.59165  0.02306  0.49431  1.0000
  H   H1339     1.0  0.50576  0.09198  0.49567  1.0000
  C   C1103     1.0  0.74323  0.33855  0.60242  1.0000
  Fe  Fe147     1.0  0.66406  0.36007  0.15696  1.0000
  S   S297      1.0  0.68461  0.36780  0.19202  1.0000
  S   S298      1.0  0.64870  0.38024  0.12825  1.0000
  H   H1340     1.0  0.52494  0.47915  0.45966  1.0000
  S   S299      1.0  0.66499  0.36232  0.27731  1.0000
  N   N75       1.0  0.61895  0.36039  0.41969  1.0000
  H   H1341     1.0  0.64205  0.62612  0.04980  1.0000
  H   H1342     1.0  0.64044  0.34165  0.09672  1.0000
  Fe  Fe148     1.0  0.59567  0.55130  0.04347  1.0000
  H   H1343     1.0  0.62180  0.38420  0.44580  1.0000
  S   S300      1.0  0.59125  0.52178  0.04673  1.0000
  Fe  Fe149     1.0  0.60958  0.58348  0.08016  1.0000
  S   S301      1.0  0.59860  0.60253  0.04460  1.0000
  S   S302      1.0  0.62602  0.58863  0.12425  1.0000
  Fe  Fe150     1.0  0.57448  0.58559  0.04461  1.0000
  S   S303      1.0  0.54747  0.59843  0.04938  1.0000
  H   H1344     1.0  0.64936  0.47082  0.03307  1.0000
  H   H1345     1.0  0.59325  0.34924  0.41577  1.0000
  S   S304      1.0  0.58471  0.56787  0.08268  1.0000
  S   S305      1.0  0.62129  0.56544  0.04368  1.0000
  Fe  Fe151     1.0  0.59659  0.40986  0.46986  1.0000
  S   S306      1.0  0.61602  0.42317  0.43790  1.0000
  C   C1104     1.0  0.62621  0.37811  0.42348  1.0000
  Fe  Fe152     1.0  0.56448  0.42801  0.43945  1.0000
  S   S307      1.0  0.58198  0.44148  0.40461  1.0000
  S   S308      1.0  0.53599  0.43798  0.44135  1.0000
  Fe  Fe153     1.0  0.59728  0.41615  0.39945  1.0000
  S   S309      1.0  0.60327  0.40297  0.35183  1.0000
  Fe  Fe154     1.0  0.59915  0.44750  0.44588  1.0000
  S   S310      1.0  0.60626  0.47665  0.44660  1.0000
  S   S311      1.0  0.57819  0.40229  0.43117  1.0000
  S   S312      1.0  0.58386  0.56816  0.00568  1.0000
  Fe  Fe155     1.0  0.66449  0.65212  0.26016  1.0000
  S   S313      1.0  0.64521  0.65959  0.29767  1.0000
  S   S314      1.0  0.65427  0.65152  0.20933  1.0000
  Fe  Fe156     1.0  0.69520  0.65461  0.30757  1.0000
  S   S315      1.0  0.72519  0.65339  0.30692  1.0000
  Fe  Fe157     1.0  0.65975  0.64108  0.32955  1.0000
  S   S316      1.0  0.64231  0.62160  0.35550  1.0000
  S   S317      1.0  0.67827  0.63233  0.29100  1.0000
  C   C1105     1.0  0.62614  0.35253  0.39064  1.0000
  H   H1346     1.0  0.51273  0.60303  0.07423  1.0000
  C   C1106     1.0  0.74048  0.65572  0.33798  1.0000
  C   C1107     1.0  0.64602  0.53145  0.47998  1.0000
  H   H1347     1.0  0.62186  0.38692  0.40416  1.0000
  H   H1348     1.0  0.56148  0.54304  0.04097  1.0000
  H   H1349     1.0  0.63555  0.60626  0.06888  1.0000
  C   C1108     1.0  0.66063  0.56681  0.48817  1.0000
  H   H1350     1.0  0.52553  0.40113  0.43620  1.0000
  C   C1109     1.0  0.65134  0.34077  0.36113  1.0000
  C   C1110     1.0  0.52680  0.59145  0.03549  1.0000
  H   H1351     1.0  0.74976  0.37006  0.08561  1.0000
  H   H1352     1.0  0.61527  0.34154  0.31530  1.0000
  H   H1353     1.0  0.64646  0.54793  0.40523  1.0000
  H   H1354     1.0  0.64408  0.49480  0.43534  1.0000
  C   C1111     1.0  0.62572  0.61872  0.45914  1.0000
  C   C1112     1.0  0.61746  0.60850  0.43666  1.0000
  C   C1113     1.0  0.62274  0.60955  0.40504  1.0000
  C   C1114     1.0  0.63635  0.62069  0.39564  1.0000
  C   C1115     1.0  0.64483  0.63060  0.41829  1.0000
  C   C1116     1.0  0.63941  0.62973  0.44979  1.0000
  H   H1355     1.0  0.60676  0.60015  0.44347  1.0000
  H   H1356     1.0  0.61613  0.60183  0.38764  1.0000
  H   H1357     1.0  0.65561  0.63888  0.41156  1.0000
  H   H1358     1.0  0.64588  0.63766  0.46706  1.0000
  C   C1117     1.0  0.63284  0.60650  0.14812  1.0000
  C   C1118     1.0  0.63104  0.62403  0.13877  1.0000
  C   C1119     1.0  0.63759  0.63757  0.15781  1.0000
  C   C1120     1.0  0.64581  0.63387  0.18667  1.0000
  C   C1121     1.0  0.64746  0.61637  0.19607  1.0000
  C   C1122     1.0  0.64116  0.60283  0.17683  1.0000
  H   H1359     1.0  0.62470  0.62717  0.11684  1.0000
  H   H1360     1.0  0.63621  0.65102  0.15018  1.0000
  H   H1361     1.0  0.65380  0.61321  0.21803  1.0000
  H   H1362     1.0  0.64275  0.58937  0.18434  1.0000
  H   H1363     1.0  0.56253  0.48181  0.40743  1.0000
  C   C1123     1.0  0.59078  0.48861  0.02165  1.0000
  H   H1364     1.0  0.56114  0.52588  0.99784  1.0000
  C   C1124     1.0  0.64927  0.57539  0.43821  1.0000
  C   C1125     1.0  0.60271  0.50991  0.47065  1.0000
  H   H1365     1.0  0.57038  0.64690  0.99801  1.0000
  H   H1366     1.0  0.58477  0.48483  0.04361  1.0000
  H   H1367     1.0  0.72677  0.36098  0.12355  1.0000
  H   H1368     1.0  0.60030  0.51385  0.44670  1.0000
  H   H1369     1.0  0.59445  0.36726  0.44232  1.0000
  C   C1126     1.0  0.64798  0.37479  0.29635  1.0000
  C   C1127     1.0  0.63110  0.37662  0.28397  1.0000
  C   C1128     1.0  0.61776  0.38540  0.30116  1.0000
  C   C1129     1.0  0.62103  0.39267  0.33082  1.0000
  C   C1130     1.0  0.63805  0.39124  0.34279  1.0000
  C   C1131     1.0  0.65131  0.38224  0.32584  1.0000
  H   H1370     1.0  0.62822  0.37100  0.26143  1.0000
  H   H1371     1.0  0.60474  0.38647  0.29141  1.0000
  H   H1372     1.0  0.64108  0.39710  0.36503  1.0000
  H   H1373     1.0  0.66428  0.38099  0.33570  1.0000
  C   C1132     1.0  0.64452  0.38052  0.08753  1.0000
  C   C1133     1.0  0.63116  0.39157  0.07596  1.0000
  C   C1134     1.0  0.62726  0.39214  0.04377  1.0000
  C   C1135     1.0  0.63692  0.38184  0.02278  1.0000
  C   C1136     1.0  0.65026  0.37078  0.03435  1.0000
  C   C1137     1.0  0.65408  0.37012  0.06657  1.0000
  H   H1374     1.0  0.62373  0.39968  0.09206  1.0000
  H   H1375     1.0  0.61677  0.40046  0.03527  1.0000
  H   H1376     1.0  0.65777  0.36275  0.01825  1.0000
  H   H1377     1.0  0.66452  0.36170  0.07512  1.0000
  C   C1138     1.0  0.66379  0.42881  0.08880  1.0000
  H   H1378     1.0  0.72142  0.65807  0.37495  1.0000
  C   C1139     1.0  0.64634  0.53893  0.42479  1.0000
  H   H1379     1.0  0.67951  0.40547  0.09444  1.0000
  H   H1380     1.0  0.60180  0.53646  0.48804  1.0000
  H   H1381     1.0  0.64464  0.50389  0.49065  1.0000
  H   H1382     1.0  0.51715  0.50131  0.04509  1.0000
  C   C1140     1.0  0.51386  0.40928  0.43633  1.0000
  H   H1383     1.0  0.66623  0.62532  0.08883  1.0000
  N   N76       1.0  0.64653  0.56337  0.46524  1.0000
  H   H1384     1.0  0.65000  0.58931  0.44569  1.0000
  H   H1385     1.0  0.68966  0.63067  0.05578  1.0000
  H   H1386     1.0  0.58343  0.63586  0.46584  1.0000
  H   H1387     1.0  0.66133  0.41533  0.00182  1.0000
  C   C1141     1.0  0.64659  0.54464  0.45646  1.0000
  C   C1142     1.0  0.73522  0.65781  0.36918  1.0000
  H   H1388     1.0  0.66173  0.57236  0.42563  1.0000
  N   N77       1.0  0.64268  0.44586  0.01335  1.0000
  C   C1143     1.0  0.73939  0.35441  0.12346  1.0000
  C   C1144     1.0  0.64555  0.51370  0.47230  1.0000
  C   C1145     1.0  0.67267  0.41399  0.07804  1.0000
  C   C1146     1.0  0.60807  0.66566  0.40538  1.0000
  H   H1389     1.0  0.55587  0.50432  0.40876  1.0000
  Fe  Fe158     1.0  0.66881  0.35212  0.22681  1.0000
  H   H1390     1.0  0.52594  0.49581  0.42971  1.0000
  H   H1391     1.0  0.55362  0.52094  0.07968  1.0000
  H   H1392     1.0  0.54499  0.55812  0.05304  1.0000
  C   C1147     1.0  0.60169  0.65675  0.45958  1.0000
  H   H1393     1.0  0.63826  0.57492  0.42125  1.0000
  H   H1394     1.0  0.61650  0.34741  0.15388  1.0000
  Fe  Fe159     1.0  0.60877  0.58362  0.00847  1.0000
  H   H1395     1.0  0.53402  0.47398  0.42262  1.0000
  C   C1148     1.0  0.53313  0.48457  0.44044  1.0000
  C   C1149     1.0  0.62317  0.34281  0.33617  1.0000
  C   C1150     1.0  0.61587  0.35002  0.36335  1.0000
  C   C1151     1.0  0.67203  0.40967  0.04646  1.0000
  H   H1396     1.0  0.61894  0.43375  0.02910  1.0000
  H   H1397     1.0  0.64075  0.37803  0.42354  1.0000
  C   C1152     1.0  0.75248  0.35954  0.10199  1.0000
  H   H1398     1.0  0.61965  0.35537  0.06598  1.0000
  C   C1153     1.0  0.50832  0.57846  0.99579  1.0000
  C   C1154     1.0  0.64562  0.52113  0.41742  1.0000
  C   C1155     1.0  0.55174  0.51560  0.00130  1.0000
  C   C1156     1.0  0.59955  0.36208  0.41964  1.0000
  C   C1157     1.0  0.51757  0.53840  0.04406  1.0000
  C   C1158     1.0  0.59542  0.50620  0.01674  1.0000
  C   C1159     1.0  0.58725  0.64222  0.41713  1.0000
  H   H1399     1.0  0.66391  0.43176  0.11362  1.0000
  C   C1160     1.0  0.64518  0.50856  0.44111  1.0000
  H   H1400     1.0  0.55046  0.46926  0.48655  1.0000
  C   C1161     1.0  0.62383  0.34963  0.44746  1.0000
  C   C1162     1.0  0.65434  0.43946  0.06800  1.0000
  C   C1163     1.0  0.54911  0.50486  0.47290  1.0000
  C   C1164     1.0  0.74786  0.65928  0.39302  1.0000
  H   H1401     1.0  0.62878  0.58192  0.48683  1.0000
  C   C1165     1.0  0.53996  0.52628  0.07806  1.0000
  C   C1166     1.0  0.67240  0.61464  0.02683  1.0000
  C   C1167     1.0  0.65351  0.43548  0.03553  1.0000
  S   S318      1.0  0.58134  0.43457  0.48088  1.0000
  C   C1168     1.0  0.68580  0.62699  0.03247  1.0000
  H   H1402     1.0  0.67842  0.39776  0.03840  1.0000
  C   C1169     1.0  0.57399  0.63285  0.99576  1.0000
  C   C1170     1.0  0.52736  0.50173  0.02754  1.0000
  C   C1171     1.0  0.60323  0.34553  0.03043  1.0000
  H   H1403     1.0  0.58841  0.63162  0.99909  1.0000
  C   C1172     1.0  0.52508  0.58262  0.00708  1.0000
  C   C1173     1.0  0.53829  0.51655  0.02442  1.0000
  H   H1404     1.0  0.59676  0.34928  0.13130  1.0000
  C   C1174     1.0  0.61070  0.66722  0.43814  1.0000
  H   H1405     1.0  0.65301  0.35026  0.40764  1.0000
  H   H1406     1.0  0.62818  0.46264  0.04529  1.0000
  C   C1175     1.0  0.56152  0.49346  0.42301  1.0000
  H   H1407     1.0  0.57523  0.49658  0.42933  1.0000
  H   H1408     1.0  0.53890  0.53746  0.09463  1.0000
  C   C1176     1.0  0.62944  0.56790  0.47982  1.0000
  S   S319      1.0  0.67754  0.66196  0.34810  1.0000
  H   H1409     1.0  0.74904  0.36651  0.20874  1.0000
  N   N78       1.0  0.66222  0.60629  0.05230  1.0000
  C   C1177     1.0  0.66807  0.61109  0.08426  1.0000
  C   C1178     1.0  0.64358  0.61163  0.04937  1.0000
  C   C1179     1.0  0.66355  0.58696  0.04983  1.0000
  H   H1410     1.0  0.61461  0.66160  0.34109  1.0000
  S   S320      1.0  0.64774  0.34558  0.19243  1.0000
  H   H1411     1.0  0.54555  0.55106  0.01307  1.0000
  C   C1180     1.0  0.62647  0.43612  0.00714  1.0000
  H   H1412     1.0  0.66036  0.60422  0.10275  1.0000
  C   C1181     1.0  0.61090  0.34495  0.06005  1.0000
  H   H1413     1.0  0.56750  0.62607  0.01581  1.0000
  H   H1414     1.0  0.64514  0.51702  0.39317  1.0000
  H   H1415     1.0  0.63766  0.60690  0.02727  1.0000
  H   H1416     1.0  0.59383  0.64993  0.37107  1.0000
  H   H1417     1.0  0.67745  0.58245  0.05042  1.0000
  H   H1418     1.0  0.65649  0.58033  0.06946  1.0000
  H   H1419     1.0  0.61846  0.56557  0.46337  1.0000
  H   H1420     1.0  0.64746  0.45050  0.07808  1.0000
  N   N79       1.0  0.53592  0.53175  0.04550  1.0000
  C   C1182     1.0  0.63766  0.46344  0.02548  1.0000
  C   C1183     1.0  0.60557  0.49209  0.47773  1.0000
  C   C1184     1.0  0.54748  0.54661  0.03763  1.0000
  C   C1185     1.0  0.58995  0.64432  0.44910  1.0000
  C   C1186     1.0  0.64418  0.34791  0.38850  1.0000
  H   H1421     1.0  0.50800  0.52893  0.05358  1.0000
  C   C1187     1.0  0.59620  0.65263  0.39545  1.0000
  C   C1188     1.0  0.51538  0.42746  0.43841  1.0000
  C   C1189     1.0  0.66237  0.42002  0.02555  1.0000
  H   H1422     1.0  0.68201  0.60734  0.08820  1.0000
  H   H1423     1.0  0.61668  0.35924  0.11819  1.0000
  H   H1424     1.0  0.53103  0.51595  0.08674  1.0000
  H   H1425     1.0  0.56563  0.52342  0.44712  1.0000
  H   H1426     1.0  0.59492  0.37149  0.40135  1.0000
  C   C1190     1.0  0.51158  0.59598  0.05243  1.0000
  H   H1427     1.0  0.57851  0.63214  0.40909  1.0000
  H   H1428     1.0  0.51571  0.55063  0.05790  1.0000
  H   H1429     1.0  0.63881  0.65808  0.37597  1.0000
  H   H1430     1.0  0.63809  0.34982  0.45230  1.0000
  C   C1191     1.0  0.52970  0.48697  0.00865  1.0000
  C   C1192     1.0  0.69460  0.63517  0.00767  1.0000
  H   H1431     1.0  0.63092  0.47158  0.00737  1.0000
  C   C1193     1.0  0.55901  0.47484  0.46801  1.0000
  H   H1432     1.0  0.65765  0.58194  0.02793  1.0000
  H   H1433     1.0  0.67360  0.56239  0.47894  1.0000
  H   H1434     1.0  0.74360  0.66063  0.41708  1.0000
  H   H1435     1.0  0.61746  0.35465  0.46928  1.0000
  C   C1194     1.0  0.55751  0.52111  0.46742  1.0000
  H   H1436     1.0  0.62934  0.42310  0.99655  1.0000
  H   H1437     1.0  0.51376  0.54154  0.01950  1.0000
  N   N80       1.0  0.55073  0.48982  0.45131  1.0000
  H   H1438     1.0  0.52138  0.47569  0.01177  1.0000
  H   H1439     1.0  0.60230  0.35405  0.36196  1.0000
  H   H1440     1.0  0.56205  0.46388  0.45180  1.0000
  H   H1441     1.0  0.57154  0.47865  0.47910  1.0000
  H   H1442     1.0  0.70473  0.64460  0.01239  1.0000
  H   H1443     1.0  0.58993  0.46248  0.00229  1.0000
  C   C1195     1.0  0.55591  0.53490  0.48873  1.0000
  H   H1444     1.0  0.60625  0.35619  0.01442  1.0000
  C   C1196     1.0  0.61120  0.34741  0.12967  1.0000
  Fe  Fe160     1.0  0.69827  0.34244  0.17892  1.0000
  C   C1197     1.0  0.74288  0.34120  0.14541  1.0000
  C   C1198     1.0  0.59367  0.47590  0.99823  1.0000
  H   H1445     1.0  0.60430  0.65774  0.48445  1.0000
  H   H1446     1.0  0.56258  0.54712  0.48435  1.0000
  C   C1199     1.0  0.63676  0.67169  0.38441  1.0000
  C   C1200     1.0  0.66854  0.61098  0.99505  1.0000
  Fe  Fe161     1.0  0.66890  0.35550  0.63596  1.0000
  S   S321      1.0  0.68629  0.36363  0.67568  1.0000
  S   S322      1.0  0.66227  0.37890  0.60462  1.0000
  H   H1447     1.0  0.60723  0.64522  0.62730  1.0000
  H   H1448     1.0  0.63943  0.64594  0.62286  1.0000
  H   H1449     1.0  0.53114  0.39602  0.81382  1.0000
  C   C1201     1.0  0.60509  0.35345  0.84778  1.0000
  H   H1450     1.0  0.65743  0.59114  0.75087  1.0000
  Fe  Fe162     1.0  0.60275  0.56233  0.55348  1.0000
  S   S323      1.0  0.58704  0.57578  0.51589  1.0000
  S   S324      1.0  0.61279  0.53412  0.55368  1.0000
  Fe  Fe163     1.0  0.60086  0.59429  0.59884  1.0000
  S   S325      1.0  0.58445  0.60957  0.56439  1.0000
  S   S326      1.0  0.60462  0.60561  0.64836  1.0000
  Fe  Fe164     1.0  0.56936  0.58487  0.55552  1.0000
  S   S327      1.0  0.54043  0.57876  0.56397  1.0000
  Fe  Fe165     1.0  0.60343  0.59934  0.52782  1.0000
  H   H1451     1.0  0.64451  0.45746  0.96710  1.0000
  S   S328      1.0  0.58462  0.57023  0.59243  1.0000
  S   S329      1.0  0.62044  0.58512  0.56284  1.0000
  Fe  Fe166     1.0  0.61353  0.39930  0.95483  1.0000
  S   S330      1.0  0.62457  0.41903  0.92103  1.0000
  H   H1452     1.0  0.62953  0.41040  0.52282  1.0000
  Fe  Fe167     1.0  0.57603  0.40547  0.93201  1.0000
  S   S331      1.0  0.58451  0.42540  0.89634  1.0000
  S   S332      1.0  0.54872  0.39428  0.93970  1.0000
  Fe  Fe168     1.0  0.60713  0.40700  0.88497  1.0000
  S   S333      1.0  0.61413  0.40236  0.83299  1.0000
  Fe  Fe169     1.0  0.60140  0.43587  0.93513  1.0000
  S   S334      1.0  0.60635  0.46522  0.93983  1.0000
  S   S335      1.0  0.59732  0.38628  0.91793  1.0000
  S   S336      1.0  0.63285  0.38224  0.98202  1.0000
  Fe  Fe170     1.0  0.67031  0.64904  0.78113  1.0000
  C   C1202     1.0  0.65033  0.56353  0.69008  1.0000
  S   S337      1.0  0.66659  0.63242  0.73663  1.0000
  Fe  Fe171     1.0  0.67086  0.34501  0.70550  1.0000
  H   H1453     1.0  0.62130  0.62602  0.98110  1.0000
  Fe  Fe172     1.0  0.66457  0.65990  0.84931  1.0000
  S   S338      1.0  0.64841  0.65850  0.89432  1.0000
  S   S339      1.0  0.68125  0.63871  0.82701  1.0000
  C   C1203     1.0  0.74223  0.40037  0.56447  1.0000
  H   H1454     1.0  0.53261  0.49128  0.50675  1.0000
  H   H1455     1.0  0.60659  0.35697  0.78507  1.0000
  C   C1204     1.0  0.62773  0.56058  0.63289  1.0000
  H   H1456     1.0  0.70205  0.36430  0.76239  1.0000
  C   C1205     1.0  0.52822  0.40516  0.93524  1.0000
  C   C1206     1.0  0.54325  0.36890  0.87144  1.0000
  C   C1207     1.0  0.52684  0.42223  0.92347  1.0000
  H   H1457     1.0  0.65800  0.55602  0.67348  1.0000
  H   H1458     1.0  0.53858  0.42928  0.91736  1.0000
  C   C1208     1.0  0.52013  0.58607  0.54808  1.0000
  C   C1209     1.0  0.60921  0.48731  0.50870  1.0000
  C   C1210     1.0  0.51887  0.59438  0.51892  1.0000
  H   H1459     1.0  0.69696  0.63794  0.95760  1.0000
  H   H1460     1.0  0.60272  0.34641  0.87025  1.0000
  C   C1211     1.0  0.63066  0.60855  0.94521  1.0000
  C   C1212     1.0  0.62796  0.62497  0.95881  1.0000
  C   C1213     1.0  0.63375  0.64015  0.94318  1.0000
  C   C1214     1.0  0.64233  0.63903  0.91398  1.0000
  C   C1215     1.0  0.64525  0.62258  0.90071  1.0000
  C   C1216     1.0  0.63941  0.60744  0.91626  1.0000
  C   C1217     1.0  0.55657  0.38051  0.86420  1.0000
  H   H1461     1.0  0.63141  0.65285  0.95353  1.0000
  H   H1462     1.0  0.65180  0.62153  0.87827  1.0000
  H   H1463     1.0  0.64162  0.59476  0.90566  1.0000
  C   C1218     1.0  0.62214  0.61385  0.67149  1.0000
  C   C1219     1.0  0.63976  0.61154  0.66323  1.0000
  C   C1220     1.0  0.65310  0.61761  0.68317  1.0000
  C   C1221     1.0  0.64908  0.62620  0.71150  1.0000
  C   C1222     1.0  0.63144  0.62888  0.71939  1.0000
  C   C1223     1.0  0.61811  0.62262  0.69964  1.0000
  H   H1464     1.0  0.64315  0.60484  0.64178  1.0000
  H   H1465     1.0  0.66667  0.61540  0.67680  1.0000
  H   H1466     1.0  0.62806  0.63537  0.74106  1.0000
  H   H1467     1.0  0.60455  0.62452  0.70631  1.0000
  C   C1224     1.0  0.60827  0.51813  0.52469  1.0000
  C   C1225     1.0  0.61083  0.50029  0.53189  1.0000
  H   H1468     1.0  0.53064  0.59716  0.50572  1.0000
  C   C1226     1.0  0.60146  0.48065  0.96974  1.0000
  C   C1227     1.0  0.60609  0.49822  0.96491  1.0000
  H   H1469     1.0  0.59534  0.37528  0.80109  1.0000
  H   H1470     1.0  0.61444  0.49649  0.55545  1.0000
  H   H1471     1.0  0.54179  0.62213  0.97944  1.0000
  H   H1472     1.0  0.61214  0.50203  0.94300  1.0000
  C   C1228     1.0  0.65943  0.57309  0.71246  1.0000
  C   C1229     1.0  0.65174  0.36532  0.77819  1.0000
  C   C1230     1.0  0.64047  0.37696  0.76257  1.0000
  C   C1231     1.0  0.62949  0.38849  0.77974  1.0000
  C   C1232     1.0  0.62953  0.38859  0.81275  1.0000
  C   C1233     1.0  0.64101  0.37713  0.82836  1.0000
  C   C1234     1.0  0.65195  0.36556  0.81119  1.0000
  H   H1473     1.0  0.64014  0.37704  0.73725  1.0000
  H   H1474     1.0  0.62075  0.39731  0.76729  1.0000
  H   H1475     1.0  0.64133  0.37705  0.85368  1.0000
  H   H1476     1.0  0.66063  0.35668  0.82363  1.0000
  C   C1235     1.0  0.64565  0.38058  0.57588  1.0000
  C   C1236     1.0  0.64393  0.39623  0.55862  1.0000
  C   C1237     1.0  0.63081  0.39825  0.53573  1.0000
  C   C1238     1.0  0.61925  0.38461  0.52998  1.0000
  C   C1239     1.0  0.62107  0.36891  0.54704  1.0000
  C   C1240     1.0  0.63421  0.36687  0.56988  1.0000
  H   H1477     1.0  0.65267  0.40693  0.56318  1.0000
  H   H1478     1.0  0.61778  0.44342  0.99070  1.0000
  H   H1479     1.0  0.56715  0.59951  0.94548  1.0000
  H   H1480     1.0  0.63538  0.35478  0.58301  1.0000
  C   C1241     1.0  0.72899  0.36869  0.84292  1.0000
  C   C1242     1.0  0.72061  0.36099  0.81754  1.0000
  C   C1243     1.0  0.74687  0.65971  0.85476  1.0000
  H   H1481     1.0  0.74277  0.61446  0.84647  1.0000
  N   N81       1.0  0.72085  0.34306  0.76833  1.0000
  C   C1244     1.0  0.58957  0.62418  0.91835  1.0000
  H   H1482     1.0  0.60680  0.36746  0.85370  1.0000
  S   S340      1.0  0.66557  0.35001  0.75795  1.0000
  H   H1483     1.0  0.61161  0.47370  0.51451  1.0000
  C   C1245     1.0  0.74544  0.38562  0.61447  1.0000
  H   H1484     1.0  0.55547  0.39404  0.87163  1.0000
  H   H1485     1.0  0.58185  0.38412  0.84474  1.0000
  C   C1246     1.0  0.59934  0.63265  0.89517  1.0000
  H   H1486     1.0  0.62515  0.59240  0.74985  1.0000
  H   H1487     1.0  0.51375  0.38294  0.95202  1.0000
  H   H1488     1.0  0.65839  0.56017  0.51100  1.0000
  H   H1489     1.0  0.61787  0.34880  0.83806  1.0000
  C   C1247     1.0  0.62288  0.57461  0.71108  1.0000
  H   H1490     1.0  0.60667  0.52439  0.98400  1.0000
  C   C1248     1.0  0.57154  0.60618  0.96712  1.0000
  H   H1491     1.0  0.65846  0.60182  0.98888  1.0000
  C   C1249     1.0  0.54299  0.48650  0.98621  1.0000
  H   H1492     1.0  0.51213  0.38448  0.77216  1.0000
  H   H1493     1.0  0.61215  0.35831  0.54279  1.0000
  S   S341      1.0  0.62347  0.58897  0.96318  1.0000
  H   H1494     1.0  0.62499  0.57487  0.63078  1.0000
  H   H1495     1.0  0.70583  0.35150  0.72850  1.0000
  C   C1250     1.0  0.62717  0.53517  0.66655  1.0000
  C   C1251     1.0  0.74853  0.34959  0.79909  1.0000
  H   H1496     1.0  0.64129  0.53261  0.66199  1.0000
  H   H1497     1.0  0.53186  0.37343  0.88451  1.0000
  H   H1498     1.0  0.60707  0.65729  0.87537  1.0000
  H   H1499     1.0  0.59817  0.55069  0.68945  1.0000
  H   H1500     1.0  0.58334  0.35962  0.77921  1.0000
  H   H1501     1.0  0.59849  0.56928  0.66301  1.0000
  S   S342      1.0  0.73327  0.34361  0.66480  1.0000
  H   H1502     1.0  0.65383  0.43632  0.96963  1.0000
  C   C1252     1.0  0.54602  0.53297  0.51597  1.0000
  C   C1253     1.0  0.51713  0.39512  0.81762  1.0000
  C   C1254     1.0  0.69030  0.63141  0.97677  1.0000
  C   C1255     1.0  0.65204  0.44861  0.98313  1.0000
  H   H1503     1.0  0.62404  0.52991  0.69026  1.0000
  H   H1504     1.0  0.71614  0.36425  0.61464  1.0000
  C   C1256     1.0  0.75560  0.33864  0.57775  1.0000
  H   H1505     1.0  0.59118  0.61013  0.91963  1.0000
  C   C1257     1.0  0.54971  0.62864  0.96076  1.0000
  C   C1258     1.0  0.51281  0.39614  0.94287  1.0000
  C   C1259     1.0  0.71240  0.35702  0.74926  1.0000
  H   H1506     1.0  0.64190  0.55852  0.62802  1.0000
  H   H1507     1.0  0.67389  0.61651  0.94643  1.0000
  N   N82       1.0  0.62248  0.55403  0.66423  1.0000
  H   H1508     1.0  0.54622  0.64278  0.96159  1.0000
  H   H1509     1.0  0.67362  0.57289  0.71270  1.0000
  C   C1260     1.0  0.60309  0.55551  0.66647  1.0000
  S   S343      1.0  0.61906  0.61885  0.49891  1.0000
  H   H1510     1.0  0.69389  0.39659  0.62540  1.0000
  H   H1511     1.0  0.72144  0.37615  0.85992  1.0000
  C   C1261     1.0  0.65033  0.58330  0.73414  1.0000
  H   H1512     1.0  0.62056  0.55387  0.61379  1.0000
  H   H1513     1.0  0.74251  0.34112  0.73567  1.0000
  H   H1514     1.0  0.72825  0.65823  0.89258  1.0000
  H   H1515     1.0  0.71376  0.39069  0.64424  1.0000
  C   C1262     1.0  0.57877  0.63380  0.93957  1.0000
  C   C1263     1.0  0.57168  0.37465  0.84881  1.0000
  H   H1516     1.0  0.58560  0.60283  0.97114  1.0000
  C   C1264     1.0  0.57814  0.65225  0.93556  1.0000
  H   H1517     1.0  0.73478  0.40575  0.54522  1.0000
  C   C1265     1.0  0.50638  0.38862  0.79421  1.0000
  C   C1266     1.0  0.63279  0.65446  0.63944  1.0000
  H   H1518     1.0  0.60884  0.57638  0.71123  1.0000
  C   C1267     1.0  0.74854  0.34158  0.63323  1.0000
  H   H1519     1.0  0.61994  0.52728  0.64903  1.0000
  C   C1268     1.0  0.63175  0.56398  0.68867  1.0000
  C   C1269     1.0  0.50983  0.40054  0.84592  1.0000
  C   C1270     1.0  0.63212  0.58400  0.73352  1.0000
  C   C1271     1.0  0.58816  0.66059  0.91253  1.0000
  N   N83       1.0  0.56873  0.62541  0.96522  1.0000
  H   H1520     1.0  0.59190  0.66384  0.66595  1.0000
  H   H1521     1.0  0.57012  0.66041  0.95058  1.0000
  H   H1522     1.0  0.60793  0.62513  0.87990  1.0000
  H   H1523     1.0  0.59651  0.54770  0.64806  1.0000
  H   H1524     1.0  0.74032  0.37893  0.63483  1.0000
  N   N84       1.0  0.71497  0.38996  0.59351  1.0000
  C   C1272     1.0  0.70488  0.39828  0.56763  1.0000
  C   C1273     1.0  0.71112  0.37101  0.59336  1.0000
  C   C1274     1.0  0.70842  0.39757  0.62332  1.0000
  C   C1275     1.0  0.73415  0.39228  0.59082  1.0000
  S   S344      1.0  0.60235  0.38650  0.50182  1.0000
  C   C1276     1.0  0.59405  0.36108  0.79650  1.0000
  C   C1277     1.0  0.57393  0.35686  0.84005  1.0000
  H   H1525     1.0  0.53024  0.51567  0.54357  1.0000
  H   H1526     1.0  0.50710  0.57193  0.97350  1.0000
  H   H1527     1.0  0.70816  0.39227  0.54464  1.0000
  H   H1528     1.0  0.69048  0.39655  0.57085  1.0000
  H   H1529     1.0  0.70711  0.41262  0.56647  1.0000
  H   H1530     1.0  0.71711  0.36445  0.57265  1.0000
  H   H1531     1.0  0.69681  0.36857  0.59274  1.0000
  H   H1532     1.0  0.71186  0.41163  0.62512  1.0000
  H   H1533     1.0  0.64945  0.66603  0.73455  1.0000
  C   C1278     1.0  0.73010  0.35109  0.79492  1.0000
  C   C1279     1.0  0.74189  0.65969  0.88631  1.0000
  C   C1280     1.0  0.59884  0.65080  0.89254  1.0000
  C   C1281     1.0  0.54484  0.35141  0.86275  1.0000
  H   H1534     1.0  0.50930  0.44321  0.90972  1.0000
  N   N85       1.0  0.59056  0.35084  0.82544  1.0000
  H   H1535     1.0  0.65654  0.66478  0.65670  1.0000
  C   C1282     1.0  0.53911  0.50335  0.50088  1.0000
  H   H1536     1.0  0.64527  0.53471  0.50455  1.0000
  S   S345      1.0  0.73159  0.65656  0.82410  1.0000
  C   C1283     1.0  0.53764  0.51722  0.52205  1.0000
  Fe  Fe173     1.0  0.70175  0.65970  0.82348  1.0000
  H   H1537     1.0  0.51816  0.40565  0.86416  1.0000
  C   C1284     1.0  0.67732  0.61931  0.97050  1.0000
  S   S346      1.0  0.59160  0.41688  0.97165  1.0000
  H   H1538     1.0  0.53448  0.34241  0.86876  1.0000
  H   H1539     1.0  0.54503  0.54367  0.53256  1.0000
  H   H1540     1.0  0.72217  0.36660  0.74058  1.0000
  S   S347      1.0  0.65230  0.66897  0.80375  1.0000
  Fe  Fe174     1.0  0.70353  0.34083  0.66218  1.0000
  H   H1541     1.0  0.70659  0.36288  0.81566  1.0000
  H   H1542     1.0  0.54530  0.62353  0.93778  1.0000
  C   C1285     1.0  0.60302  0.51094  0.98815  1.0000
  C   C1286     1.0  0.75472  0.66088  0.90988  1.0000
  C   C1287     1.0  0.61463  0.65404  0.64189  1.0000
  H   H1543     1.0  0.56397  0.60032  0.98681  1.0000
  H   H1544     1.0  0.66647  0.66877  0.70624  1.0000
  C   C1288     1.0  0.51022  0.43010  0.91926  1.0000
  C   C1289     1.0  0.60603  0.66450  0.66385  1.0000
  H   H1545     1.0  0.75080  0.66038  0.93424  1.0000
  C   C1290     1.0  0.74704  0.36687  0.84648  1.0000
  C   C1291     1.0  0.64245  0.66528  0.65901  1.0000
  S   S348      1.0  0.69205  0.66844  0.77637  1.0000
  H   H1546     1.0  0.75351  0.37286  0.86619  1.0000
  H   H1547     1.0  0.66513  0.45443  0.98697  1.0000
  C   C1292     1.0  0.55992  0.34538  0.84724  1.0000
  H   H1548     1.0  0.56456  0.50020  0.96554  1.0000
  H   H1549     1.0  0.62686  0.55999  0.50127  1.0000
  H   H1550     1.0  0.75551  0.62262  0.89732  1.0000
  C   C1293     1.0  0.55392  0.50080  0.98249  1.0000
  H   H1551     1.0  0.54506  0.47492  0.97202  1.0000
  C   C1294     1.0  0.60369  0.52282  0.49407  1.0000
  H   H1552     1.0  0.53658  0.57950  0.99330  1.0000
  H   H1553     1.0  0.66152  0.58102  0.49369  1.0000
  C   C1295     1.0  0.63641  0.99998  0.07353  1.0000
  C   C1296     1.0  0.74164  0.89231  0.04157  1.0000
  S   S349      1.0  0.65158  0.70634  0.32465  1.0000
  N   N86       1.0  0.69837  0.87702  0.40898  1.0000
  Fe  Fe175     1.0  0.59774  0.94115  0.04673  1.0000
  S   S350      1.0  0.58820  0.92025  0.01372  1.0000
  S   S351      1.0  0.59336  0.97093  0.04395  1.0000
  Fe  Fe176     1.0  0.61081  0.91363  0.09624  1.0000
  S   S352      1.0  0.60200  0.89152  0.06626  1.0000
  S   S353      1.0  0.62250  0.91130  0.14580  1.0000
  Fe  Fe177     1.0  0.61370  0.90630  0.02572  1.0000
  C   C1297     1.0  0.59003  0.00417  0.01948  1.0000
  Fe  Fe178     1.0  0.57736  0.90735  0.05738  1.0000
  S   S354      1.0  0.55148  0.89356  0.06773  1.0000
  S   S355      1.0  0.62380  0.92795  0.05627  1.0000
  S   S356      1.0  0.58559  0.92875  0.08958  1.0000
  Fe  Fe179     1.0  0.66152  0.83727  0.34799  1.0000
  S   S357      1.0  0.67212  0.85875  0.31734  1.0000
  S   S358      1.0  0.64526  0.84062  0.39253  1.0000
  Fe  Fe180     1.0  0.67919  0.80786  0.30973  1.0000
  S   S359      1.0  0.69099  0.82751  0.27657  1.0000
  S   S360      1.0  0.68898  0.77970  0.30298  1.0000
  Fe  Fe181     1.0  0.69742  0.84299  0.31955  1.0000
  S   S361      1.0  0.72411  0.85578  0.32535  1.0000
  Fe  Fe182     1.0  0.66473  0.84141  0.27676  1.0000
  S   S362      1.0  0.65092  0.84695  0.22965  1.0000
  S   S363      1.0  0.68722  0.82267  0.35256  1.0000
  S   S364      1.0  0.65252  0.82065  0.30765  1.0000
  C   C1298     1.0  0.67637  0.87294  0.45348  1.0000
  C   C1299     1.0  0.74072  0.84968  0.35249  1.0000
  C   C1300     1.0  0.73753  0.83827  0.37756  1.0000
  H   H1554     1.0  0.64097  0.95312  0.39713  1.0000
  H   H1555     1.0  0.61958  0.68395  0.33422  1.0000
  H   H1556     1.0  0.72493  0.83208  0.37978  1.0000
  C   C1301     1.0  0.53023  0.90197  0.05906  1.0000
  C   C1302     1.0  0.65025  0.70199  0.24281  1.0000
  C   C1303     1.0  0.52773  0.91659  0.03973  1.0000
  H   H1557     1.0  0.72532  0.87270  0.39551  1.0000
  H   H1558     1.0  0.53896  0.92327  0.03011  1.0000
  C   C1304     1.0  0.62973  0.89165  0.44291  1.0000
  C   C1305     1.0  0.62473  0.87541  0.45492  1.0000
  C   C1306     1.0  0.62945  0.85994  0.43900  1.0000
  C   C1307     1.0  0.63904  0.86054  0.41083  1.0000
  C   C1308     1.0  0.64376  0.87680  0.39852  1.0000
  C   C1309     1.0  0.63922  0.89228  0.41461  1.0000
  H   H1559     1.0  0.74780  0.82666  0.41996  1.0000
  H   H1560     1.0  0.62572  0.84740  0.44865  1.0000
  H   H1561     1.0  0.65088  0.87742  0.37664  1.0000
  H   H1562     1.0  0.64311  0.90478  0.40510  1.0000
  C   C1310     1.0  0.63147  0.89329  0.16774  1.0000
  C   C1311     1.0  0.63881  0.89645  0.19739  1.0000
  C   C1312     1.0  0.64525  0.88259  0.21635  1.0000
  C   C1313     1.0  0.64427  0.86526  0.20606  1.0000
  C   C1314     1.0  0.63717  0.86214  0.17622  1.0000
  C   C1315     1.0  0.63098  0.87601  0.15708  1.0000
  H   H1563     1.0  0.63937  0.90973  0.20590  1.0000
  H   H1564     1.0  0.65067  0.88527  0.23914  1.0000
  H   H1565     1.0  0.63646  0.84884  0.16785  1.0000
  H   H1566     1.0  0.62581  0.87328  0.13415  1.0000
  C   C1316     1.0  0.63655  0.99646  0.44760  1.0000
  H   H1567     1.0  0.69952  0.90965  0.43544  1.0000
  C   C1317     1.0  0.51543  0.89344  0.07129  1.0000
  N   N87       1.0  0.63551  0.96321  0.44340  1.0000
  H   H1568     1.0  0.65770  0.87142  0.49135  1.0000
  C   C1318     1.0  0.66223  0.72667  0.31926  1.0000
  C   C1319     1.0  0.65268  0.74234  0.32345  1.0000
  C   C1320     1.0  0.66066  0.75873  0.31900  1.0000
  C   C1321     1.0  0.67832  0.75956  0.31039  1.0000
  C   C1322     1.0  0.68787  0.74387  0.30633  1.0000
  C   C1323     1.0  0.67989  0.72751  0.31073  1.0000
  H   H1569     1.0  0.63900  0.74185  0.33002  1.0000
  H   H1570     1.0  0.65314  0.77069  0.32203  1.0000
  H   H1571     1.0  0.70153  0.74438  0.29961  1.0000
  H   H1572     1.0  0.68743  0.71557  0.30759  1.0000
  H   H1573     1.0  0.72069  0.86883  0.43621  1.0000
  N   N88       1.0  0.65512  0.70774  0.21080  1.0000
  H   H1574     1.0  0.67698  0.70452  0.17925  1.0000
  C   C1324     1.0  0.51065  0.92245  0.03244  1.0000
  H   H1575     1.0  0.62689  0.83105  0.01208  1.0000
  H   H1576     1.0  0.71310  0.78921  0.35497  1.0000
  H   H1577     1.0  0.64496  0.70425  0.16425  1.0000
  H   H1578     1.0  0.67178  0.68525  0.20166  1.0000
  C   C1325     1.0  0.58969  0.00001  0.45607  1.0000
  C   C1326     1.0  0.59393  0.98651  0.01282  1.0000
  H   H1579     1.0  0.63605  0.98338  0.00016  1.0000
  H   H1580     1.0  0.64179  0.68598  0.18980  1.0000
  H   H1581     1.0  0.70150  0.85454  0.37919  1.0000
  H   H1582     1.0  0.50890  0.93368  0.01718  1.0000
  C   C1327     1.0  0.67237  0.69982  0.20251  1.0000
  H   H1583     1.0  0.58775  0.97366  0.47479  1.0000
  C   C1328     1.0  0.72719  0.79067  0.35317  1.0000
  H   H1584     1.0  0.63585  0.97379  0.05535  1.0000
  H   H1585     1.0  0.60785  0.96489  0.43484  1.0000
  H   H1586     1.0  0.62847  0.70500  0.19508  1.0000
  C   C1329     1.0  0.63639  0.98763  0.04971  1.0000
  C   C1330     1.0  0.61621  0.69550  0.39170  1.0000
  H   H1587     1.0  0.63031  0.97390  0.39739  1.0000
  H   H1588     1.0  0.72698  0.79111  0.30302  1.0000
  C   C1331     1.0  0.68101  0.90747  0.47258  1.0000
  H   H1589     1.0  0.61707  0.94329  0.43084  1.0000
  H   H1590     1.0  0.69962  0.90183  0.38426  1.0000
  C   C1332     1.0  0.69397  0.85885  0.40016  1.0000
  H   H1591     1.0  0.67360  0.85960  0.44713  1.0000
  S   S365      1.0  0.62504  0.91147  0.46283  1.0000
  C   C1333     1.0  0.58910  0.98735  0.48023  1.0000
  C   C1334     1.0  0.73263  0.88394  0.01776  1.0000
  H   H1592     1.0  0.65330  0.97206  0.40753  1.0000
  H   H1593     1.0  0.61370  0.95229  0.46892  1.0000
  H   H1594     1.0  0.66043  0.70531  0.26020  1.0000
  Fe  Fe183     1.0  0.66427  0.67991  0.31317  1.0000
  C   C1335     1.0  0.71738  0.87738  0.41583  1.0000
  H   H1595     1.0  0.64850  0.68755  0.24419  1.0000
  H   H1596     1.0  0.69718  0.84931  0.41911  1.0000
  H   H1597     1.0  0.68054  0.88906  0.37629  1.0000
  C   C1336     1.0  0.51839  0.86791  0.47797  1.0000
  H   H1598     1.0  0.61745  0.87474  0.47667  1.0000
  H   H1599     1.0  0.58905  0.99591  0.43191  1.0000
  H   H1600     1.0  0.72204  0.89074  0.42108  1.0000
  H   H1601     1.0  0.70144  0.88314  0.35978  1.0000
  C   C1337     1.0  0.69482  0.88830  0.38127  1.0000
  H   H1602     1.0  0.75131  0.73859  0.43368  1.0000
  H   H1603     1.0  0.52426  0.85493  0.47891  1.0000
  H   H1604     1.0  0.55750  0.86286  0.16682  1.0000
  H   H1605     1.0  0.65911  0.77833  0.21187  1.0000
  H   H1606     1.0  0.68275  0.92084  0.48015  1.0000
  H   H1607     1.0  0.68267  0.70278  0.21992  1.0000
  H   H1608     1.0  0.60219  0.69951  0.39344  1.0000
  N   N89       1.0  0.61801  0.67674  0.38316  1.0000
  N   N90       1.0  0.57430  0.88540  0.16385  1.0000
  C   C1338     1.0  0.57161  0.90450  0.15886  1.0000
  C   C1339     1.0  0.58330  0.87845  0.13568  1.0000
  C   C1340     1.0  0.55676  0.87737  0.16624  1.0000
  C   C1341     1.0  0.58478  0.88102  0.19201  1.0000
  C   C1342     1.0  0.59199  0.89396  0.21182  1.0000
  C   C1343     1.0  0.58843  0.86327  0.19988  1.0000
  C   C1344     1.0  0.60214  0.88929  0.23781  1.0000
  C   C1345     1.0  0.59881  0.85878  0.22565  1.0000
  C   C1346     1.0  0.60562  0.87176  0.24460  1.0000
  H   H1609     1.0  0.58431  0.91128  0.15532  1.0000
  H   H1610     1.0  0.56373  0.90728  0.13742  1.0000
  H   H1611     1.0  0.56454  0.91065  0.17885  1.0000
  H   H1612     1.0  0.59649  0.88430  0.13312  1.0000
  H   H1613     1.0  0.57584  0.88151  0.11398  1.0000
  H   H1614     1.0  0.58512  0.86404  0.13636  1.0000
  H   H1615     1.0  0.54980  0.88180  0.18778  1.0000
  H   H1616     1.0  0.54843  0.88093  0.14569  1.0000
  H   H1617     1.0  0.59053  0.90779  0.20717  1.0000
  H   H1618     1.0  0.58372  0.85271  0.18564  1.0000
  H   H1619     1.0  0.60802  0.89935  0.25199  1.0000
  H   H1620     1.0  0.67986  0.85766  0.39412  1.0000
  H   H1621     1.0  0.61419  0.86822  0.26388  1.0000
  H   H1622     1.0  0.51722  0.88211  0.08625  1.0000
  C   C1347     1.0  0.64198  0.70058  0.18892  1.0000
  H   H1623     1.0  0.63785  0.70836  0.25085  1.0000
  H   H1624     1.0  0.60213  0.84519  0.23048  1.0000
  H   H1625     1.0  0.62261  0.70417  0.37403  1.0000
  C   C1348     1.0  0.65621  0.72708  0.21006  1.0000
  C   C1349     1.0  0.64479  0.73784  0.19181  1.0000
  C   C1350     1.0  0.66870  0.73577  0.22875  1.0000
  C   C1351     1.0  0.64592  0.75611  0.19246  1.0000
  C   C1352     1.0  0.66975  0.75402  0.22908  1.0000
  C   C1353     1.0  0.65835  0.76417  0.21109  1.0000
  C   C1354     1.0  0.73508  0.79170  0.32382  1.0000
  H   H1626     1.0  0.64489  0.68034  0.36943  1.0000
  C   C1355     1.0  0.68833  0.88352  0.43641  1.0000
  C   C1356     1.0  0.73735  0.79174  0.38006  1.0000
  H   H1627     1.0  0.62264  0.69855  0.41425  1.0000
  C   C1357     1.0  0.69049  0.90095  0.44698  1.0000
  H   H1628     1.0  0.63730  0.99833  0.42259  1.0000
  C   C1358     1.0  0.63551  0.97960  0.46177  1.0000
  H   H1629     1.0  0.63477  0.73249  0.17707  1.0000
  H   H1630     1.0  0.67760  0.72854  0.24372  1.0000
  H   H1631     1.0  0.63702  0.76412  0.17863  1.0000
  H   H1632     1.0  0.67933  0.76038  0.24373  1.0000
  C   C1359     1.0  0.66706  0.87959  0.47915  1.0000
  C   C1360     1.0  0.75056  0.83516  0.40028  1.0000
  H   H1633     1.0  0.52997  0.91049  0.48174  1.0000
  H   H1634     1.0  0.59805  0.67839  0.34767  1.0000
  H   H1635     1.0  0.73442  0.89999  0.05871  1.0000
  H   H1636     1.0  0.62014  0.67620  0.44745  1.0000
  C   C1361     1.0  0.64028  0.96578  0.40993  1.0000
  C   C1362     1.0  0.63647  0.99308  0.01857  1.0000
  H   H1637     1.0  0.73104  0.79137  0.40281  1.0000
  H   H1638     1.0  0.66138  0.95617  0.45935  1.0000
  C   C1363     1.0  0.61777  0.95562  0.44456  1.0000
  H   H1639     1.0  0.64951  0.93842  0.44204  1.0000
  H   H1640     1.0  0.75390  0.70928  0.44977  1.0000
  H   H1641     1.0  0.63618  0.99561  0.09773  1.0000
  H   H1642     1.0  0.75257  0.76970  0.44400  1.0000
  C   C1364     1.0  0.64820  0.95034  0.45681  1.0000
  H   H1643     1.0  0.64400  0.94534  0.48013  1.0000
  H   H1644     1.0  0.71849  0.88508  0.01646  1.0000
  C   C1365     1.0  0.75320  0.79368  0.32118  1.0000
  H   H1645     1.0  0.54306  0.88092  0.48332  1.0000
  C   C1366     1.0  0.52903  0.88251  0.48019  1.0000
  C   C1367     1.0  0.52161  0.89921  0.47922  1.0000
  C   C1368     1.0  0.66924  0.89683  0.48850  1.0000
  C   C1369     1.0  0.75550  0.79377  0.37773  1.0000
  S   S366      1.0  0.63396  0.89027  0.99833  1.0000
  C   C1370     1.0  0.61219  0.67506  0.35017  1.0000
  S   S367      1.0  0.68279  0.67384  0.27374  1.0000
  H   H1646     1.0  0.60806  0.85668  0.99996  1.0000
  H   H1647     1.0  0.75490  0.71261  0.40760  1.0000
  C   C1371     1.0  0.74182  0.87400  0.99577  1.0000
  H   H1648     1.0  0.64218  0.67237  0.40847  1.0000
  H   H1649     1.0  0.74492  0.85038  0.92079  1.0000
  Fe  Fe184     1.0  0.67481  0.68778  0.80158  1.0000
  S   S368      1.0  0.67449  0.71457  0.77741  1.0000
  H   H1650     1.0  0.72048  0.74838  0.81611  1.0000
  Fe  Fe185     1.0  0.59388  0.94716  0.54080  1.0000
  H   H1651     1.0  0.62505  0.70690  0.71282  1.0000
  S   S369      1.0  0.59089  0.97696  0.54278  1.0000
  Fe  Fe186     1.0  0.60944  0.91577  0.57946  1.0000
  S   S370      1.0  0.59974  0.89619  0.54446  1.0000
  S   S371      1.0  0.62268  0.91103  0.62726  1.0000
  C   C1372     1.0  0.71107  0.72080  0.84959  1.0000
  C   C1373     1.0  0.65682  0.67601  0.72098  1.0000
  Fe  Fe187     1.0  0.57461  0.91230  0.54462  1.0000
  S   S372      1.0  0.54872  0.89816  0.55217  1.0000
  S   S373      1.0  0.62023  0.93375  0.54213  1.0000
  S   S374      1.0  0.58391  0.93089  0.58112  1.0000
  Fe  Fe188     1.0  0.66054  0.85641  0.82720  1.0000
  S   S375      1.0  0.67798  0.86664  0.78884  1.0000
  S   S376      1.0  0.64286  0.87598  0.85241  1.0000
  Fe  Fe189     1.0  0.66970  0.81800  0.81263  1.0000
  S   S377      1.0  0.68770  0.82567  0.77311  1.0000
  S   S378      1.0  0.66393  0.79123  0.83469  1.0000
  Fe  Fe190     1.0  0.69752  0.84638  0.80622  1.0000
  S   S379      1.0  0.72660  0.85336  0.80960  1.0000
  Fe  Fe191     1.0  0.66666  0.84547  0.75903  1.0000
  S   S380      1.0  0.65615  0.84794  0.70861  1.0000
  S   S381      1.0  0.68068  0.83764  0.84650  1.0000
  S   S382      1.0  0.64809  0.83628  0.79660  1.0000
  C   C1374     1.0  0.60414  0.88135  0.71760  1.0000
  C   C1375     1.0  0.74187  0.85286  0.84117  1.0000
  C   C1376     1.0  0.73665  0.85088  0.87245  1.0000
  H   H1652     1.0  0.70910  0.73379  0.79139  1.0000
  H   H1653     1.0  0.61439  0.84809  0.90229  1.0000
  H   H1654     1.0  0.72304  0.84872  0.87794  1.0000
  C   C1377     1.0  0.52800  0.90903  0.55251  1.0000
  C   C1378     1.0  0.52643  0.92705  0.54724  1.0000
  C   C1379     1.0  0.63415  0.69772  0.72505  1.0000
  H   H1655     1.0  0.53807  0.93473  0.54345  1.0000
  C   C1380     1.0  0.72173  0.73560  0.80386  1.0000
  C   C1381     1.0  0.63606  0.88648  0.95766  1.0000
  C   C1382     1.0  0.62511  0.89466  0.93577  1.0000
  C   C1383     1.0  0.62738  0.89126  0.90361  1.0000
  C   C1384     1.0  0.64055  0.87966  0.89310  1.0000
  C   C1385     1.0  0.65150  0.87149  0.91500  1.0000
  C   C1386     1.0  0.64925  0.87490  0.94712  1.0000
  H   H1656     1.0  0.61495  0.90363  0.94360  1.0000
  H   H1657     1.0  0.61890  0.89767  0.88678  1.0000
  H   H1658     1.0  0.66175  0.86268  0.90725  1.0000
  H   H1659     1.0  0.65776  0.86856  0.96398  1.0000
  C   C1387     1.0  0.63251  0.89330  0.64881  1.0000
  C   C1388     1.0  0.63927  0.89657  0.67885  1.0000
  C   C1389     1.0  0.64671  0.88300  0.69731  1.0000
  C   C1390     1.0  0.64752  0.86584  0.68599  1.0000
  C   C1391     1.0  0.64092  0.86260  0.65580  1.0000
  C   C1392     1.0  0.63350  0.87618  0.63733  1.0000
  H   H1660     1.0  0.63867  0.90973  0.68803  1.0000
  H   H1661     1.0  0.65173  0.88579  0.72036  1.0000
  H   H1662     1.0  0.64154  0.84944  0.64667  1.0000
  H   H1663     1.0  0.62863  0.87337  0.61420  1.0000
  C   C1393     1.0  0.60970  0.85303  0.95016  1.0000
  H   H1664     1.0  0.63376  0.79359  0.92941  1.0000
  H   H1665     1.0  0.60160  0.86445  0.94510  1.0000
  H   H1666     1.0  0.71280  0.70353  0.79366  1.0000
  H   H1667     1.0  0.60964  0.89044  0.73417  1.0000
  C   C1394     1.0  0.67156  0.73574  0.79400  1.0000
  C   C1395     1.0  0.67462  0.75057  0.77518  1.0000
  C   C1396     1.0  0.67259  0.76762  0.78730  1.0000
  C   C1397     1.0  0.66729  0.77005  0.81838  1.0000
  C   C1398     1.0  0.66427  0.75521  0.83722  1.0000
  C   C1399     1.0  0.66643  0.73815  0.82518  1.0000
  H   H1668     1.0  0.67860  0.74889  0.75103  1.0000
  H   H1669     1.0  0.67493  0.77889  0.77248  1.0000
  H   H1670     1.0  0.66014  0.75692  0.86128  1.0000
  H   H1671     1.0  0.66393  0.72690  0.83993  1.0000
  H   H1672     1.0  0.68982  0.90149  0.97698  1.0000
  C   C1400     1.0  0.62854  0.82888  0.93169  1.0000
  C   C1401     1.0  0.61723  0.84344  0.92566  1.0000
  H   H1673     1.0  0.60605  0.83831  0.69925  1.0000
  N   N91       1.0  0.72540  0.72099  0.82608  1.0000
  C   C1402     1.0  0.60844  0.86364  0.71990  1.0000
  H   H1674     1.0  0.63662  0.79242  0.88793  1.0000
  H   H1675     1.0  0.61728  0.85904  0.73808  1.0000
  H   H1676     1.0  0.66457  0.68383  0.73776  1.0000
  S   S383      1.0  0.58276  0.92952  0.50418  1.0000
  C   C1403     1.0  0.63382  0.82583  0.87463  1.0000
  C   C1404     1.0  0.74243  0.72242  0.84232  1.0000
  H   H1677     1.0  0.71234  0.70961  0.86620  1.0000
  H   H1678     1.0  0.64058  0.81795  0.85626  1.0000
  H   H1679     1.0  0.65033  0.92601  0.92069  1.0000
  H   H1680     1.0  0.61615  0.80018  0.90407  1.0000
  H   H1681     1.0  0.61968  0.82573  0.86859  1.0000
  H   H1682     1.0  0.51377  0.88532  0.56142  1.0000
  H   H1683     1.0  0.66328  0.81135  0.89155  1.0000
  H   H1684     1.0  0.72503  0.69272  0.82327  1.0000
  H   H1685     1.0  0.63872  0.83944  0.87230  1.0000
  H   H1686     1.0  0.66029  0.81103  0.93272  1.0000
  H   H1687     1.0  0.64668  0.70789  0.66834  1.0000
  H   H1688     1.0  0.66162  0.90197  0.50796  1.0000
  N   N92       1.0  0.57593  0.88201  0.64366  1.0000
  C   C1405     1.0  0.57249  0.90119  0.64344  1.0000
  C   C1406     1.0  0.58469  0.87758  0.61365  1.0000
  C   C1407     1.0  0.55873  0.87322  0.64479  1.0000
  C   C1408     1.0  0.58694  0.87597  0.67017  1.0000
  H   H1689     1.0  0.63129  0.99356  0.53779  1.0000
  C   C1409     1.0  0.59143  0.85797  0.67348  1.0000
  C   C1410     1.0  0.59367  0.88754  0.69304  1.0000
  H   H1690     1.0  0.58491  0.90863  0.64127  1.0000
  H   H1691     1.0  0.56421  0.90526  0.62316  1.0000
  H   H1692     1.0  0.56547  0.90550  0.66497  1.0000
  H   H1693     1.0  0.59772  0.88389  0.61203  1.0000
  H   H1694     1.0  0.57678  0.88207  0.59321  1.0000
  H   H1695     1.0  0.58686  0.86330  0.61067  1.0000
  H   H1696     1.0  0.55196  0.87574  0.66749  1.0000
  H   H1697     1.0  0.54995  0.87794  0.62561  1.0000
  H   H1698     1.0  0.55999  0.85882  0.64192  1.0000
  H   H1699     1.0  0.58708  0.84842  0.65678  1.0000
  H   H1700     1.0  0.64259  0.70589  0.74029  1.0000
  S   S384      1.0  0.68586  0.68030  0.84845  1.0000
  C   C1411     1.0  0.66944  0.91477  0.95170  1.0000
  C   C1412     1.0  0.60213  0.85198  0.69787  1.0000
  C   C1413     1.0  0.63143  0.82441  0.96359  1.0000
  C   C1414     1.0  0.63061  0.80042  0.90709  1.0000
  C   C1415     1.0  0.59023  0.99244  0.51154  1.0000
  H   H1701     1.0  0.73637  0.70331  0.79185  1.0000
  Fe  Fe192     1.0  0.60871  0.91511  0.50724  1.0000
  C   C1416     1.0  0.72492  0.70448  0.80795  1.0000
  C   C1417     1.0  0.65637  0.81816  0.91113  1.0000
  H   H1702     1.0  0.69805  0.71958  0.83823  1.0000
  H   H1703     1.0  0.73206  0.73650  0.78549  1.0000
  C   C1418     1.0  0.59862  0.98200  0.98217  1.0000
  H   H1704     1.0  0.66166  0.83162  0.91254  1.0000
  H   H1705     1.0  0.59156  0.90152  0.69198  1.0000
  H   H1706     1.0  0.60163  0.96849  0.97664  1.0000
  C   C1419     1.0  0.51270  0.89927  0.55739  1.0000
  N   N93       1.0  0.69662  0.89721  0.86841  1.0000
  C   C1420     1.0  0.68932  0.90418  0.83857  1.0000
  C   C1421     1.0  0.71551  0.90162  0.86905  1.0000
  C   C1422     1.0  0.69503  0.87796  0.86779  1.0000
  C   C1423     1.0  0.68749  0.90395  0.89665  1.0000
  C   C1424     1.0  0.67151  0.91369  0.89513  1.0000
  C   C1425     1.0  0.69391  0.89979  0.92700  1.0000
  C   C1426     1.0  0.66276  0.91906  0.92234  1.0000
  C   C1427     1.0  0.62404  0.83430  0.98787  1.0000
  N   N94       1.0  0.64474  0.68723  0.70248  1.0000
  H   H1707     1.0  0.68963  0.91872  0.83785  1.0000
  H   H1708     1.0  0.69685  0.89933  0.81786  1.0000
  H   H1709     1.0  0.67559  0.89983  0.83486  1.0000
  H   H1710     1.0  0.71733  0.91596  0.87170  1.0000
  H   H1711     1.0  0.72238  0.89742  0.84715  1.0000
  H   H1712     1.0  0.72269  0.89483  0.88822  1.0000
  H   H1713     1.0  0.68103  0.87418  0.86677  1.0000
  H   H1714     1.0  0.70182  0.87225  0.84703  1.0000
  H   H1715     1.0  0.70083  0.87158  0.88879  1.0000
  H   H1716     1.0  0.66516  0.91686  0.87327  1.0000
  H   H1717     1.0  0.70560  0.89190  0.93005  1.0000
  C   C1428     1.0  0.63334  0.99434  0.51266  1.0000
  H   H1718     1.0  0.63964  0.81338  0.97002  1.0000
  H   H1719     1.0  0.73486  0.86742  0.97724  1.0000
  N   N95       1.0  0.63711  0.81862  0.90645  1.0000
  C   C1429     1.0  0.65525  0.69961  0.68351  1.0000
  C   C1430     1.0  0.61554  0.67544  0.68350  1.0000
  C   C1431     1.0  0.59975  0.99505  0.95873  1.0000
  H   H1720     1.0  0.62657  0.68916  0.74120  1.0000
  H   H1721     1.0  0.66299  0.70849  0.69867  1.0000
  C   C1432     1.0  0.68498  0.90516  0.95403  1.0000
  H   H1722     1.0  0.60360  0.99143  0.93521  1.0000
  C   C1433     1.0  0.61330  0.84865  0.98115  1.0000
  C   C1434     1.0  0.74914  0.85173  0.89672  1.0000
  H   H1723     1.0  0.71085  0.73303  0.86363  1.0000
  H   H1724     1.0  0.66488  0.69278  0.66813  1.0000
  H   H1725     1.0  0.66220  0.91838  0.97268  1.0000
  H   H1726     1.0  0.50877  0.94913  0.54272  1.0000
  C   C1435     1.0  0.74832  0.70884  0.86267  1.0000
  C   C1436     1.0  0.50977  0.93517  0.54677  1.0000
  H   H1727     1.0  0.63159  0.96688  0.50718  1.0000
  H   H1728     1.0  0.58790  0.67472  0.91042  1.0000
  H   H1729     1.0  0.60803  0.68302  0.70016  1.0000
  H   H1730     1.0  0.74061  0.69727  0.86665  1.0000
  C   C1437     1.0  0.75342  0.73723  0.83909  1.0000
  C   C1438     1.0  0.63414  0.67613  0.68168  1.0000
  H   H1731     1.0  0.75001  0.74833  0.82453  1.0000
  C   C1439     1.0  0.63358  0.97906  0.49483  1.0000
  H   H1732     1.0  0.85926  0.09843  0.27375  1.0000
  H   H1733     1.0  0.95283  0.01536  0.24522  1.0000
  Fe  Fe193     1.0  0.83607  0.31834  0.04184  1.0000
  S   S385      1.0  0.83310  0.29112  0.02043  1.0000
  H   H1734     1.0  0.94802  0.15380  0.22345  1.0000
  Fe  Fe194     1.0  0.84449  0.18858  0.06237  1.0000
  S   S386      1.0  0.82624  0.18143  0.02343  1.0000
  S   S387      1.0  0.85438  0.21577  0.07481  1.0000
  Fe  Fe195     1.0  0.84499  0.15157  0.08962  1.0000
  S   S388      1.0  0.82609  0.14229  0.05305  1.0000
  S   S389      1.0  0.85331  0.12986  0.12363  1.0000
  Fe  Fe196     1.0  0.84281  0.15672  0.01814  1.0000
  H   H1735     1.0  0.78009  0.22428  0.01832  1.0000
  Fe  Fe197     1.0  0.81108  0.16729  0.06119  1.0000
  S   S390      1.0  0.78114  0.17013  0.05933  1.0000
  S   S391      1.0  0.86237  0.16505  0.05450  1.0000
  S   S392      1.0  0.82861  0.17550  0.10040  1.0000
  Fe  Fe198     1.0  0.90438  0.09236  0.33065  1.0000
  S   S393      1.0  0.92194  0.11440  0.31690  1.0000
  S   S394      1.0  0.88369  0.09490  0.37023  1.0000
  Fe  Fe199     1.0  0.91941  0.06829  0.27811  1.0000
  S   S395      1.0  0.93763  0.08942  0.26145  1.0000
  S   S396      1.0  0.92375  0.04493  0.24552  1.0000
  Fe  Fe200     1.0  0.94334  0.09392  0.31198  1.0000
  S   S397      1.0  0.97049  0.09852  0.33246  1.0000
  Fe  Fe201     1.0  0.91479  0.10785  0.26720  1.0000
  S   S398      1.0  0.90985  0.13058  0.23340  1.0000
  S   S399      1.0  0.92628  0.07196  0.32905  1.0000
  S   S400      1.0  0.89608  0.08669  0.28069  1.0000
  C   C1440     1.0  0.99130  0.09406  0.31509  1.0000
  C   C1441     1.0  0.99315  0.08974  0.28343  1.0000
  H   H1736     1.0  0.84628  0.09010  0.03971  1.0000
  H   H1737     1.0  0.98163  0.08819  0.26918  1.0000
  C   C1442     1.0  0.87838  0.09570  0.01137  1.0000
  C   C1443     1.0  0.97522  0.02778  0.26340  1.0000
  N   N96       1.0  0.86757  0.21970  0.48019  1.0000
  H   H1738     1.0  0.79772  0.29441  0.07103  1.0000
  H   H1739     1.0  0.90089  0.02394  0.28644  1.0000
  C   C1444     1.0  0.90357  0.07693  0.48271  1.0000
  C   C1445     1.0  0.86933  0.13037  0.15363  1.0000
  C   C1446     1.0  0.87138  0.11568  0.17330  1.0000
  C   C1447     1.0  0.88380  0.11549  0.19762  1.0000
  C   C1448     1.0  0.89435  0.13003  0.20252  1.0000
  C   C1449     1.0  0.89235  0.14472  0.18282  1.0000
  C   C1450     1.0  0.87994  0.14490  0.15843  1.0000
  H   H1740     1.0  0.86323  0.10438  0.16982  1.0000
  H   H1741     1.0  0.88517  0.10408  0.21254  1.0000
  H   H1742     1.0  0.90040  0.15607  0.18646  1.0000
  H   H1743     1.0  0.87852  0.15630  0.14349  1.0000
  C   C1451     1.0  0.86783  0.13766  0.44261  1.0000
  C   C1452     1.0  0.85997  0.12120  0.44284  1.0000
  C   C1453     1.0  0.86498  0.10839  0.42056  1.0000
  C   C1454     1.0  0.87802  0.11168  0.39785  1.0000
  C   C1455     1.0  0.88591  0.12812  0.39770  1.0000
  C   C1456     1.0  0.88081  0.14097  0.41981  1.0000
  H   H1744     1.0  0.86156  0.09730  0.31565  1.0000
  H   H1745     1.0  0.85874  0.09575  0.42106  1.0000
  H   H1746     1.0  0.89599  0.13093  0.38059  1.0000
  H   H1747     1.0  0.88708  0.15358  0.41932  1.0000
  C   C1457     1.0  0.76523  0.16924  0.08996  1.0000
  C   C1458     1.0  0.76990  0.16858  0.12157  1.0000
  H   H1748     1.0  0.87145  0.12817  0.06432  1.0000
  H   H1749     1.0  0.78358  0.16812  0.12797  1.0000
  C   C1459     1.0  0.83922  0.27033  0.03599  1.0000
  C   C1460     1.0  0.84917  0.26856  0.06326  1.0000
  C   C1461     1.0  0.85370  0.25177  0.07472  1.0000
  C   C1462     1.0  0.84833  0.23657  0.05918  1.0000
  C   C1463     1.0  0.83847  0.23834  0.03182  1.0000
  C   C1464     1.0  0.83395  0.25513  0.02032  1.0000
  H   H1750     1.0  0.85340  0.28011  0.07549  1.0000
  H   H1751     1.0  0.86144  0.25055  0.09579  1.0000
  C   C1465     1.0  0.77244  0.33782  0.12318  1.0000
  S   S401      1.0  0.86216  0.15454  0.47007  1.0000
  C   C1466     1.0  0.96242  0.15278  0.22755  1.0000
  C   C1467     1.0  0.91932  0.01347  0.21631  1.0000
  C   C1468     1.0  0.91488  0.02364  0.24263  1.0000
  H   H1752     1.0  0.96678  0.10860  0.23143  1.0000
  H   H1753     1.0  0.81144  0.32889  0.46673  1.0000
  H   H1754     1.0  0.87613  0.14178  0.30084  1.0000
  H   H1755     1.0  0.89114  0.12309  0.04365  1.0000
  H   H1756     1.0  0.90749  0.06729  0.46542  1.0000
  C   C1469     1.0  0.95662  0.13443  0.27189  1.0000
  H   H1757     1.0  0.94764  0.12074  0.21909  1.0000
  H   H1758     1.0  0.95935  0.12183  0.28419  1.0000
  H   H1759     1.0  0.98581  0.13376  0.29997  1.0000
  H   H1760     1.0  0.96758  0.12277  0.19789  1.0000
  H   H1761     1.0  0.87402  0.07959  0.06663  1.0000
  H   H1762     1.0  0.89166  0.09470  0.07148  1.0000
  N   N97       1.0  0.96723  0.13595  0.24280  1.0000
  H   H1763     1.0  0.96625  0.16405  0.24236  1.0000
  H   H1764     1.0  0.80159  0.21719  0.11004  1.0000
  H   H1765     1.0  0.00522  0.09923  0.35779  1.0000
  H   H1766     1.0  0.96909  0.04067  0.26202  1.0000
  H   H1767     1.0  0.88528  0.20401  0.45221  1.0000
  N   N98       1.0  0.78915  0.22436  0.06637  1.0000
  C   C1470     1.0  0.79061  0.21866  0.03328  1.0000
  C   C1471     1.0  0.80218  0.21404  0.08467  1.0000
  C   C1472     1.0  0.77151  0.21983  0.07840  1.0000
  C   C1473     1.0  0.79162  0.24352  0.06834  1.0000
  H   H1768     1.0  0.78510  0.33139  0.12328  1.0000
  H   H1769     1.0  0.85724  0.19409  0.46985  1.0000
  H   H1770     1.0  0.82760  0.26693  0.47418  1.0000
  H   H1771     1.0  0.80630  0.13049  0.23316  1.0000
  H   H1772     1.0  0.83460  0.22678  0.01928  1.0000
  C   C1474     1.0  0.80691  0.26937  0.08779  1.0000
  H   H1773     1.0  0.78966  0.20416  0.03114  1.0000
  C   C1475     1.0  0.85153  0.10356  0.04141  1.0000
  H   H1774     1.0  0.94232  0.13480  0.26693  1.0000
  S   S402      1.0  0.86040  0.33472  0.03990  1.0000
  S   S403      1.0  0.82763  0.32756  0.08959  1.0000
  H   H1775     1.0  0.76937  0.20544  0.07787  1.0000
  C   C1476     1.0  0.87668  0.12190  0.04271  1.0000
  H   H1776     1.0  0.89359  0.22494  0.46264  1.0000
  H   H1777     1.0  0.82261  0.14780  0.19381  1.0000
  H   H1778     1.0  0.84644  0.10914  0.06381  1.0000
  H   H1779     1.0  0.85363  0.15474  0.20252  1.0000
  H   H1780     1.0  0.83477  0.23612  0.46933  1.0000
  H   H1781     1.0  0.82087  0.11954  0.28030  1.0000
  N   N99       1.0  0.87098  0.10350  0.04031  1.0000
  C   C1477     1.0  0.87729  0.09370  0.06825  1.0000
  H   H1782     1.0  0.92723  0.01912  0.19787  1.0000
  H   H1783     1.0  0.87128  0.09887  0.09028  1.0000
  H   H1784     1.0  0.88153  0.12256  0.27818  1.0000
  C   C1478     1.0  0.79578  0.28037  0.07083  1.0000
  H   H1785     1.0  0.88053  0.12138  0.31993  1.0000
  H   H1786     1.0  0.87698  0.22345  0.43319  1.0000
  H   H1787     1.0  0.96888  0.15439  0.20437  1.0000
  C   C1479     1.0  0.96214  0.12142  0.22190  1.0000
  C   C1480     1.0  0.84520  0.24468  0.47613  1.0000
  H   H1788     1.0  0.84997  0.11833  0.46006  1.0000
  H   H1789     1.0  0.84765  0.21158  0.44770  1.0000
  C   C1481     1.0  0.99828  0.13530  0.22280  1.0000
  H   H1790     1.0  0.77394  0.28193  0.03955  1.0000
  H   H1791     1.0  0.84212  0.20859  0.48863  1.0000
  C   C1482     1.0  0.78246  0.27328  0.05292  1.0000
  H   H1792     1.0  0.95909  0.14535  0.28833  1.0000
  C   C1483     1.0  0.99371  0.13426  0.27894  1.0000
  H   H1793     1.0  0.89978  0.09730  0.44854  1.0000
  H   H1794     1.0  0.79982  0.19974  0.08287  1.0000
  H   H1795     1.0  0.86893  0.14417  0.24839  1.0000
  H   H1796     1.0  0.99368  0.13618  0.19897  1.0000
  C   C1484     1.0  0.84086  0.26245  0.47879  1.0000
  N   N100      1.0  0.85532  0.12301  0.29718  1.0000
  C   C1485     1.0  0.84680  0.12942  0.32632  1.0000
  C   C1486     1.0  0.85405  0.10366  0.29629  1.0000
  C   C1487     1.0  0.87417  0.12743  0.29900  1.0000
  C   C1488     1.0  0.84642  0.13062  0.26943  1.0000
  C   C1489     1.0  0.82843  0.12728  0.26403  1.0000
  C   C1490     1.0  0.85524  0.14096  0.24663  1.0000
  C   C1491     1.0  0.81995  0.13350  0.23714  1.0000
  C   C1492     1.0  0.84658  0.14718  0.21994  1.0000
  C   C1493     1.0  0.82906  0.14331  0.21502  1.0000
  H   H1797     1.0  0.84708  0.14395  0.32753  1.0000
  H   H1798     1.0  0.83293  0.12535  0.32829  1.0000
  H   H1799     1.0  0.85353  0.12415  0.34759  1.0000
  H   H1800     1.0  0.84038  0.09907  0.29885  1.0000
  H   H1801     1.0  0.76987  0.25029  0.03735  1.0000
  C   C1494     1.0  0.88148  0.21797  0.45603  1.0000
  C   C1495     1.0  0.96594  0.01310  0.25391  1.0000
  C   C1496     1.0  0.90442  0.01629  0.26608  1.0000
  H   H1802     1.0  0.80982  0.33108  0.42480  1.0000
  C   C1497     1.0  0.89923  0.09388  0.47324  1.0000
  H   H1803     1.0  0.81752  0.27496  0.10107  1.0000
  H   H1804     1.0  0.82631  0.25635  0.99914  1.0000
  H   H1805     1.0  0.76977  0.22419  0.10304  1.0000
  H   H1806     1.0  0.90568  0.09833  0.02533  1.0000
  C   C1498     1.0  0.78032  0.25515  0.05173  1.0000
  C   C1499     1.0  0.99215  0.02591  0.27500  1.0000
  H   H1807     1.0  0.81459  0.24351  0.09931  1.0000
  C   C1500     1.0  0.80503  0.25121  0.08652  1.0000
  H   H1808     1.0  0.81576  0.21618  0.07596  1.0000
  C   C1501     1.0  0.98635  0.13522  0.24842  1.0000
  H   H1809     1.0  0.84582  0.11181  0.02231  1.0000
  H   H1810     1.0  0.76083  0.22581  0.06424  1.0000
  H   H1811     1.0  0.80338  0.22255  0.02295  1.0000
  H   H1812     1.0  0.76058  0.16779  0.16939  1.0000
  C   C1502     1.0  0.85297  0.20809  0.47113  1.0000
  C   C1503     1.0  0.86234  0.23836  0.48320  1.0000
  C   C1504     1.0  0.89680  0.09400  0.00745  1.0000
  H   H1813     1.0  0.87201  0.12975  0.02228  1.0000
  H   H1814     1.0  0.76229  0.32269  0.16196  1.0000
  C   C1505     1.0  0.75680  0.16843  0.14503  1.0000
  H   H1815     1.0  0.89080  0.11923  0.48610  1.0000
  H   H1816     1.0  0.99923  0.03735  0.28258  1.0000
  C   C1506     1.0  0.75943  0.33286  0.14499  1.0000
  H   H1817     1.0  0.82067  0.33472  0.19377  1.0000
  H   H1818     1.0  0.84965  0.28800  0.49227  1.0000
  H   H1819     1.0  0.81187  0.33491  0.15485  1.0000
  C   C1507     1.0  0.99986  0.00932  0.27704  1.0000
  H   H1820     1.0  0.86698  0.30116  0.99596  1.0000
  C   C1508     1.0  0.85325  0.27436  0.48892  1.0000
  C   C1509     1.0  0.81397  0.33780  0.44652  1.0000
  C   C1510     1.0  0.87469  0.25094  0.49301  1.0000
  H   H1821     1.0  0.88140  0.15914  0.89714  1.0000
  H   H1822     1.0  0.88674  0.14223  0.84989  1.0000
  Fe  Fe202     1.0  0.85074  0.31938  0.56754  1.0000
  S   S404      1.0  0.86200  0.29217  0.57797  1.0000
  C   C1511     1.0  0.78712  0.24048  0.59544  1.0000
  Fe  Fe203     1.0  0.83336  0.19091  0.55383  1.0000
  S   S405      1.0  0.82041  0.17424  0.51777  1.0000
  S   S406      1.0  0.82576  0.21963  0.54676  1.0000
  Fe  Fe204     1.0  0.84880  0.15823  0.58675  1.0000
  S   S407      1.0  0.83629  0.13958  0.55295  1.0000
  S   S408      1.0  0.87104  0.15131  0.62034  1.0000
  Fe  Fe205     1.0  0.84522  0.15809  0.51479  1.0000
  S   S409      1.0  0.84704  0.14179  0.97153  1.0000
  Fe  Fe206     1.0  0.81238  0.15739  0.55871  1.0000
  S   S410      1.0  0.78331  0.15041  0.55885  1.0000
  S   S411      1.0  0.85862  0.17603  0.54849  1.0000
  S   S412      1.0  0.82440  0.17473  0.59489  1.0000
  Fe  Fe207     1.0  0.90856  0.09163  0.83407  1.0000
  S   S413      1.0  0.91501  0.10756  0.79080  1.0000
  S   S414      1.0  0.90517  0.10596  0.88148  1.0000
  Fe  Fe208     1.0  0.91322  0.05649  0.79738  1.0000
  S   S415      1.0  0.91921  0.07044  0.75249  1.0000
  S   S416      1.0  0.91638  0.02665  0.80151  1.0000
  Fe  Fe209     1.0  0.93646  0.08757  0.78173  1.0000
  S   S417      1.0  0.96364  0.09140  0.76042  1.0000
  Fe  Fe210     1.0  0.89736  0.08903  0.76547  1.0000
  S   S418      1.0  0.87449  0.09666  0.73369  1.0000
  S   S419      1.0  0.93143  0.07288  0.82633  1.0000
  S   S420      1.0  0.88994  0.07382  0.80913  1.0000
  C   C1512     1.0  0.98363  0.09216  0.78137  1.0000
  C   C1513     1.0  0.75952  0.15791  0.64403  1.0000
  C   C1514     1.0  0.98431  0.09791  0.81235  1.0000
  H   H1823     1.0  0.88592  0.29634  0.97293  1.0000
  H   H1824     1.0  0.97232  0.10134  0.82457  1.0000
  H   H1825     1.0  0.89452  0.29597  0.92050  1.0000
  C   C1515     1.0  0.90624  0.01621  0.74191  1.0000
  H   H1826     1.0  0.83664  0.12603  0.79398  1.0000
  H   H1827     1.0  0.90236  0.02969  0.73785  1.0000
  H   H1828     1.0  0.82748  0.16603  0.87268  1.0000
  C   C1516     1.0  0.87166  0.13594  0.65162  1.0000
  C   C1517     1.0  0.88732  0.13372  0.66849  1.0000
  C   C1518     1.0  0.88850  0.12166  0.69351  1.0000
  C   C1519     1.0  0.87397  0.11168  0.70188  1.0000
  C   C1520     1.0  0.85832  0.11389  0.68497  1.0000
  C   C1521     1.0  0.85716  0.12591  0.65989  1.0000
  H   H1829     1.0  0.89861  0.14143  0.66227  1.0000
  H   H1830     1.0  0.90061  0.12010  0.70630  1.0000
  H   H1831     1.0  0.84701  0.10623  0.69128  1.0000
  H   H1832     1.0  0.84503  0.12748  0.64715  1.0000
  C   C1522     1.0  0.86355  0.13159  0.94748  1.0000
  C   C1523     1.0  0.88151  0.13356  0.95265  1.0000
  C   C1524     1.0  0.89394  0.12564  0.93228  1.0000
  C   C1525     1.0  0.88870  0.11557  0.90643  1.0000
  C   C1526     1.0  0.87074  0.11334  0.90163  1.0000
  C   C1527     1.0  0.85832  0.12136  0.92184  1.0000
  C   C1528     1.0  0.98572  0.13200  0.75118  1.0000
  H   H1833     1.0  0.90775  0.12739  0.93653  1.0000
  H   H1834     1.0  0.86639  0.10530  0.88257  1.0000
  H   H1835     1.0  0.84450  0.11965  0.91753  1.0000
  H   H1836     1.0  0.85370  0.09141  0.98630  1.0000
  C   C1529     1.0  0.77245  0.15570  0.62058  1.0000
  H   H1837     1.0  0.85183  0.17063  0.90949  1.0000
  H   H1838     1.0  0.78617  0.15590  0.62666  1.0000
  C   C1530     1.0  0.85124  0.27212  0.57113  1.0000
  C   C1531     1.0  0.85983  0.25628  0.57869  1.0000
  C   C1532     1.0  0.85207  0.24005  0.57230  1.0000
  C   C1533     1.0  0.83573  0.23953  0.55775  1.0000
  C   C1534     1.0  0.82699  0.25536  0.55076  1.0000
  C   C1535     1.0  0.83462  0.27158  0.55761  1.0000
  H   H1839     1.0  0.87261  0.25660  0.58949  1.0000
  H   H1840     1.0  0.85879  0.22801  0.57854  1.0000
  C   C1536     1.0  0.85111  0.32300  0.95803  1.0000
  H   H1841     1.0  0.82784  0.28366  0.55180  1.0000
  H   H1842     1.0  0.83199  0.14983  0.82458  1.0000
  N   N101      1.0  0.88743  0.11507  0.55180  1.0000
  C   C1537     1.0  0.90157  0.11738  0.57508  1.0000
  C   C1538     1.0  0.88308  0.13260  0.53862  1.0000
  C   C1539     1.0  0.96478  0.04781  0.78148  1.0000
  N   N102      1.0  0.86577  0.31119  0.94863  1.0000
  C   C1540     1.0  0.78698  0.25866  0.59886  1.0000
  C   C1541     1.0  0.78655  0.20356  0.61917  1.0000
  C   C1542     1.0  0.77209  0.23037  0.60229  1.0000
  H   H1843     1.0  0.89913  0.07682  0.93418  1.0000
  C   C1543     1.0  0.96528  0.03061  0.82886  1.0000
  C   C1544     1.0  0.76757  0.15300  0.58947  1.0000
  H   H1844     1.0  0.89794  0.12747  0.59284  1.0000
  C   C1545     1.0  0.77189  0.26735  0.60900  1.0000
  H   H1845     1.0  0.79985  0.20802  0.61237  1.0000
  H   H1846     1.0  0.87899  0.14197  0.55719  1.0000
  H   H1847     1.0  0.88231  0.31817  0.98709  1.0000
  N   N103      1.0  0.77269  0.21109  0.59874  1.0000
  H   H1848     1.0  0.86661  0.11828  0.58578  1.0000
  C   C1546     1.0  0.85793  0.29511  0.93573  1.0000
  C   C1547     1.0  0.89405  0.10641  0.49527  1.0000
  H   H1849     1.0  0.77705  0.19201  0.56219  1.0000
  H   H1850     1.0  0.91391  0.12159  0.56350  1.0000
  H   H1851     1.0  0.91823  0.08634  0.97717  1.0000
  H   H1852     1.0  0.89451  0.13853  0.52653  1.0000
  H   H1853     1.0  0.99144  0.14505  0.79419  1.0000
  C   C1548     1.0  0.00061  0.10001  0.82712  1.0000
  C   C1549     1.0  0.87528  0.08307  0.95890  1.0000
  H   H1854     1.0  0.85088  0.29800  0.91350  1.0000
  H   H1855     1.0  0.97178  0.13132  0.75592  1.0000
  H   H1856     1.0  0.87874  0.19911  0.50874  1.0000
  C   C1550     1.0  0.90184  0.33404  0.88219  1.0000
  H   H1857     1.0  0.96814  0.04241  0.84298  1.0000
  H   H1858     1.0  0.84834  0.28926  0.95248  1.0000
  H   H1859     1.0  0.88588  0.14142  0.97202  1.0000
  C   C1551     1.0  0.91345  0.01131  0.77071  1.0000
  H   H1860     1.0  0.89719  0.08071  0.56081  1.0000
  H   H1861     1.0  0.95038  0.04675  0.77798  1.0000
  C   C1552     1.0  0.77683  0.20648  0.56579  1.0000
  H   H1862     1.0  0.85598  0.33485  0.96998  1.0000
  C   C1553     1.0  0.87449  0.21306  0.51043  1.0000
  C   C1554     1.0  0.90397  0.31672  0.89193  1.0000
  C   C1555     1.0  0.96602  0.01657  0.77877  1.0000
  H   H1863     1.0  0.00102  0.10491  0.85083  1.0000
  H   H1864     1.0  0.96657  0.05970  0.79587  1.0000
  C   C1556     1.0  0.99260  0.12458  0.72401  1.0000
  C   C1557     1.0  0.87778  0.31916  0.92540  1.0000
  H   H1865     1.0  0.86429  0.21401  0.52906  1.0000
  C   C1558     1.0  0.86779  0.09010  0.98608  1.0000
  S   S421      1.0  0.83451  0.32524  0.52518  1.0000
  H   H1866     1.0  0.97086  0.05037  0.75819  1.0000
  N   N104      1.0  0.86327  0.13336  0.80408  1.0000
  C   C1559     1.0  0.87831  0.13996  0.78549  1.0000
  C   C1560     1.0  0.86740  0.11538  0.81507  1.0000
  C   C1561     1.0  0.84808  0.13234  0.78255  1.0000
  C   C1562     1.0  0.86007  0.14460  0.83171  1.0000
  C   C1563     1.0  0.87378  0.14780  0.85324  1.0000
  C   C1564     1.0  0.84327  0.15168  0.83926  1.0000
  C   C1565     1.0  0.87085  0.15739  0.88057  1.0000
  C   C1566     1.0  0.84046  0.16111  0.86689  1.0000
  C   C1567     1.0  0.85419  0.16386  0.88757  1.0000
  H   H1867     1.0  0.89082  0.13936  0.79861  1.0000
  H   H1868     1.0  0.88059  0.13202  0.76397  1.0000
  H   H1869     1.0  0.87603  0.15376  0.77801  1.0000
  H   H1870     1.0  0.85657  0.11008  0.82966  1.0000
  H   H1871     1.0  0.87955  0.11476  0.82934  1.0000
  H   H1872     1.0  0.86939  0.10626  0.79520  1.0000
  H   H1873     1.0  0.84414  0.14551  0.77366  1.0000
  H   H1874     1.0  0.85120  0.12418  0.76158  1.0000
  H   H1875     1.0  0.79916  0.23437  0.58752  1.0000
  H   H1876     1.0  0.81433  0.25511  0.53954  1.0000
  N   N105      1.0  0.97233  0.03192  0.79652  1.0000
  H   H1877     1.0  0.87413  0.09633  0.58158  1.0000
  H   H1878     1.0  0.77184  0.28147  0.61157  1.0000
  H   H1879     1.0  0.95074  0.02932  0.82896  1.0000
  C   C1568     1.0  0.87160  0.10863  0.56829  1.0000
  H   H1880     1.0  0.91491  0.30902  0.88306  1.0000
  C   C1569     1.0  0.87570  0.30650  0.97730  1.0000
  H   H1881     1.0  0.76347  0.15991  0.66803  1.0000
  S   S422      1.0  0.83344  0.33501  0.60037  1.0000
  H   H1882     1.0  0.90618  0.05920  0.52160  1.0000
  H   H1883     1.0  0.95144  0.01628  0.77795  1.0000
  H   H1884     1.0  0.87201  0.13195  0.52182  1.0000
  C   C1570     1.0  0.99683  0.13964  0.77276  1.0000
  H   H1885     1.0  0.86083  0.10611  0.55147  1.0000
  H   H1886     1.0  0.86784  0.28471  0.93097  1.0000
  H   H1887     1.0  0.78700  0.18902  0.61784  1.0000
  H   H1888     1.0  0.86702  0.07927  0.93959  1.0000
  H   H1889     1.0  0.79871  0.26606  0.59372  1.0000
  C   C1571     1.0  0.89765  0.08485  0.53659  1.0000
  C   C1572     1.0  0.89306  0.10224  0.52776  1.0000
  C   C1573     1.0  0.99968  0.04758  0.81249  1.0000
  C   C1574     1.0  0.99936  0.08787  0.76580  1.0000
  H   H1890     1.0  0.84305  0.32720  0.93763  1.0000
  H   H1891     1.0  0.88604  0.22036  0.51870  1.0000
  C   C1575     1.0  0.75596  0.20247  0.60712  1.0000
  C   C1576     1.0  0.00310  0.02008  0.78505  1.0000
  H   H1892     1.0  0.90444  0.10521  0.58851  1.0000
  C   C1577     1.0  0.99168  0.03315  0.79767  1.0000
  H   H1893     1.0  0.78430  0.20717  0.64409  1.0000
  H   H1894     1.0  0.78994  0.21112  0.55834  1.0000
  H   H1895     1.0  0.84204  0.31657  0.97482  1.0000
  H   H1896     1.0  0.99895  0.08338  0.74184  1.0000
  H   H1897     1.0  0.97060  0.01692  0.75401  1.0000
  C   C1578     1.0  0.89218  0.30936  0.91327  1.0000
  C   C1579     1.0  0.89340  0.08166  0.95582  1.0000
  C   C1580     1.0  0.75690  0.23964  0.61280  1.0000
  H   H1898     1.0  0.98385  0.11822  0.70782  1.0000
  H   H1899     1.0  0.97089  0.01906  0.84138  1.0000
  C   C1581     1.0  0.90414  0.08712  0.98002  1.0000
  H   H1900     1.0  0.99191  0.05805  0.82267  1.0000
  H   H1901     1.0  0.88796  0.24721  0.49889  1.0000
  H   H1902     1.0  0.89788  0.00756  0.69638  1.0000
  C   C1582     1.0  0.87010  0.26861  0.49615  1.0000
  H   H1903     1.0  0.75676  0.18809  0.60360  1.0000
  C   C1583     1.0  0.90281  0.07243  0.51433  1.0000
  H   H1904     1.0  0.87948  0.27787  0.50511  1.0000
  H   H1905     1.0  0.76704  0.21228  0.54945  1.0000
  H   H1906     1.0  0.99831  0.00858  0.77348  1.0000
  C   C1584     1.0  0.87599  0.33679  0.91489  1.0000
  C   C1585     1.0  0.75689  0.25787  0.61595  1.0000
  Fe  Fe211     1.0  0.84369  0.35599  0.01776  1.0000
  S   S423      1.0  0.86245  0.35109  0.46678  1.0000
  H   H1907     1.0  0.98722  0.64078  0.15718  1.0000
  C   C1586     1.0  0.79731  0.38329  0.37724  1.0000
  S   S424      1.0  0.86412  0.66264  0.02158  1.0000
  C   C1587     1.0  0.79223  0.35502  0.21123  1.0000
  S   S425      1.0  0.83577  0.36799  0.06416  1.0000
  Fe  Fe212     1.0  0.94709  0.59539  0.17672  1.0000
  S   S426      1.0  0.93274  0.57775  0.14401  1.0000
  S   S427      1.0  0.97461  0.60044  0.15823  1.0000
  Fe  Fe213     1.0  0.91630  0.59596  0.22266  1.0000
  S   S428      1.0  0.90045  0.57784  0.19287  1.0000
  S   S429      1.0  0.90613  0.60095  0.27210  1.0000
  Fe  Fe214     1.0  0.92549  0.56246  0.18706  1.0000
  S   S430      1.0  0.93018  0.53299  0.18368  1.0000
  Fe  Fe215     1.0  0.90907  0.59490  0.15230  1.0000
  S   S431      1.0  0.88892  0.59996  0.11306  1.0000
  S   S432      1.0  0.94089  0.57933  0.21926  1.0000
  S   S433      1.0  0.92382  0.61388  0.18254  1.0000
  Fe  Fe216     1.0  0.90811  0.41400  0.25784  1.0000
  S   S434      1.0  0.89531  0.43298  0.29147  1.0000
  S   S435      1.0  0.89113  0.41064  0.21412  1.0000
  Fe  Fe217     1.0  0.94172  0.41227  0.29671  1.0000
  S   S436      1.0  0.93062  0.43122  0.33173  1.0000
  S   S437      1.0  0.96841  0.40266  0.31440  1.0000
  Fe  Fe218     1.0  0.90589  0.41564  0.33000  1.0000
  S   S438      1.0  0.89160  0.41216  0.37732  1.0000
  Fe  Fe219     1.0  0.92107  0.44688  0.29062  1.0000
  S   S439      1.0  0.92283  0.47670  0.29354  1.0000
  S   S440      1.0  0.91719  0.39571  0.29657  1.0000
  S   S441      1.0  0.93362  0.42897  0.25534  1.0000
  Fe  Fe220     1.0  0.84724  0.65989  0.38508  1.0000
  S   S442      1.0  0.83085  0.63931  0.40911  1.0000
  H   H1908     1.0  0.78661  0.38826  0.36303  1.0000
  C   C1588     1.0  0.91217  0.38403  0.47231  1.0000
  H   H1909     1.0  0.84941  0.61110  0.29808  1.0000
  Fe  Fe221     1.0  0.84388  0.64839  0.45389  1.0000
  S   S443      1.0  0.82299  0.66887  0.46241  1.0000
  H   H1910     1.0  0.91964  0.38620  0.36740  1.0000
  C   C1589     1.0  0.75853  0.65534  0.33101  1.0000
  Fe  Fe222     1.0  0.81311  0.34926  0.06504  1.0000
  C   C1590     1.0  0.98933  0.40449  0.29623  1.0000
  H   H1911     1.0  0.98498  0.54189  0.13407  1.0000
  C   C1591     1.0  0.99128  0.40671  0.26387  1.0000
  S   S444      1.0  0.78551  0.35949  0.07599  1.0000
  H   H1912     1.0  0.97980  0.40772  0.24921  1.0000
  C   C1592     1.0  0.99454  0.59712  0.17856  1.0000
  H   H1913     1.0  0.98572  0.51577  0.20738  1.0000
  C   C1593     1.0  0.00081  0.63967  0.14989  1.0000
  H   H1914     1.0  0.98468  0.60509  0.22360  1.0000
  S   S445      1.0  0.86774  0.34610  0.13019  1.0000
  C   C1594     1.0  0.89365  0.61803  0.28959  1.0000
  C   C1595     1.0  0.88715  0.61553  0.32013  1.0000
  C   C1596     1.0  0.87678  0.62846  0.33487  1.0000
  C   C1597     1.0  0.87281  0.64406  0.31914  1.0000
  C   C1598     1.0  0.87957  0.64673  0.28880  1.0000
  C   C1599     1.0  0.88999  0.63381  0.27410  1.0000
  H   H1915     1.0  0.89002  0.60341  0.33238  1.0000
  H   H1916     1.0  0.87175  0.62629  0.35828  1.0000
  H   H1917     1.0  0.80091  0.34743  0.22601  1.0000
  H   H1918     1.0  0.89523  0.63606  0.25091  1.0000
  C   C1600     1.0  0.88321  0.61751  0.08689  1.0000
  C   C1601     1.0  0.87243  0.61400  0.06102  1.0000
  C   C1602     1.0  0.86684  0.62748  0.04040  1.0000
  C   C1603     1.0  0.87167  0.64482  0.04566  1.0000
  C   C1604     1.0  0.88236  0.64836  0.07169  1.0000
  C   C1605     1.0  0.88821  0.63483  0.09200  1.0000
  H   H1919     1.0  0.86838  0.60071  0.05680  1.0000
  H   H1920     1.0  0.98531  0.51484  0.16529  1.0000
  H   H1921     1.0  0.88618  0.66169  0.07614  1.0000
  H   H1922     1.0  0.89642  0.63784  0.11176  1.0000
  C   C1606     1.0  0.92942  0.51783  0.21525  1.0000
  C   C1607     1.0  0.93362  0.50016  0.20955  1.0000
  C   C1608     1.0  0.93240  0.48753  0.23359  1.0000
  C   C1609     1.0  0.92647  0.49235  0.26337  1.0000
  C   C1610     1.0  0.92300  0.51013  0.26941  1.0000
  C   C1611     1.0  0.92453  0.52285  0.24552  1.0000
  H   H1923     1.0  0.93767  0.49619  0.18632  1.0000
  H   H1924     1.0  0.93593  0.47404  0.22905  1.0000
  H   H1925     1.0  0.91867  0.51406  0.29252  1.0000
  H   H1926     1.0  0.92142  0.53642  0.25034  1.0000
  C   C1612     1.0  0.87070  0.36833  0.44260  1.0000
  C   C1613     1.0  0.87779  0.36415  0.41300  1.0000
  C   C1614     1.0  0.88420  0.37728  0.39269  1.0000
  C   C1615     1.0  0.88355  0.39487  0.40164  1.0000
  C   C1616     1.0  0.87622  0.39906  0.43105  1.0000
  C   C1617     1.0  0.86984  0.38592  0.45141  1.0000
  C   C1618     1.0  0.98971  0.48544  0.29670  1.0000
  H   H1927     1.0  0.88955  0.37377  0.37007  1.0000
  H   H1928     1.0  0.87555  0.41260  0.43826  1.0000
  H   H1929     1.0  0.86433  0.38943  0.47393  1.0000
  C   C1619     1.0  0.87443  0.36427  0.15280  1.0000
  C   C1620     1.0  0.88449  0.36125  0.17986  1.0000
  C   C1621     1.0  0.88981  0.37523  0.19891  1.0000
  C   C1622     1.0  0.88502  0.39241  0.19112  1.0000
  C   C1623     1.0  0.87483  0.39541  0.16419  1.0000
  C   C1624     1.0  0.86961  0.38145  0.14505  1.0000
  H   H1930     1.0  0.81708  0.39631  0.34986  1.0000
  H   H1931     1.0  0.89764  0.37271  0.21952  1.0000
  H   H1932     1.0  0.87108  0.40864  0.15788  1.0000
  H   H1933     1.0  0.86200  0.38401  0.12420  1.0000
  C   C1625     1.0  0.98684  0.45444  0.28855  1.0000
  H   H1934     1.0  0.97864  0.44296  0.28700  1.0000
  C   C1626     1.0  0.94283  0.40550  0.39848  1.0000
  H   H1935     1.0  0.83608  0.36616  0.42695  1.0000
  C   C1627     1.0  0.95935  0.37873  0.40051  1.0000
  H   H1936     1.0  0.96570  0.38185  0.42317  1.0000
  H   H1937     1.0  0.96776  0.38403  0.38129  1.0000
  H   H1938     1.0  0.95965  0.36430  0.39770  1.0000
  N   N106      1.0  0.85862  0.61695  0.19039  1.0000
  C   C1628     1.0  0.85207  0.62652  0.16231  1.0000
  C   C1629     1.0  0.87750  0.62078  0.19350  1.0000
  C   C1630     1.0  0.85658  0.59798  0.18432  1.0000
  C   C1631     1.0  0.84948  0.62179  0.21981  1.0000
  C   C1632     1.0  0.85373  0.61308  0.24829  1.0000
  C   C1633     1.0  0.83671  0.63548  0.22148  1.0000
  C   C1634     1.0  0.00511  0.63945  0.11819  1.0000
  H   H1939     1.0  0.80574  0.37698  0.48112  1.0000
  H   H1940     1.0  0.81934  0.65072  0.25097  1.0000
  H   H1941     1.0  0.85433  0.64084  0.16406  1.0000
  H   H1942     1.0  0.85901  0.62220  0.14057  1.0000
  H   H1943     1.0  0.83790  0.62418  0.15846  1.0000
  H   H1944     1.0  0.88481  0.61785  0.17150  1.0000
  H   H1945     1.0  0.88382  0.61294  0.21243  1.0000
  H   H1946     1.0  0.87955  0.63482  0.19901  1.0000
  H   H1947     1.0  0.84251  0.59444  0.18320  1.0000
  H   H1948     1.0  0.86284  0.59403  0.16175  1.0000
  H   H1949     1.0  0.86283  0.58966  0.20260  1.0000
  H   H1950     1.0  0.86372  0.60293  0.24918  1.0000
  H   H1951     1.0  0.83268  0.64293  0.20119  1.0000
  H   H1952     1.0  0.76276  0.65370  0.30698  1.0000
  H   H1953     1.0  0.82763  0.63520  0.29968  1.0000
  H   H1954     1.0  0.77006  0.34978  0.24130  1.0000
  H   H1955     1.0  0.94078  0.38557  0.34878  1.0000
  H   H1956     1.0  0.83462  0.33925  0.16146  1.0000
  C   C1635     1.0  0.93319  0.38079  0.36936  1.0000
  H   H1957     1.0  0.78031  0.36958  0.40769  1.0000
  C   C1636     1.0  0.82080  0.36853  0.14228  1.0000
  C   C1637     1.0  0.78594  0.35113  0.45650  1.0000
  C   C1638     1.0  0.79838  0.36291  0.18314  1.0000
  C   C1639     1.0  0.78598  0.37286  0.16550  1.0000
  H   H1958     1.0  0.77830  0.36338  0.46083  1.0000
  H   H1959     1.0  0.92979  0.41200  0.39546  1.0000
  H   H1960     1.0  0.95109  0.40999  0.37845  1.0000
  H   H1961     1.0  0.92251  0.40485  0.44568  1.0000
  C   C1640     1.0  0.82888  0.64011  0.25001  1.0000
  N   N107      1.0  0.80469  0.35484  0.45024  1.0000
  C   C1641     1.0  0.93076  0.37953  0.42582  1.0000
  C   C1642     1.0  0.79388  0.37250  0.40310  1.0000
  H   H1962     1.0  0.99476  0.64060  0.10097  1.0000
  C   C1643     1.0  0.92215  0.39078  0.44760  1.0000
  C   C1644     1.0  0.76850  0.37435  0.17514  1.0000
  C   C1645     1.0  0.76590  0.65875  0.38605  1.0000
  C   C1646     1.0  0.81166  0.36372  0.47823  1.0000
  C   C1647     1.0  0.90815  0.65942  0.36062  1.0000
  H   H1963     1.0  0.96504  0.47201  0.29639  1.0000
  S   S446      1.0  0.86152  0.66754  0.42910  1.0000
  H   H1964     1.0  0.77993  0.34383  0.43690  1.0000
  H   H1965     1.0  0.91830  0.64051  0.39340  1.0000
  H   H1966     1.0  0.98366  0.49807  0.30143  1.0000
  H   H1967     1.0  0.82578  0.38269  0.19910  1.0000
  N   N108      1.0  0.94132  0.38615  0.39918  1.0000
  H   H1968     1.0  0.98125  0.54499  0.23400  1.0000
  Fe  Fe223     1.0  0.85082  0.34562  0.08627  1.0000
  H   H1969     1.0  0.88830  0.34800  0.18605  1.0000
  C   C1648     1.0  0.91021  0.36604  0.47582  1.0000
  C   C1649     1.0  0.82826  0.38152  0.38788  1.0000
  H   H1970     1.0  0.91370  0.65966  0.43930  1.0000
  C   C1650     1.0  0.82496  0.37069  0.41360  1.0000
  N   N109      1.0  0.88429  0.46393  0.20401  1.0000
  C   C1651     1.0  0.88105  0.45565  0.17319  1.0000
  C   C1652     1.0  0.90190  0.45832  0.21457  1.0000
  C   C1653     1.0  0.87104  0.45706  0.22635  1.0000
  C   C1654     1.0  0.88363  0.48330  0.20300  1.0000
  C   C1655     1.0  0.88397  0.49297  0.17445  1.0000
  C   C1656     1.0  0.88399  0.49310  0.23116  1.0000
  C   C1657     1.0  0.88442  0.51127  0.17436  1.0000
  C   C1658     1.0  0.88407  0.51138  0.23076  1.0000
  C   C1659     1.0  0.88443  0.52044  0.20244  1.0000
  H   H1971     1.0  0.88076  0.44109  0.17515  1.0000
  H   H1972     1.0  0.86826  0.45999  0.16329  1.0000
  H   H1973     1.0  0.89168  0.45845  0.15607  1.0000
  H   H1974     1.0  0.91223  0.46349  0.19872  1.0000
  H   H1975     1.0  0.90340  0.44388  0.21493  1.0000
  H   H1976     1.0  0.90470  0.46289  0.23869  1.0000
  H   H1977     1.0  0.85773  0.46222  0.22075  1.0000
  H   H1978     1.0  0.87056  0.44249  0.22594  1.0000
  H   H1979     1.0  0.87397  0.46037  0.25105  1.0000
  H   H1980     1.0  0.88432  0.48673  0.15187  1.0000
  H   H1981     1.0  0.88497  0.48673  0.25377  1.0000
  H   H1982     1.0  0.88527  0.51843  0.15243  1.0000
  H   H1983     1.0  0.88473  0.51853  0.25258  1.0000
  H   H1984     1.0  0.88537  0.53459  0.20223  1.0000
  H   H1985     1.0  0.83465  0.36613  0.13513  1.0000
  Fe  Fe224     1.0  0.81114  0.66118  0.41636  1.0000
  H   H1986     1.0  0.85860  0.62447  0.02068  1.0000
  S   S447      1.0  0.85957  0.66061  0.33635  1.0000
  H   H1987     1.0  0.81888  0.38298  0.14253  1.0000
  C   C1660     1.0  0.82113  0.34154  0.17081  1.0000
  H   H1988     1.0  0.78921  0.37913  0.14353  1.0000
  C   C1661     1.0  0.97918  0.47077  0.29397  1.0000
  H   H1989     1.0  0.90538  0.39281  0.48825  1.0000
  N   N110      1.0  0.81686  0.36049  0.17319  1.0000
  C   C1662     1.0  0.99612  0.60101  0.21036  1.0000
  H   H1990     1.0  0.93241  0.36638  0.36695  1.0000
  C   C1663     1.0  0.83341  0.63131  0.27748  1.0000
  C   C1664     1.0  0.84568  0.61772  0.27655  1.0000
  N   N111      1.0  0.98624  0.54099  0.18472  1.0000
  C   C1665     1.0  0.98073  0.52243  0.18592  1.0000
  H   H1991     1.0  0.96271  0.54858  0.20955  1.0000
  C   C1666     1.0  0.97998  0.54893  0.15500  1.0000
  H   H1992     1.0  0.98414  0.56280  0.15287  1.0000
  H   H1993     1.0  0.93436  0.35192  0.41427  1.0000
  H   H1994     1.0  0.96538  0.54892  0.15353  1.0000
  H   H1995     1.0  0.78497  0.65643  0.34906  1.0000
  C   C1667     1.0  0.77117  0.65689  0.35483  1.0000
  H   H1996     1.0  0.91641  0.34071  0.45728  1.0000
  H   H1997     1.0  0.97952  0.56458  0.20990  1.0000
  H   H1998     1.0  0.96619  0.52129  0.18611  1.0000
  S   S448      1.0  0.78117  0.66065  0.41722  1.0000
  C   C1668     1.0  0.77466  0.35641  0.22039  1.0000
  C   C1669     1.0  0.97717  0.55022  0.21078  1.0000
  H   H1999     1.0  0.81249  0.36295  0.12355  1.0000
  H   H2000     1.0  0.94901  0.41050  0.42014  1.0000
  C   C1670     1.0  0.76912  0.35141  0.10187  1.0000
  C   C1671     1.0  0.92852  0.36126  0.43020  1.0000
  H   H2001     1.0  0.84164  0.38511  0.38221  1.0000
  H   H2002     1.0  0.87839  0.35062  0.40575  1.0000
  C   C1672     1.0  0.81446  0.38783  0.36972  1.0000
  H   H2003     1.0  0.87662  0.65882  0.27654  1.0000
  H   H2004     1.0  0.84266  0.36700  0.18951  1.0000
  C   C1673     1.0  0.80770  0.36592  0.42222  1.0000
  H   H2005     1.0  0.82612  0.36525  0.47717  1.0000
  C   C1674     1.0  0.82862  0.36845  0.19652  1.0000
  H   H2006     1.0  0.90997  0.65087  0.34061  1.0000
  H   H2007     1.0  0.82738  0.36229  0.22000  1.0000
  H   H2008     1.0  0.78426  0.34292  0.47801  1.0000
  C   C1675     1.0  0.91834  0.35468  0.45479  1.0000
  C   C1676     1.0  0.91281  0.65355  0.39035  1.0000
  H   H2009     1.0  0.00312  0.40120  0.33985  1.0000
  C   C1677     1.0  0.76280  0.36596  0.20225  1.0000
  C   C1678     1.0  0.00445  0.40300  0.31482  1.0000
  H   H2010     1.0  0.75912  0.38143  0.16073  1.0000
  C   C1679     1.0  0.91019  0.66437  0.41615  1.0000
  C   C1680     1.0  0.00503  0.45272  0.28544  1.0000
  S   S449      1.0  0.81980  0.33894  0.01737  1.0000
  H   H2011     1.0  0.82844  0.33925  0.44532  1.0000
  C   C1681     1.0  0.00560  0.54195  0.18626  1.0000
  C   C1682     1.0  0.86733  0.50870  0.89066  1.0000
  H   H2012     1.0  0.90806  0.46089  0.92053  1.0000
  S   S450      1.0  0.78825  0.66257  0.93293  1.0000
  H   H2013     1.0  0.86312  0.44276  0.91266  1.0000
  Fe  Fe225     1.0  0.85074  0.35774  0.58766  1.0000
  S   S451      1.0  0.85603  0.38043  0.62065  1.0000
  S   S452      1.0  0.83442  0.36610  0.54608  1.0000
  Fe  Fe226     1.0  0.93960  0.58862  0.69426  1.0000
  S   S453      1.0  0.93223  0.57355  0.65149  1.0000
  S   S454      1.0  0.96690  0.58870  0.71599  1.0000
  Fe  Fe227     1.0  0.90097  0.59800  0.70915  1.0000
  S   S455      1.0  0.89121  0.58259  0.66773  1.0000
  S   S456      1.0  0.88107  0.61628  0.73292  1.0000
  Fe  Fe228     1.0  0.91121  0.56208  0.68239  1.0000
  S   S457      1.0  0.90895  0.53239  0.67845  1.0000
  Fe  Fe229     1.0  0.91287  0.59544  0.64066  1.0000
  S   S458      1.0  0.91067  0.60971  0.59294  1.0000
  S   S459      1.0  0.91916  0.57640  0.72565  1.0000
  S   S460      1.0  0.92208  0.61145  0.68148  1.0000
  Fe  Fe230     1.0  0.91665  0.40952  0.76260  1.0000
  S   S461      1.0  0.89579  0.42254  0.79250  1.0000
  S   S462      1.0  0.91411  0.38767  0.72675  1.0000
  Fe  Fe231     1.0  0.94704  0.42565  0.79847  1.0000
  S   S463      1.0  0.92831  0.43962  0.83051  1.0000
  S   S464      1.0  0.97573  0.42820  0.81236  1.0000
  Fe  Fe232     1.0  0.91270  0.41490  0.83379  1.0000
  S   S465      1.0  0.90718  0.40421  0.88355  1.0000
  Fe  Fe233     1.0  0.91296  0.44646  0.78729  1.0000
  S   S466      1.0  0.90343  0.47498  0.78761  1.0000
  S   S467      1.0  0.93249  0.40051  0.80427  1.0000
  S   S468      1.0  0.93274  0.43394  0.75482  1.0000
  Fe  Fe234     1.0  0.85255  0.65230  0.90360  1.0000
  S   S469      1.0  0.83629  0.64401  0.94526  1.0000
  S   S470      1.0  0.86573  0.62946  0.87795  1.0000
  C   C1683     1.0  0.95279  0.50386  0.75423  1.0000
  H   H2014     1.0  0.86281  0.52220  0.89009  1.0000
  Fe  Fe235     1.0  0.85117  0.66397  0.97270  1.0000
  H   H2015     1.0  0.89538  0.48171  0.85241  1.0000
  H   H2016     1.0  0.88283  0.43016  0.91552  1.0000
  C   C1684     1.0  0.77259  0.66236  0.90223  1.0000
  S   S471      1.0  0.86939  0.34161  0.55819  1.0000
  C   C1685     1.0  0.99626  0.42692  0.79267  1.0000
  H   H2017     1.0  0.96004  0.37445  0.78387  1.0000
  H   H2018     1.0  0.91031  0.44113  0.89812  1.0000
  H   H2019     1.0  0.98613  0.42724  0.74581  1.0000
  C   C1686     1.0  0.96236  0.37233  0.70474  1.0000
  C   C1687     1.0  0.98797  0.58976  0.69812  1.0000
  C   C1688     1.0  0.99023  0.59100  0.66566  1.0000
  H   H2020     1.0  0.96277  0.35511  0.76053  1.0000
  H   H2021     1.0  0.97889  0.59150  0.65060  1.0000
  H   H2022     1.0  0.76643  0.40753  0.54170  1.0000
  C   C1689     1.0  0.87774  0.62025  0.77346  1.0000
  C   C1690     1.0  0.88525  0.60958  0.79657  1.0000
  C   C1691     1.0  0.88161  0.61278  0.82843  1.0000
  C   C1692     1.0  0.87070  0.62683  0.83760  1.0000
  C   C1693     1.0  0.86330  0.63761  0.81451  1.0000
  C   C1694     1.0  0.86671  0.63423  0.78260  1.0000
  H   H2023     1.0  0.89370  0.59876  0.78991  1.0000
  H   H2024     1.0  0.88733  0.60433  0.84613  1.0000
  H   H2025     1.0  0.85487  0.64844  0.82119  1.0000
  H   H2026     1.0  0.86083  0.64255  0.76492  1.0000
  C   C1695     1.0  0.89346  0.61497  0.56597  1.0000
  C   C1696     1.0  0.89702  0.62603  0.54028  1.0000
  C   C1697     1.0  0.88385  0.63067  0.51844  1.0000
  C   C1698     1.0  0.86686  0.62423  0.52191  1.0000
  C   C1699     1.0  0.86338  0.61296  0.54736  1.0000
  C   C1700     1.0  0.87653  0.60835  0.56917  1.0000
  H   H2027     1.0  0.91006  0.63117  0.53734  1.0000
  H   H2028     1.0  0.84227  0.57588  0.56669  1.0000
  H   H2029     1.0  0.85032  0.60789  0.55030  1.0000
  H   H2030     1.0  0.87354  0.59965  0.58841  1.0000
  C   C1701     1.0  0.90791  0.51677  0.70946  1.0000
  C   C1702     1.0  0.90389  0.52154  0.74029  1.0000
  C   C1703     1.0  0.90257  0.50859  0.76386  1.0000
  C   C1704     1.0  0.90558  0.49078  0.75710  1.0000
  C   C1705     1.0  0.91001  0.48609  0.72642  1.0000
  C   C1706     1.0  0.91100  0.49899  0.70274  1.0000
  H   H2031     1.0  0.90142  0.53514  0.74585  1.0000
  H   H2032     1.0  0.89913  0.51239  0.78748  1.0000
  H   H2033     1.0  0.91232  0.47246  0.72080  1.0000
  H   H2034     1.0  0.91412  0.49512  0.67902  1.0000
  C   C1707     1.0  0.86430  0.37965  0.94675  1.0000
  C   C1708     1.0  0.86006  0.38616  0.91672  1.0000
  C   C1709     1.0  0.87296  0.39343  0.89684  1.0000
  C   C1710     1.0  0.89036  0.39441  0.90679  1.0000
  C   C1711     1.0  0.89459  0.38792  0.93681  1.0000
  C   C1712     1.0  0.88172  0.38049  0.95656  1.0000
  H   H2035     1.0  0.84666  0.38553  0.90875  1.0000
  H   H2036     1.0  0.86941  0.39834  0.87391  1.0000
  H   H2037     1.0  0.90797  0.38863  0.94488  1.0000
  H   H2038     1.0  0.90212  0.52544  0.59767  1.0000
  C   C1713     1.0  0.87215  0.38195  0.65033  1.0000
  C   C1714     1.0  0.87238  0.39698  0.66920  1.0000
  C   C1715     1.0  0.88502  0.39889  0.69287  1.0000
  C   C1716     1.0  0.89764  0.38578  0.69778  1.0000
  C   C1717     1.0  0.89743  0.37074  0.67891  1.0000
  C   C1718     1.0  0.88473  0.36879  0.65535  1.0000
  H   H2039     1.0  0.86272  0.40723  0.66547  1.0000
  H   H2040     1.0  0.88503  0.41053  0.70714  1.0000
  H   H2041     1.0  0.90712  0.36051  0.68255  1.0000
  H   H2042     1.0  0.88470  0.35716  0.64102  1.0000
  Fe  Fe236     1.0  0.81799  0.66595  0.93059  1.0000
  H   H2043     1.0  0.78704  0.62370  0.90410  1.0000
  C   C1719     1.0  0.97003  0.47923  0.77311  1.0000
  C   C1720     1.0  0.77745  0.66316  0.87065  1.0000
  C   C1721     1.0  0.76780  0.60929  0.82482  1.0000
  C   C1722     1.0  0.95833  0.36902  0.76004  1.0000
  H   H2044     1.0  0.88996  0.54977  0.52399  1.0000
  N   N112      1.0  0.96643  0.53217  0.73707  1.0000
  C   C1723     1.0  0.95812  0.53205  0.70574  1.0000
  C   C1724     1.0  0.95531  0.54286  0.75844  1.0000
  C   C1725     1.0  0.98352  0.54111  0.73376  1.0000
  C   C1726     1.0  0.96800  0.51403  0.74934  1.0000
  C   C1727     1.0  0.95384  0.48676  0.76598  1.0000
  H   H2045     1.0  0.89381  0.64033  0.68262  1.0000
  H   H2046     1.0  0.88798  0.52913  0.54396  1.0000
  H   H2047     1.0  0.99782  0.48282  0.77414  1.0000
  H   H2048     1.0  0.88314  0.54024  0.63124  1.0000
  H   H2049     1.0  0.94456  0.52695  0.70652  1.0000
  H   H2050     1.0  0.95709  0.54550  0.69557  1.0000
  C   C1728     1.0  0.87065  0.62397  0.64738  1.0000
  H   H2051     1.0  0.98577  0.38728  0.78938  1.0000
  H   H2052     1.0  0.95465  0.55685  0.75082  1.0000
  C   C1729     1.0  0.87477  0.54794  0.61605  1.0000
  H   H2053     1.0  0.88027  0.61734  0.63179  1.0000
  H   H2054     1.0  0.92088  0.56409  0.55900  1.0000
  Fe  Fe237     1.0  0.81828  0.34236  0.55725  1.0000
  H   H2055     1.0  0.84257  0.64284  0.61508  1.0000
  C   C1730     1.0  0.75685  0.61393  0.84966  1.0000
  H   H2056     1.0  0.88619  0.43294  0.86066  1.0000
  C   C1731     1.0  0.99916  0.37292  0.71729  1.0000
  H   H2057     1.0  0.85988  0.66837  0.53178  1.0000
  N   N113      1.0  0.87353  0.64310  0.64770  1.0000
  H   H2058     1.0  0.96574  0.52376  0.68910  1.0000
  H   H2059     1.0  0.91230  0.46186  0.87925  1.0000
  C   C1732     1.0  0.78601  0.60938  0.82839  1.0000
  C   C1733     1.0  0.84643  0.56208  0.61006  1.0000
  H   H2060     1.0  0.85438  0.54762  0.65102  1.0000
  H   H2061     1.0  0.88971  0.45340  0.84175  1.0000
  C   C1734     1.0  0.88020  0.55373  0.58586  1.0000
  H   H2062     1.0  0.88487  0.51185  0.85151  1.0000
  Fe  Fe238     1.0  0.85200  0.34850  0.51737  1.0000
  H   H2063     1.0  0.90909  0.53711  0.53213  1.0000
  C   C1735     1.0  0.78220  0.61889  0.88203  1.0000
  C   C1736     1.0  0.85133  0.56799  0.58043  1.0000
  N   N114      1.0  0.81293  0.61612  0.86094  1.0000
  N   N115      1.0  0.89779  0.54979  0.57272  1.0000
  H   H2064     1.0  0.86440  0.64644  0.69526  1.0000
  C   C1737     1.0  0.85813  0.55211  0.62783  1.0000
  H   H2065     1.0  0.97079  0.46597  0.78231  1.0000
  H   H2066     1.0  0.94154  0.53831  0.75934  1.0000
  N   N116      1.0  0.88576  0.45504  0.89198  1.0000
  C   C1738     1.0  0.86149  0.65116  0.67102  1.0000
  H   H2067     1.0  0.81519  0.59354  0.89106  1.0000
  H   H2068     1.0  0.86817  0.44792  0.85502  1.0000
  H   H2069     1.0  0.78529  0.39524  0.58350  1.0000
  H   H2070     1.0  0.81390  0.61402  0.91167  1.0000
  H   H2071     1.0  0.91147  0.54443  0.61586  1.0000
  H   H2072     1.0  0.79259  0.34573  0.61945  1.0000
  H   H2073     1.0  0.84758  0.64793  0.66667  1.0000
  C   C1739     1.0  0.99772  0.42616  0.76004  1.0000
  H   H2074     1.0  0.94815  0.39939  0.73284  1.0000
  H   H2075     1.0  0.89650  0.65989  0.60536  1.0000
  C   C1740     1.0  0.86073  0.49713  0.91296  1.0000
  H   H2076     1.0  0.96780  0.38022  0.68511  1.0000
  C   C1741     1.0  0.87924  0.47336  0.89200  1.0000
  H   H2077     1.0  0.86265  0.66566  0.67092  1.0000
  H   H2078     1.0  0.96945  0.40572  0.71972  1.0000
  H   H2079     1.0  0.96628  0.35837  0.70173  1.0000
  H   H2080     1.0  0.00133  0.58819  0.74243  1.0000
  C   C1742     1.0  0.90490  0.45476  0.89771  1.0000
  N   N117      1.0  0.96789  0.37908  0.73569  1.0000
  H   H2081     1.0  0.96053  0.54256  0.78272  1.0000
  H   H2082     1.0  0.88528  0.37556  0.97947  1.0000
  H   H2083     1.0  0.90152  0.63935  0.64320  1.0000
  H   H2084     1.0  0.87128  0.56924  0.54571  1.0000
  C   C1743     1.0  0.98525  0.48879  0.76850  1.0000
  C   C1744     1.0  0.90864  0.53816  0.59300  1.0000
  H   H2085     1.0  0.81075  0.64121  0.88355  1.0000
  H   H2086     1.0  0.90075  0.57561  0.55211  1.0000
  C   C1745     1.0  0.81905  0.60752  0.89027  1.0000
  H   H2087     1.0  0.83360  0.60806  0.89255  1.0000
  H   H2088     1.0  0.83116  0.63723  0.86400  1.0000
  H   H2089     1.0  0.94392  0.36923  0.75584  1.0000
  C   C1746     1.0  0.81686  0.63498  0.86260  1.0000
  H   H2090     1.0  0.88636  0.35756  0.88623  1.0000
  H   H2091     1.0  0.98188  0.55467  0.72447  1.0000
  C   C1747     1.0  0.77115  0.39467  0.58564  1.0000
  H   H2092     1.0  0.81194  0.64214  0.84158  1.0000
  H   H2093     1.0  0.83771  0.60928  0.83920  1.0000
  C   C1748     1.0  0.98436  0.50594  0.75682  1.0000
  H   H2094     1.0  0.85103  0.50171  0.92974  1.0000
  C   C1749     1.0  0.76647  0.34392  0.63913  1.0000
  H   H2095     1.0  0.79370  0.60604  0.80799  1.0000
  C   C1750     1.0  0.82335  0.60854  0.83472  1.0000
  H   H2096     1.0  0.82031  0.59449  0.83124  1.0000
  C   C1751     1.0  0.79378  0.61424  0.85723  1.0000
  H   H2097     1.0  0.85735  0.62048  0.63940  1.0000
  H   H2098     1.0  0.82125  0.61584  0.81242  1.0000
  C   C1752     1.0  0.89610  0.54109  0.54190  1.0000
  H   H2099     1.0  0.90877  0.57324  0.59114  1.0000
  H   H2100     1.0  0.87227  0.61809  0.67101  1.0000
  C   C1753     1.0  0.87004  0.65046  0.61615  1.0000
  H   H2101     1.0  0.91104  0.33981  0.86586  1.0000
  H   H2102     1.0  0.83356  0.56529  0.61933  1.0000
  C   C1754     1.0  0.86797  0.56397  0.56850  1.0000
  C   C1755     1.0  0.76363  0.38688  0.61186  1.0000
  C   C1756     1.0  0.87977  0.50290  0.86903  1.0000
  H   H2103     1.0  0.77080  0.34618  0.66282  1.0000
  C   C1757     1.0  0.76404  0.61852  0.87829  1.0000
  C   C1758     1.0  0.96238  0.39769  0.73739  1.0000
  H   H2104     1.0  0.92162  0.53510  0.58228  1.0000
  C   C1759     1.0  0.88231  0.44703  0.86107  1.0000
  H   H2105     1.0  0.88009  0.44861  0.94028  1.0000
  H   H2106     1.0  0.77199  0.38138  0.62997  1.0000
  H   H2107     1.0  0.96490  0.40344  0.76079  1.0000
  C   C1760     1.0  0.98701  0.37783  0.74111  1.0000
  H   H2108     1.0  0.94783  0.37304  0.70199  1.0000
  H   H2109     1.0  0.80887  0.35616  0.50000  1.0000
  C   C1761     1.0  0.88570  0.48554  0.86970  1.0000
  H   H2110     1.0  0.94199  0.47930  0.76965  1.0000
  C   C1762     1.0  0.76047  0.40150  0.56208  1.0000
  C   C1763     1.0  0.90744  0.56634  0.56842  1.0000
  S   S472      1.0  0.84733  0.37043  0.97047  1.0000
  C   C1764     1.0  0.99408  0.38260  0.77053  1.0000
  C   C1765     1.0  0.76469  0.66161  0.84710  1.0000
  H   H2111     1.0  0.86081  0.47142  0.93153  1.0000
  C   C1766     1.0  0.87749  0.44379  0.91623  1.0000
  H   H2112     1.0  0.89476  0.66009  0.66017  1.0000
  H   H2113     1.0  0.93994  0.50908  0.74903  1.0000
  C   C1767     1.0  0.89171  0.64593  0.65873  1.0000
  C   C1768     1.0  0.86651  0.47968  0.91373  1.0000
  H   H2114     1.0  0.99667  0.51255  0.75397  1.0000
  H   H2115     1.0  0.88682  0.63927  0.49901  1.0000
  H   H2116     1.0  0.76867  0.66174  0.82276  1.0000
  C   C1769     1.0  0.85311  0.64921  0.60275  1.0000
  C   C1770     1.0  0.86262  0.66381  0.55537  1.0000
  H   H2117     1.0  0.76210  0.60602  0.80243  1.0000
  H   H2118     1.0  0.77086  0.35607  0.82736  1.0000
  C   C1771     1.0  0.84955  0.65570  0.57275  1.0000
  H   H2119     1.0  0.99236  0.53421  0.71698  1.0000
  C   C1772     1.0  0.00291  0.58910  0.71729  1.0000
  C   C1773     1.0  0.88313  0.65871  0.59765  1.0000
  H   H2120     1.0  0.90193  0.36092  0.49437  1.0000
  H   H2121     1.0  0.99021  0.54238  0.75671  1.0000
  C   C1774     1.0  0.77349  0.34132  0.58357  1.0000
  C   C1775     1.0  0.87934  0.66535  0.56782  1.0000
  S   S473      1.0  0.78847  0.34211  0.55149  1.0000
  C   C1776     1.0  0.88789  0.34402  0.89365  1.0000
  H   H2122     1.0  0.79104  0.66479  0.86433  1.0000
  S   S474      1.0  0.86835  0.67119  0.93168  1.0000
  H   H2123     1.0  0.86560  0.34538  0.92291  1.0000
  C   C1777     1.0  0.77888  0.34370  0.61452  1.0000
  H   H2124     1.0  0.83673  0.65401  0.56243  1.0000
  H   H2125     1.0  0.99510  0.36931  0.69407  1.0000
  H   H2126     1.0  0.75690  0.34252  0.78297  1.0000
  H   H2127     1.0  0.88958  0.67125  0.55382  1.0000
  S   S475      1.0  0.84942  0.62977  0.49563  1.0000
  C   C1778     1.0  0.75678  0.35738  0.82458  1.0000
  Fe  Fe239     1.0  0.83965  0.68733  0.43468  1.0000
  H   H2128     1.0  0.87684  0.70689  0.42312  1.0000
  S   S476      1.0  0.84355  0.71469  0.45404  1.0000
  N   N118      1.0  0.96288  0.98062  0.24656  1.0000
  Fe  Fe240     1.0  0.90986  0.94453  0.20808  1.0000
  S   S477      1.0  0.93178  0.93114  0.23402  1.0000
  S   S478      1.0  0.89655  0.96656  0.23546  1.0000
  Fe  Fe241     1.0  0.91146  0.91787  0.15341  1.0000
  S   S479      1.0  0.93410  0.90350  0.17615  1.0000
  S   S480      1.0  0.90389  0.90655  0.10524  1.0000
  Fe  Fe242     1.0  0.91838  0.90623  0.22076  1.0000
  S   S481      1.0  0.91536  0.88266  0.25316  1.0000
  Fe  Fe243     1.0  0.94543  0.92975  0.18725  1.0000
  S   S482      1.0  0.97286  0.94096  0.17885  1.0000
  S   S483      1.0  0.89544  0.91951  0.19782  1.0000
  S   S484      1.0  0.92387  0.94430  0.16159  1.0000
  Fe  Fe244     1.0  0.84142  0.81471  0.40134  1.0000
  S   S485      1.0  0.82911  0.82154  0.44749  1.0000
  S   S486      1.0  0.84254  0.78734  0.37993  1.0000
  Fe  Fe245     1.0  0.84443  0.85354  0.38250  1.0000
  S   S487      1.0  0.83149  0.86286  0.42724  1.0000
  S   S488      1.0  0.85028  0.87461  0.34613  1.0000
  Fe  Fe246     1.0  0.84918  0.84310  0.45084  1.0000
  S   S489      1.0  0.84268  0.87038  0.02582  1.0000
  Fe  Fe247     1.0  0.81260  0.84072  0.41979  1.0000
  S   S490      1.0  0.78302  0.83868  0.42709  1.0000
  S   S491      1.0  0.86290  0.83459  0.40617  1.0000
  S   S492      1.0  0.82418  0.83314  0.37366  1.0000
  C   C1779     1.0  0.76713  0.84287  0.39764  1.0000
  C   C1780     1.0  0.77046  0.85397  0.37224  1.0000
  H   H2129     1.0  0.78308  0.86014  0.37004  1.0000
  H   H2130     1.0  0.88893  0.89486  0.46497  1.0000
  C   C1781     1.0  0.99401  0.93116  0.18281  1.0000
  C   C1782     1.0  0.87504  0.73591  0.00159  1.0000
  H   H2131     1.0  0.90080  0.68858  0.43345  1.0000
  H   H2132     1.0  0.86588  0.77558  0.03599  1.0000
  H   H2133     1.0  0.98600  0.90977  0.21224  1.0000
  C   C1783     1.0  0.89695  0.88017  0.27822  1.0000
  C   C1784     1.0  0.89672  0.86636  0.30011  1.0000
  C   C1785     1.0  0.88246  0.86427  0.32086  1.0000
  C   C1786     1.0  0.86825  0.87599  0.31978  1.0000
  C   C1787     1.0  0.86838  0.88961  0.29755  1.0000
  C   C1788     1.0  0.88262  0.89171  0.27687  1.0000
  H   H2134     1.0  0.90774  0.85736  0.30130  1.0000
  H   H2135     1.0  0.88252  0.85370  0.33778  1.0000
  H   H2136     1.0  0.85747  0.89876  0.29658  1.0000
  H   H2137     1.0  0.88261  0.90243  0.26027  1.0000
  C   C1789     1.0  0.88641  0.89701  0.08344  1.0000
  C   C1790     1.0  0.86950  0.89496  0.09567  1.0000
  C   C1791     1.0  0.85634  0.88698  0.07760  1.0000
  C   C1792     1.0  0.85978  0.88095  0.04699  1.0000
  C   C1793     1.0  0.87663  0.88314  0.03466  1.0000
  C   C1794     1.0  0.88980  0.89107  0.05277  1.0000
  H   H2138     1.0  0.86650  0.89961  0.11895  1.0000
  H   H2139     1.0  0.84341  0.88538  0.08754  1.0000
  H   H2140     1.0  0.87166  0.91728  0.36925  1.0000
  H   H2141     1.0  0.90276  0.89260  0.04290  1.0000
  H   H2142     1.0  0.91353  0.71697  0.36802  1.0000
  C   C1795     1.0  0.90351  0.98859  0.23735  1.0000
  N   N119      1.0  0.88892  0.70464  0.37751  1.0000
  C   C1796     1.0  0.75726  0.85747  0.34999  1.0000
  H   H2143     1.0  0.91727  0.98838  0.19334  1.0000
  C   C1797     1.0  0.84321  0.73470  0.43289  1.0000
  C   C1798     1.0  0.84013  0.73536  0.40066  1.0000
  C   C1799     1.0  0.83997  0.75158  0.38480  1.0000
  C   C1800     1.0  0.84258  0.76730  0.40106  1.0000
  C   C1801     1.0  0.84536  0.76664  0.43337  1.0000
  C   C1802     1.0  0.84575  0.75041  0.44914  1.0000
  H   H2144     1.0  0.83785  0.72340  0.38798  1.0000
  H   H2145     1.0  0.83778  0.75198  0.35980  1.0000
  H   H2146     1.0  0.84743  0.77863  0.44615  1.0000
  H   H2147     1.0  0.84802  0.75004  0.47413  1.0000
  H   H2148     1.0  0.79480  0.90230  0.04728  1.0000
  C   C1803     1.0  0.90981  0.89367  0.37718  1.0000
  C   C1804     1.0  0.88555  0.71437  0.40704  1.0000
  H   H2149     1.0  0.78092  0.78415  0.45327  1.0000
  H   H2150     1.0  0.86022  0.89505  0.44139  1.0000
  C   C1805     1.0  0.90060  0.67603  0.35659  1.0000
  H   H2151     1.0  0.80351  0.71428  0.40373  1.0000
  H   H2152     1.0  0.93825  0.99190  0.26245  1.0000
  C   C1806     1.0  0.88466  0.91209  0.36518  1.0000
  C   C1807     1.0  0.91786  0.89908  0.34935  1.0000
  C   C1808     1.0  0.89298  0.91763  0.33768  1.0000
  C   C1809     1.0  0.90946  0.91104  0.32965  1.0000
  N   N120      1.0  0.77972  0.71452  0.43145  1.0000
  H   H2153     1.0  0.76250  0.79505  0.39946  1.0000
  H   H2154     1.0  0.87309  0.69682  0.33796  1.0000
  H   H2155     1.0  0.97565  0.96126  0.27591  1.0000
  H   H2156     1.0  0.89902  0.71537  0.02978  1.0000
  H   H2157     1.0  0.87643  0.86908  0.43588  1.0000
  H   H2158     1.0  0.90843  0.89355  0.44198  1.0000
  C   C1810     1.0  0.87001  0.74833  0.02467  1.0000
  C   C1811     1.0  0.88367  0.87422  0.41511  1.0000
  C   C1812     1.0  0.95829  0.98209  0.21293  1.0000
  H   H2159     1.0  0.93053  0.89374  0.34260  1.0000
  H   H2160     1.0  0.88635  0.92663  0.32183  1.0000
  H   H2161     1.0  0.91552  0.91484  0.30766  1.0000
  H   H2162     1.0  0.78120  0.81397  0.30416  1.0000
  N   N121      1.0  0.89127  0.86100  0.17067  1.0000
  C   C1813     1.0  0.89047  0.84778  0.19622  1.0000
  C   C1814     1.0  0.91001  0.86524  0.16568  1.0000
  C   C1815     1.0  0.88221  0.87717  0.18130  1.0000
  C   C1816     1.0  0.88258  0.85444  0.14217  1.0000
  C   C1817     1.0  0.89085  0.85423  0.11225  1.0000
  C   C1818     1.0  0.86500  0.84861  0.14361  1.0000
  C   C1819     1.0  0.88210  0.84828  0.08575  1.0000
  C   C1820     1.0  0.85634  0.84280  0.11688  1.0000
  C   C1821     1.0  0.86488  0.84264  0.08801  1.0000
  H   H2163     1.0  0.89624  0.83507  0.18855  1.0000
  H   H2164     1.0  0.89779  0.85210  0.21735  1.0000
  H   H2165     1.0  0.87689  0.84546  0.20449  1.0000
  H   H2166     1.0  0.91763  0.85369  0.15727  1.0000
  H   H2167     1.0  0.91631  0.86963  0.18773  1.0000
  H   H2168     1.0  0.91159  0.87617  0.14854  1.0000
  H   H2169     1.0  0.88296  0.88761  0.16305  1.0000
  H   H2170     1.0  0.86815  0.87507  0.18664  1.0000
  H   H2171     1.0  0.88819  0.88230  0.20311  1.0000
  H   H2172     1.0  0.90389  0.85914  0.10837  1.0000
  H   H2173     1.0  0.85770  0.84889  0.16532  1.0000
  H   H2174     1.0  0.88846  0.84873  0.06300  1.0000
  H   H2175     1.0  0.84282  0.83874  0.11836  1.0000
  H   H2176     1.0  0.85799  0.83869  0.06708  1.0000
  H   H2177     1.0  0.89468  0.72895  0.35394  1.0000
  H   H2178     1.0  0.86591  0.91483  0.42164  1.0000
  H   H2179     1.0  0.99739  0.98209  0.26993  1.0000
  H   H2180     1.0  0.76599  0.89754  0.06268  1.0000
  H   H2181     1.0  0.89790  0.71739  0.41949  1.0000
  H   H2182     1.0  0.80797  0.73541  0.44194  1.0000
  H   H2183     1.0  0.86314  0.69380  0.37542  1.0000
  H   H2184     1.0  0.90220  0.70986  0.33372  1.0000
  H   H2185     1.0  0.95008  0.97096  0.20519  1.0000
  H   H2186     1.0  0.78681  0.85402  0.04855  1.0000
  C   C1822     1.0  0.89494  0.89917  0.44242  1.0000
  H   H2187     1.0  0.97022  0.98204  0.19786  1.0000
  H   H2188     1.0  0.86482  0.71533  0.35863  1.0000
  C   C1823     1.0  0.89868  0.99888  0.26331  1.0000
  C   C1824     1.0  0.99067  0.99451  0.26761  1.0000
  C   C1825     1.0  0.79326  0.85949  0.02732  1.0000
  C   C1826     1.0  0.76402  0.79469  0.34807  1.0000
  C   C1827     1.0  0.85534  0.71264  0.01652  1.0000
  C   C1828     1.0  0.79708  0.88794  0.04944  1.0000
  H   H2189     1.0  0.89062  0.99328  0.28159  1.0000
  C   C1829     1.0  0.89736  0.68728  0.38240  1.0000
  N   N122      1.0  0.88448  0.89360  0.41514  1.0000
  H   H2190     1.0  0.85360  0.69832  0.02003  1.0000
  C   C1830     1.0  0.86631  0.90033  0.41962  1.0000
  C   C1831     1.0  0.90033  0.71558  0.35741  1.0000
  C   C1832     1.0  0.89285  0.89984  0.38582  1.0000
  C   C1833     1.0  0.76965  0.88063  0.02158  1.0000
  H   H2191     1.0  0.75863  0.79462  0.29785  1.0000
  N   N123      1.0  0.78320  0.79680  0.34458  1.0000
  C   C1834     1.0  0.79267  0.79706  0.37487  1.0000
  C   C1835     1.0  0.79068  0.78214  0.32598  1.0000
  C   C1836     1.0  0.78683  0.81349  0.32808  1.0000
  H   H2192     1.0  0.85088  0.71897  0.03851  1.0000
  C   C1837     1.0  0.76002  0.87234  0.99762  1.0000
  H   H2193     1.0  0.85769  0.89635  0.39995  1.0000
  C   C1838     1.0  0.99693  0.91615  0.20097  1.0000
  H   H2194     1.0  0.88124  0.71877  0.05685  1.0000
  C   C1839     1.0  0.78949  0.71063  0.40217  1.0000
  H   H2195     1.0  0.80764  0.85724  0.02975  1.0000
  H   H2196     1.0  0.80704  0.79845  0.37142  1.0000
  H   H2197     1.0  0.98416  0.96266  0.23610  1.0000
  H   H2198     1.0  0.78741  0.76931  0.33683  1.0000
  H   H2199     1.0  0.80525  0.78286  0.32441  1.0000
  H   H2200     1.0  0.78579  0.78211  0.30153  1.0000
  H   H2201     1.0  0.78116  0.82477  0.34116  1.0000
  H   H2202     1.0  0.80114  0.81576  0.32555  1.0000
  H   H2203     1.0  0.79221  0.88329  0.07257  1.0000
  H   H2204     1.0  0.95076  0.99421  0.20753  1.0000
  N   N124      1.0  0.78891  0.87832  0.02321  1.0000
  H   H2205     1.0  0.89610  0.91367  0.44307  1.0000
  H   H2206     1.0  0.81157  0.88598  0.04978  1.0000
  H   H2207     1.0  0.87957  0.87863  0.01123  1.0000
  C   C1840     1.0  0.87181  0.70259  0.36170  1.0000
  H   H2208     1.0  0.87697  0.86956  0.39367  1.0000
  H   H2209     1.0  0.80847  0.76681  0.45162  1.0000
  H   H2210     1.0  0.79088  0.78472  0.38828  1.0000
  H   H2211     1.0  0.91687  0.88439  0.39165  1.0000
  H   H2212     1.0  0.78915  0.85153  0.00696  1.0000
  H   H2213     1.0  0.89679  0.86785  0.41581  1.0000
  H   H2214     1.0  0.80269  0.70818  0.45935  1.0000
  H   H2215     1.0  0.78927  0.69639  0.39660  1.0000
  C   C1841     1.0  0.88514  0.71205  0.03489  1.0000
  C   C1842     1.0  0.94651  0.97998  0.26537  1.0000
  C   C1843     1.0  0.76191  0.70711  0.42829  1.0000
  C   C1844     1.0  0.97218  0.96360  0.25098  1.0000
  H   H2216     1.0  0.78776  0.69076  0.45534  1.0000
  C   C1845     1.0  0.76409  0.74404  0.43753  1.0000
  S   S493      1.0  0.82653  0.68110  0.38954  1.0000
  C   C1846     1.0  0.78849  0.70524  0.45782  1.0000
  H   H2217     1.0  0.78848  0.80836  0.38955  1.0000
  C   C1847     1.0  0.79564  0.74245  0.44208  1.0000
  H   H2218     1.0  0.87879  0.72716  0.40271  1.0000
  H   H2219     1.0  0.93808  0.96883  0.25849  1.0000
  H   H2220     1.0  0.94935  0.97869  0.29080  1.0000
  C   C1848     1.0  0.77967  0.73363  0.43706  1.0000
  H   H2221     1.0  0.75985  0.86642  0.33085  1.0000
  C   C1849     1.0  0.79604  0.76045  0.44768  1.0000
  C   C1850     1.0  0.76462  0.76205  0.44332  1.0000
  H   H2222     1.0  0.96390  0.95242  0.24375  1.0000
  C   C1851     1.0  0.75988  0.89075  0.04359  1.0000
  C   C1852     1.0  0.91375  0.99603  0.21372  1.0000
  C   C1853     1.0  0.90269  0.68105  0.41238  1.0000
  H   H2223     1.0  0.78233  0.70874  0.48063  1.0000
  H   H2224     1.0  0.86531  0.74421  0.04738  1.0000
  C   C1854     1.0  0.97327  0.99597  0.25597  1.0000
  H   H2225     1.0  0.89685  0.67973  0.33309  1.0000
  C   C1855     1.0  0.87042  0.76632  0.01855  1.0000
  C   C1856     1.0  0.78055  0.77022  0.44854  1.0000
  N   N125      1.0  0.87369  0.71693  0.00823  1.0000
  H   H2226     1.0  0.88464  0.69770  0.03990  1.0000
  H   H2227     1.0  0.78370  0.71776  0.38187  1.0000
  H   H2228     1.0  0.84623  0.71685  0.99764  1.0000
  H   H2229     1.0  0.76241  0.69268  0.42464  1.0000
  H   H2230     1.0  0.81163  0.88385  0.99469  1.0000
  C   C1857     1.0  0.79707  0.88463  0.99371  1.0000
  Fe  Fe248     1.0  0.84770  0.69143  0.91930  1.0000
  H   H2231     1.0  0.92398  0.98970  0.79762  1.0000
  S   S494      1.0  0.85549  0.71865  0.90179  1.0000
  H   H2232     1.0  0.82764  0.76002  0.97597  1.0000
  Fe  Fe249     1.0  0.90967  0.94132  0.68620  1.0000
  S   S495      1.0  0.91932  0.92199  0.72230  1.0000
  S   S496      1.0  0.90409  0.97061  0.69293  1.0000
  Fe  Fe250     1.0  0.90379  0.91226  0.63591  1.0000
  S   S497      1.0  0.91372  0.89137  0.66880  1.0000
  S   S498      1.0  0.88960  0.90852  0.58859  1.0000
  Fe  Fe251     1.0  0.89762  0.90466  0.70616  1.0000
  S   S499      1.0  0.87709  0.88890  0.73247  1.0000
  Fe  Fe252     1.0  0.93494  0.91037  0.68218  1.0000
  S   S500      1.0  0.96211  0.89962  0.69514  1.0000
  S   S501      1.0  0.88675  0.92474  0.67294  1.0000
  S   S502      1.0  0.92625  0.93057  0.64651  1.0000
  Fe  Fe253     1.0  0.83893  0.82295  0.94051  1.0000
  S   S503      1.0  0.81977  0.83860  0.96931  1.0000
  S   S504      1.0  0.83803  0.79441  0.95736  1.0000
  Fe  Fe254     1.0  0.85042  0.85638  0.90672  1.0000
  S   S505      1.0  0.83142  0.87361  0.93353  1.0000
  S   S506      1.0  0.87140  0.87039  0.87786  1.0000
  Fe  Fe255     1.0  0.84068  0.85867  0.97611  1.0000
  H   H2233     1.0  0.83860  0.89610  0.59663  1.0000
  Fe  Fe256     1.0  0.81195  0.85217  0.92467  1.0000
  S   S507      1.0  0.78204  0.85608  0.92183  1.0000
  S   S508      1.0  0.86043  0.84224  0.95007  1.0000
  S   S509      1.0  0.83032  0.83572  0.89508  1.0000
  C   C1858     1.0  0.76706  0.85405  0.89009  1.0000
  C   C1859     1.0  0.77231  0.85566  0.85879  1.0000
  H   H2234     1.0  0.78599  0.85756  0.85324  1.0000
  H   H2235     1.0  0.93335  0.85814  0.87666  1.0000
  C   C1860     1.0  0.98306  0.90771  0.68398  1.0000
  C   C1861     1.0  0.98500  0.92138  0.66236  1.0000
  C   C1862     1.0  0.75977  0.85526  0.83459  1.0000
  H   H2236     1.0  0.97351  0.92742  0.65202  1.0000
  H   H2237     1.0  0.87884  0.97619  0.76093  1.0000
  C   C1863     1.0  0.87562  0.88417  0.77306  1.0000
  C   C1864     1.0  0.86249  0.87282  0.78371  1.0000
  C   C1865     1.0  0.86083  0.86862  0.81575  1.0000
  C   C1866     1.0  0.87234  0.87576  0.83747  1.0000
  C   C1867     1.0  0.88542  0.88719  0.82679  1.0000
  C   C1868     1.0  0.88702  0.89145  0.79477  1.0000
  H   H2238     1.0  0.85357  0.86715  0.76711  1.0000
  H   H2239     1.0  0.85077  0.85976  0.82364  1.0000
  H   H2240     1.0  0.89438  0.89274  0.84346  1.0000
  H   H2241     1.0  0.89700  0.90038  0.78698  1.0000
  C   C1869     1.0  0.88368  0.89131  0.56230  1.0000
  C   C1870     1.0  0.88963  0.87401  0.56590  1.0000
  C   C1871     1.0  0.88415  0.86087  0.54501  1.0000
  C   C1872     1.0  0.87275  0.86473  0.51997  1.0000
  C   C1873     1.0  0.86701  0.88207  0.51602  1.0000
  C   C1874     1.0  0.87245  0.89522  0.53699  1.0000
  H   H2242     1.0  0.89857  0.87073  0.58463  1.0000
  H   H2243     1.0  0.88878  0.84756  0.54831  1.0000
  H   H2244     1.0  0.82987  0.85488  0.53217  1.0000
  H   H2245     1.0  0.86773  0.90850  0.53384  1.0000
  C   C1875     1.0  0.87292  0.87127  0.64689  1.0000
  C   C1876     1.0  0.90858  0.98596  0.72305  1.0000
  C   C1877     1.0  0.91608  0.98107  0.75170  1.0000
  H   H2246     1.0  0.84335  0.83347  0.56830  1.0000
  H   H2247     1.0  0.91992  0.96758  0.75568  1.0000
  C   C1878     1.0  0.84894  0.73967  0.91574  1.0000
  C   C1879     1.0  0.83866  0.74174  0.94266  1.0000
  C   C1880     1.0  0.83514  0.75862  0.95458  1.0000
  C   C1881     1.0  0.84137  0.77368  0.93925  1.0000
  C   C1882     1.0  0.85102  0.77166  0.91155  1.0000
  C   C1883     1.0  0.85492  0.75474  0.90007  1.0000
  H   H2248     1.0  0.83359  0.73036  0.95447  1.0000
  H   H2249     1.0  0.88550  0.76550  0.94382  1.0000
  H   H2250     1.0  0.85597  0.78308  0.89955  1.0000
  H   H2251     1.0  0.86282  0.75330  0.87914  1.0000
  C   C1884     1.0  0.99821  0.89997  0.69700  1.0000
  C   C1885     1.0  0.88157  0.76066  0.96668  1.0000
  H   H2252     1.0  0.79328  0.87673  0.97311  1.0000
  N   N126      1.0  0.86894  0.95080  0.77440  1.0000
  C   C1886     1.0  0.85417  0.95343  0.75227  1.0000
  C   C1887     1.0  0.87562  0.96842  0.78233  1.0000
  C   C1888     1.0  0.88314  0.94105  0.75816  1.0000
  C   C1889     1.0  0.86329  0.94052  0.80208  1.0000
  C   C1890     1.0  0.86718  0.94552  0.83332  1.0000
  C   C1891     1.0  0.85455  0.92438  0.79818  1.0000
  C   C1892     1.0  0.86246  0.93499  0.85885  1.0000
  C   C1893     1.0  0.84962  0.91416  0.82390  1.0000
  C   C1894     1.0  0.85374  0.91933  0.85414  1.0000
  H   H2253     1.0  0.84267  0.95953  0.76426  1.0000
  H   H2254     1.0  0.85789  0.96208  0.73224  1.0000
  H   H2255     1.0  0.84989  0.94104  0.74141  1.0000
  H   H2256     1.0  0.86575  0.97620  0.79575  1.0000
  H   H2257     1.0  0.88800  0.96765  0.79595  1.0000
  H   H2258     1.0  0.87880  0.92801  0.74996  1.0000
  H   H2259     1.0  0.88790  0.94832  0.73720  1.0000
  H   H2260     1.0  0.89453  0.93881  0.77390  1.0000
  H   H2261     1.0  0.87408  0.95736  0.83869  1.0000
  H   H2262     1.0  0.85193  0.91919  0.77521  1.0000
  H   H2263     1.0  0.86578  0.93884  0.88247  1.0000
  H   H2264     1.0  0.84310  0.90181  0.82036  1.0000
  H   H2265     1.0  0.85047  0.91096  0.87389  1.0000
  N   N127      1.0  0.93838  0.87225  0.77040  1.0000
  C   C1895     1.0  0.94124  0.89102  0.77728  1.0000
  C   C1896     1.0  0.95564  0.86361  0.76525  1.0000
  C   C1897     1.0  0.92853  0.87137  0.74055  1.0000
  C   C1898     1.0  0.92924  0.86384  0.79708  1.0000
  C   C1899     1.0  0.91297  0.85514  0.79390  1.0000
  C   C1900     1.0  0.93654  0.86435  0.82759  1.0000
  C   C1901     1.0  0.00187  0.92703  0.65363  1.0000
  H   H2266     1.0  0.85409  0.84255  0.61941  1.0000
  H   H2267     1.0  0.95024  0.89297  0.79725  1.0000
  H   H2268     1.0  0.94731  0.89796  0.75701  1.0000
  H   H2269     1.0  0.92867  0.89782  0.78288  1.0000
  H   H2270     1.0  0.96444  0.86490  0.78571  1.0000
  H   H2271     1.0  0.96270  0.86946  0.74483  1.0000
  H   H2272     1.0  0.95412  0.84939  0.76057  1.0000
  H   H2273     1.0  0.91555  0.87810  0.74245  1.0000
  H   H2274     1.0  0.93573  0.87784  0.72105  1.0000
  H   H2275     1.0  0.92657  0.85763  0.73303  1.0000
  H   H2276     1.0  0.90621  0.85419  0.77185  1.0000
  H   H2277     1.0  0.94895  0.87052  0.83179  1.0000
  H   H2278     1.0  0.85808  0.88529  0.49727  1.0000
  H   H2279     1.0  0.76654  0.86437  0.98015  1.0000
  H   H2280     1.0  0.84886  0.87033  0.69365  1.0000
  C   C1902     1.0  0.83301  0.87661  0.56342  1.0000
  H   H2281     1.0  0.87826  0.87470  0.67021  1.0000
  C   C1903     1.0  0.87614  0.77245  0.98956  1.0000
  C   C1904     1.0  0.76430  0.70989  0.87837  1.0000
  H   H2282     1.0  0.82749  0.88601  0.54701  1.0000
  S   S510      1.0  0.83332  0.67307  0.88739  1.0000
  H   H2283     1.0  0.76855  0.69933  0.89373  1.0000
  C   C1905     1.0  0.90448  0.84784  0.81985  1.0000
  H   H2284     1.0  0.76399  0.85682  0.81053  1.0000
  C   C1906     1.0  0.85191  0.89460  0.65090  1.0000
  C   C1907     1.0  0.91174  0.84908  0.84956  1.0000
  H   H2285     1.0  0.85710  0.89815  0.67433  1.0000
  C   C1908     1.0  0.84193  0.84701  0.57545  1.0000
  C   C1909     1.0  0.88096  0.74265  0.97233  1.0000
  H   H2286     1.0  0.85933  0.90255  0.63345  1.0000
  C   C1910     1.0  0.91837  0.99366  0.77544  1.0000
  C   C1911     1.0  0.83428  0.85907  0.55502  1.0000
  C   C1912     1.0  0.83949  0.88223  0.59220  1.0000
  C   C1913     1.0  0.77485  0.72445  0.87440  1.0000
  C   C1914     1.0  0.84458  0.86607  0.66996  1.0000
  S   S511      1.0  0.83137  0.68547  0.96174  1.0000
  C   C1915     1.0  0.84821  0.85241  0.60449  1.0000
  H   H2287     1.0  0.83019  0.86837  0.66835  1.0000
  H   H2288     1.0  0.87582  0.85717  0.64336  1.0000
  C   C1916     1.0  0.84723  0.87022  0.61378  1.0000
  H   H2289     1.0  0.88050  0.87868  0.62906  1.0000
  H   H2290     1.0  0.89180  0.84180  0.81718  1.0000
  H   H2291     1.0  0.87581  0.78637  0.98441  1.0000
  H   H2292     1.0  0.78727  0.72517  0.88655  1.0000
  H   H2293     1.0  0.84699  0.85172  0.66904  1.0000
  C   C1917     1.0  0.92780  0.85719  0.85341  1.0000
  H   H2294     1.0  0.90468  0.84403  0.86972  1.0000
  H   H2295     1.0  0.83791  0.89877  0.65057  1.0000
  C   C1918     1.0  0.76941  0.73811  0.85490  1.0000
  H   H2296     1.0  0.99692  0.88937  0.71367  1.0000
  N   N128      1.0  0.85398  0.87558  0.64472  1.0000
  C   C1919     1.0  0.87889  0.70577  0.98132  1.0000
  H   H2297     1.0  0.88458  0.73433  0.95291  1.0000
  H   H2298     1.0  0.87026  0.70820  0.96077  1.0000
  H   H2299     1.0  0.79332  0.89847  0.98872  1.0000
  S   S512      1.0  0.86587  0.84728  0.49510  1.0000
  H   H2300     1.0  0.89271  0.70790  0.97414  1.0000
  H   H2301     1.0  0.77766  0.74948  0.85209  1.0000
  H   H2302     1.0  0.00318  0.93741  0.63652  1.0000
  H   H2303     1.0  0.87787  0.69160  0.98711  1.0000
  H   H2304     1.0  0.97019  0.00401  0.78988  1.0000
  C   C1920     1.0  0.90372  0.00360  0.71838  1.0000
