data_image0
_chemical_formula_structural       Fe2S2FeSCSCH2C4HC6H5S2HCNH2C4H3SHCNSHC3H2CH5C3HCH3CH6C8HCH5C2H3CNC2NH2C4H3FeHC2HSCHFeS2FeS2FeSCS2HSNCH4SH2C7H4CSH3C5HNHFeCSH3CH2C2H3FeH2CH4CHCHFeC3H2C5HCHC2H2FeSHFeS2FeSFeS4FeSC6H4CH2C2HC4H3NC6H4CH7C2SHC2HCH7NCH6CH4CH2CHC4H2CH4CHCH5NC4HC3H3CHCH2CFeS2FeSCFeSFeS4C6H4C5H2CH3CHCHNH2SHCHCH3CH5CNH2C2SFeH2SH2C2HCH8C4FeC3H7C2HC2H2C3NHCH2C2HCH6CNC2HCH2C2HC2FeHSH5SFeS2FeSFeSFeS3C6H6CSC7H2NCH2NCH2CSH4C3HCH2CH3C2HC2H3FeH3SCHCFeCHCH5CHSHC2H2Fe2S2FeSHS2C3H2CH2CSHSC2HC2HC2FeC3H8C2HC2HSC2HC2HC3H3CNCH2CHC2H2SC2H2CHCH2CH2CHFeHCSNSFeS2FeSFeS3C2HFeSCHC6H4C6H6C2HNCH2CHCFeHC2HC3HC3HCHC2SCHCH3SCH2C2HCH2CH3CH6CH8FeC2SFeS2FeSHFeSFeS3H2C2H2C6H2SHC2H2C2HC5H2NH3CHC2H3CH5C2HCHCH2C4H3CH3CH3CH3SCH2NC4HSH2NH4C4HCH3C2HC2FeS2FeS2FeHFeS4HNC2H3C6H5SHCNH2C4H2CH6C2H3CHSCHNHC3HC2HFeCH2CHC2H2C3HCH3C3HC3HC3H2FeS2FeS2FeSFeS3CFeSH2CHC6H4SH2SCH2CH3CH5NC4HCHCH3CNCFeHSCHCHC2HCH2CHCHCH3FeSHFeS2FeSFeS3CNCHCHC7H4C2H5SHCH2C2HC5H4CNHCH2C2HCH2SCH2CHNCH2CHC2H2CH3C2HSH3CH2CH7FeS2FeSFeSFeS3H2SC2SCH2C6H4C6H5CHNC5H6FeC2NH3CFeHCHCH2CHSNC2HCH8C2HCH3CH2C3HCH2C2HCH2SH2C
_chemical_formula_sum              "Fe64 S128 C480 H576 N32"
_cell_length_a       39.9943
_cell_length_b       39.9146
_cell_length_c       36.0834
_cell_angle_alpha    90.1964
_cell_angle_beta     90.5333
_cell_angle_gamma    89.9194

_space_group_name_H-M_alt    "P 1"
_space_group_IT_number       1

loop_
  _space_group_symop_operation_xyz
  'x, y, z'

loop_
  _atom_site_type_symbol
  _atom_site_label
  _atom_site_symmetry_multiplicity
  _atom_site_fract_x
  _atom_site_fract_y
  _atom_site_fract_z
  _atom_site_occupancy
  Fe  Fe1       1.0  0.45677  0.17244  0.36859  1.0000
  Fe  Fe2       1.0  0.42717  0.15203  0.29368  1.0000
  S   S1        1.0  0.44817  0.19728  0.26536  1.0000
  S   S2        1.0  0.39134  0.11898  0.26113  1.0000
  Fe  Fe3       1.0  0.43012  0.22634  0.31506  1.0000
  S   S3        1.0  0.40553  0.27800  0.30718  1.0000
  C   C1        1.0  0.37515  0.00309  0.33113  1.0000
  S   S4        1.0  0.40647  0.18160  0.34146  1.0000
  C   C2        1.0  0.27279  0.27529  0.23459  1.0000
  H   H1        1.0  0.41335  0.00033  0.15124  1.0000
  H   H2        1.0  0.33302  0.19828  0.26022  1.0000
  C   C3        1.0  0.43485  0.02710  0.25454  1.0000
  C   C4        1.0  0.41069  0.00826  0.23515  1.0000
  C   C5        1.0  0.48916  0.10294  0.16453  1.0000
  C   C6        1.0  0.32977  0.25606  0.22074  1.0000
  H   H3        1.0  0.38250  0.29222  0.44345  1.0000
  C   C7        1.0  0.39991  0.07671  0.25048  1.0000
  C   C8        1.0  0.42968  0.06132  0.26183  1.0000
  C   C9        1.0  0.34362  0.31362  0.47711  1.0000
  C   C10       1.0  0.41322  0.00700  0.12128  1.0000
  C   C11       1.0  0.38135  0.02386  0.22289  1.0000
  C   C12       1.0  0.37591  0.05796  0.23076  1.0000
  H   H4        1.0  0.44845  0.07563  0.27670  1.0000
  H   H5        1.0  0.39934  0.25534  0.22736  1.0000
  H   H6        1.0  0.45928  0.09458  0.38999  1.0000
  H   H7        1.0  0.35283  0.06978  0.22189  1.0000
  H   H8        1.0  0.32798  0.04502  0.03936  1.0000
  S   S5        1.0  0.47511  0.13857  0.32305  1.0000
  S   S6        1.0  0.47921  0.21936  0.34572  1.0000
  H   H9        1.0  0.44526  0.07275  0.34930  1.0000
  C   C13       1.0  0.44328  0.06407  0.15587  1.0000
  N   N1        1.0  0.35378  0.22810  0.21581  1.0000
  H   H10       1.0  0.07439  0.29657  0.25165  1.0000
  H   H11       1.0  0.41836  0.05726  0.16418  1.0000
  C   C14       1.0  0.36351  0.29218  0.31294  1.0000
  C   C15       1.0  0.33777  0.27086  0.32410  1.0000
  C   C16       1.0  0.30466  0.28293  0.32661  1.0000
  C   C17       1.0  0.29681  0.31658  0.31874  1.0000
  H   H12       1.0  0.34325  0.24501  0.33064  1.0000
  H   H13       1.0  0.28490  0.26598  0.33447  1.0000
  H   H14       1.0  0.39235  0.10203  0.35381  1.0000
  S   S7        1.0  0.45879  0.15738  0.42923  1.0000
  H   H15       1.0  0.08855  0.24074  0.06458  1.0000
  C   C18       1.0  0.06954  0.32257  0.24511  1.0000
  N   N2        1.0  0.41236  0.06874  0.39620  1.0000
  S   S8        1.0  0.01624  0.29873  0.20393  1.0000
  H   H16       1.0  0.24745  0.26984  0.24313  1.0000
  C   C19       1.0  0.34145  0.20515  0.18627  1.0000
  C   C20       1.0  0.09591  0.26318  0.05015  1.0000
  C   C21       1.0  0.39206  0.09809  0.38430  1.0000
  H   H17       1.0  0.35206  0.30103  0.50209  1.0000
  H   H18       1.0  0.04039  0.25548  0.09345  1.0000
  C   C22       1.0  0.34345  0.02693  0.02512  1.0000
  H   H19       1.0  0.36698  0.22509  0.27349  1.0000
  H   H20       1.0  0.35952  0.18443  0.18091  1.0000
  H   H21       1.0  0.46924  0.02927  0.05579  1.0000
  H   H22       1.0  0.08033  0.28532  0.15860  1.0000
  H   H23       1.0  0.28749  0.22415  0.23503  1.0000
  C   C23       1.0  0.44455  0.02400  0.06831  1.0000
  C   C24       1.0  0.09220  0.28224  0.13089  1.0000
  C   C25       1.0  0.11155  0.25921  0.01588  1.0000
  H   H24       1.0  0.43363  0.05134  0.44806  1.0000
  C   C26       1.0  0.44618  0.07156  0.38009  1.0000
  H   H25       1.0  0.45754  0.01514  0.26430  1.0000
  H   H26       1.0  0.40169  0.12190  0.39659  1.0000
  H   H27       1.0  0.39141  0.06797  0.45109  1.0000
  C   C27       1.0  0.28228  0.30844  0.22925  1.0000
  H   H28       1.0  0.38743  0.25343  0.17877  1.0000
  H   H29       1.0  0.44300  0.10569  0.19424  1.0000
  H   H30       1.0  0.37463  0.18749  0.24784  1.0000
  H   H31       1.0  0.31752  0.19290  0.19372  1.0000
  H   H32       1.0  0.36555  0.09538  0.39289  1.0000
  H   H33       1.0  0.36248  0.00950  0.20819  1.0000
  C   C28       1.0  0.10007  0.32344  0.04404  1.0000
  C   C29       1.0  0.36085  0.30862  0.44416  1.0000
  C   C30       1.0  0.41600  0.07062  0.43721  1.0000
  C   C31       1.0  0.35393  0.99760  0.04356  1.0000
  C   C32       1.0  0.38830  0.03314  0.34485  1.0000
  C   C33       1.0  0.39126  0.00921  0.40638  1.0000
  C   C34       1.0  0.39679  0.03720  0.38289  1.0000
  C   C35       1.0  0.38782  0.23930  0.20529  1.0000
  H   H34       1.0  0.11786  0.29292  0.13279  1.0000
  C   C36       1.0  0.08949  0.29545  0.06525  1.0000
  H   H35       1.0  0.39217  0.05308  0.32524  1.0000
  H   H36       1.0  0.43374  0.00250  0.05244  1.0000
  H   H37       1.0  0.42661  0.09515  0.44640  1.0000
  H   H38       1.0  0.40513  0.21774  0.20134  1.0000
  H   H39       1.0  0.33731  0.21887  0.15979  1.0000
  C   C37       1.0  0.35708  0.20895  0.25079  1.0000
  C   C38       1.0  0.49387  0.05764  0.12012  1.0000
  H   H40       1.0  0.39718  0.00969  0.43562  1.0000
  H   H41       1.0  0.02498  0.28562  0.12538  1.0000
  H   H42       1.0  0.46207  0.04971  0.38779  1.0000
  C   C39       1.0  0.29605  0.24940  0.23027  1.0000
  N   N3        1.0  0.07232  0.29891  0.10130  1.0000
  C   C40       1.0  0.35577  0.32601  0.30571  1.0000
  C   C41       1.0  0.03897  0.28280  0.09903  1.0000
  N   N4        1.0  0.44710  0.01659  0.10853  1.0000
  H   H43       1.0  0.36398  0.29807  0.21022  1.0000
  H   H44       1.0  0.09458  0.25483  0.12623  1.0000
  C   C42       1.0  0.46124  0.04596  0.12842  1.0000
  C   C43       1.0  0.31515  0.31591  0.22003  1.0000
  C   C44       1.0  0.33875  0.29027  0.21608  1.0000
  C   C45       1.0  0.45718  0.09213  0.17350  1.0000
  H   H45       1.0  0.42813  0.04609  0.06303  1.0000
  H   H46       1.0  0.02353  0.29411  0.07655  1.0000
  H   H47       1.0  0.39465  0.02734  0.11631  1.0000
  Fe  Fe4       1.0  0.49479  0.18607  0.29826  1.0000
  H   H48       1.0  0.36369  0.32071  0.38636  1.0000
  C   C46       1.0  0.11597  0.31913  0.00997  1.0000
  C   C47       1.0  0.35022  0.32468  0.41197  1.0000
  H   H49       1.0  0.36921  0.00055  0.30184  1.0000
  S   S9        1.0  0.25411  0.32954  0.31997  1.0000
  C   C48       1.0  0.49529  0.15562  0.49421  1.0000
  H   H50       1.0  0.26441  0.32849  0.23374  1.0000
  Fe  Fe5       1.0  0.34517  0.07636  0.90330  1.0000
  S   S10       1.0  0.30644  0.05813  0.86245  1.0000
  S   S11       1.0  0.33788  0.06937  0.96537  1.0000
  Fe  Fe6       1.0  0.39020  0.10304  0.84127  1.0000
  S   S12       1.0  0.35511  0.08594  0.79623  1.0000
  S   S13       1.0  0.44211  0.12462  0.83290  1.0000
  Fe  Fe7       1.0  0.31440  0.10749  0.83308  1.0000
  S   S14       1.0  0.27213  0.13822  0.80553  1.0000
  C   C49       1.0  0.41998  0.21516  0.78373  1.0000
  S   S15       1.0  0.35035  0.12710  0.87641  1.0000
  S   S16       1.0  0.38815  0.05464  0.87230  1.0000
  H   H51       1.0  0.35705  0.16003  0.76717  1.0000
  S   S17       1.0  0.09881  0.29792  0.86620  1.0000
  N   N5        1.0  0.45949  0.01696  0.76133  1.0000
  C   C50       1.0  0.38693  0.23126  0.73005  1.0000
  H   H52       1.0  0.48011  0.00244  0.63192  1.0000
  H   H53       1.0  0.47162  0.07224  0.71817  1.0000
  H   H54       1.0  0.42285  0.20506  0.81137  1.0000
  H   H55       1.0  0.43619  0.02581  0.70785  1.0000
  S   S18       1.0  0.19403  0.27286  0.85230  1.0000
  H   H56       1.0  0.03699  0.27294  0.66978  1.0000
  H   H57       1.0  0.47343  0.21704  0.77689  1.0000
  C   C51       1.0  0.45472  0.14582  0.72365  1.0000
  C   C52       1.0  0.25018  0.17518  0.81972  1.0000
  C   C53       1.0  0.25939  0.19363  0.85126  1.0000
  C   C54       1.0  0.24193  0.22331  0.86061  1.0000
  C   C55       1.0  0.21481  0.23495  0.83888  1.0000
  C   C56       1.0  0.20566  0.21650  0.80731  1.0000
  C   C57       1.0  0.22333  0.18699  0.79776  1.0000
  H   H58       1.0  0.27986  0.18501  0.86856  1.0000
  H   H59       1.0  0.24928  0.23724  0.88511  1.0000
  H   H60       1.0  0.18502  0.22501  0.79018  1.0000
  H   H61       1.0  0.21597  0.17309  0.77322  1.0000
  C   C58       1.0  0.32567  0.21932  0.76836  1.0000
  S   S19       1.0  0.02226  0.29714  0.79530  1.0000
  H   H62       1.0  0.01074  0.28373  0.96647  1.0000
  H   H63       1.0  0.30331  0.21277  0.78515  1.0000
  H   H64       1.0  0.45241  0.05450  0.80365  1.0000
  C   C59       1.0  0.44921  0.22179  0.76417  1.0000
  C   C60       1.0  0.35237  0.03277  0.98806  1.0000
  C   C61       1.0  0.38787  0.21971  0.76731  1.0000
  C   C62       1.0  0.44026  0.13549  0.75712  1.0000
  C   C63       1.0  0.45981  0.13370  0.78937  1.0000
  H   H65       1.0  0.33509  0.16601  0.80975  1.0000
  N   N6        1.0  0.35738  0.21057  0.78793  1.0000
  H   H66       1.0  0.47025  0.23634  0.71204  1.0000
  Fe  Fe8       1.0  0.14785  0.30482  0.83630  1.0000
  C   C64       1.0  0.41641  0.23750  0.71062  1.0000
  S   S20       1.0  0.12252  0.31639  0.78118  1.0000
  H   H67       1.0  0.33323  0.22272  0.83965  1.0000
  H   H68       1.0  0.35935  0.25529  0.82137  1.0000
  H   H69       1.0  0.32261  0.20501  0.74201  1.0000
  C   C65       1.0  0.44745  0.23264  0.72759  1.0000
  H   H70       1.0  0.37732  0.21892  0.84333  1.0000
  H   H71       1.0  0.37974  0.16535  0.80994  1.0000
  C   C66       1.0  0.35741  0.17393  0.79397  1.0000
  C   C67       1.0  0.49234  0.03079  0.75059  1.0000
  H   H72       1.0  0.13323  0.28409  0.96898  1.0000
  H   H73       1.0  0.43920  0.14846  0.69910  1.0000
  H   H74       1.0  0.32407  0.24664  0.76257  1.0000
  Fe  Fe9       1.0  0.35013  0.03874  0.82968  1.0000
  H   H75       1.0  0.33768  0.00245  0.74158  1.0000
  H   H76       1.0  0.36378  0.23506  0.71504  1.0000
  C   C68       1.0  0.35695  0.22767  0.82456  1.0000
  H   H77       1.0  0.41483  0.03300  0.78980  1.0000
  H   H78       1.0  0.41382  0.13010  0.75819  1.0000
  H   H79       1.0  0.41529  0.24548  0.68195  1.0000
  H   H80       1.0  0.43203  0.06396  0.76047  1.0000
  C   C69       1.0  0.12148  0.28715  0.99578  1.0000
  H   H81       1.0  0.47158  0.15093  0.50741  1.0000
  C   C70       1.0  0.01947  0.30853  0.97393  1.0000
  H   H82       1.0  0.05517  0.31046  0.92959  1.0000
  Fe  Fe10      1.0  0.07420  0.31430  0.81278  1.0000
  C   C71       1.0  0.43894  0.04324  0.77948  1.0000
  C   C72       1.0  0.00472  0.31841  0.75696  1.0000
  C   C73       1.0  0.37235  0.00928  0.96984  1.0000
  H   H83       1.0  0.37934  0.01338  0.94136  1.0000
  H   H84       1.0  0.00747  0.32297  0.88286  1.0000
  C   C74       1.0  0.00520  0.32535  0.00413  1.0000
  C   C75       1.0  0.48890  0.15376  0.72196  1.0000
  C   C76       1.0  0.44178  0.00511  0.72750  1.0000
  C   C77       1.0  0.04453  0.32374  0.95279  1.0000
  C   C78       1.0  0.49400  0.05945  0.72745  1.0000
  H   H85       1.0  0.26398  0.01282  0.97551  1.0000
  C   C79       1.0  0.01212  0.26401  0.67622  1.0000
  H   H86       1.0  0.02747  0.24348  0.72876  1.0000
  C   C80       1.0  0.00684  0.24734  0.70947  1.0000
  C   C81       1.0  0.49415  0.14088  0.78750  1.0000
  H   H87       1.0  0.11582  0.23435  0.00462  1.0000
  H   H88       1.0  0.30121  0.99838  0.92381  1.0000
  Fe  Fe11      1.0  0.22751  0.38066  0.31876  1.0000
  S   S21       1.0  0.17844  0.38022  0.34951  1.0000
  H   H89       1.0  0.25872  0.36258  0.38875  1.0000
  Fe  Fe12      1.0  0.21892  0.45493  0.30049  1.0000
  S   S22       1.0  0.17081  0.45927  0.33125  1.0000
  S   S23       1.0  0.23740  0.50311  0.27516  1.0000
  Fe  Fe13      1.0  0.19603  0.42869  0.37515  1.0000
  S   S24       1.0  0.18962  0.43521  0.43748  1.0000
  Fe  Fe14      1.0  0.15748  0.41088  0.30254  1.0000
  S   S25       1.0  0.10596  0.41449  0.27506  1.0000
  S   S26       1.0  0.24580  0.42776  0.34687  1.0000
  S   S27       1.0  0.20490  0.40793  0.26951  1.0000
  S   S28       1.0  0.08733  0.64148  0.12402  1.0000
  Fe  Fe15      1.0  0.13802  0.62623  0.14544  1.0000
  S   S29       1.0  0.14225  0.57012  0.15436  1.0000
  C   C82       1.0  0.21159  0.52158  0.24090  1.0000
  C   C83       1.0  0.21370  0.55616  0.23413  1.0000
  C   C84       1.0  0.19262  0.57150  0.20766  1.0000
  C   C85       1.0  0.16981  0.55215  0.18728  1.0000
  C   C86       1.0  0.16805  0.51752  0.19368  1.0000
  C   C87       1.0  0.18864  0.50232  0.22058  1.0000
  H   H90       1.0  0.23147  0.57116  0.24970  1.0000
  H   H91       1.0  0.19420  0.59820  0.20288  1.0000
  H   H92       1.0  0.15051  0.50236  0.17799  1.0000
  H   H93       1.0  0.18692  0.47565  0.22547  1.0000
  C   C88       1.0  0.08327  0.38154  0.25354  1.0000
  H   H94       1.0  0.05129  0.41578  0.22366  1.0000
  H   H95       1.0  0.12229  0.51705  0.38097  1.0000
  C   C89       1.0  0.12257  0.53092  0.40682  1.0000
  C   C90       1.0  0.32223  0.34569  0.41252  1.0000
  H   H96       1.0  0.11034  0.34113  0.27938  1.0000
  C   C91       1.0  0.22633  0.52715  0.46621  1.0000
  C   C92       1.0  0.21711  0.49870  0.44528  1.0000
  C   C93       1.0  0.20261  0.47116  0.46272  1.0000
  C   C94       1.0  0.25703  0.37580  0.48140  1.0000
  H   H97       1.0  0.23745  0.54839  0.45244  1.0000
  H   H98       1.0  0.22102  0.49823  0.41565  1.0000
  H   H99       1.0  0.09594  0.34899  0.05273  1.0000
  N   N7        1.0  0.09371  0.53471  0.27431  1.0000
  C   C95       1.0  0.08774  0.53114  0.23387  1.0000
  C   C96       1.0  0.12932  0.52707  0.28248  1.0000
  C   C97       1.0  0.07325  0.50889  0.29311  1.0000
  C   C98       1.0  0.08596  0.56948  0.28592  1.0000
  C   C99       1.0  0.10429  0.59679  0.27121  1.0000
  C   C100      1.0  0.05974  0.57746  0.31087  1.0000
  H   H100      1.0  0.11044  0.57810  0.38148  1.0000
  H   H101      1.0  0.14678  0.63167  0.48451  1.0000
  H   H102      1.0  0.10348  0.54844  0.21750  1.0000
  H   H103      1.0  0.22575  0.37542  0.41813  1.0000
  C   C101      1.0  0.12991  0.51437  0.43979  1.0000
  H   H104      1.0  0.14668  0.54349  0.26709  1.0000
  H   H105      1.0  0.13591  0.50091  0.27441  1.0000
  H   H106      1.0  0.13525  0.53018  0.31244  1.0000
  H   H107      1.0  0.08033  0.48305  0.28417  1.0000
  H   H108      1.0  0.08585  0.59812  0.04830  1.0000
  H   H109      1.0  0.04616  0.51176  0.28642  1.0000
  H   H110      1.0  0.12403  0.59285  0.25132  1.0000
  C   C102      1.0  0.01682  0.61307  0.23637  1.0000
  C   C103      1.0  0.11707  0.58308  0.44067  1.0000
  S   S30       1.0  0.16483  0.65323  0.10039  1.0000
  H   H111      1.0  0.00590  0.37056  0.03681  1.0000
  C   C104      1.0  0.03549  0.63730  0.21748  1.0000
  C   C105      1.0  0.08997  0.34777  0.26087  1.0000
  H   H112      1.0  0.13837  0.53206  0.08691  1.0000
  C   C106      1.0  0.30393  0.35126  0.44552  1.0000
  H   H113      1.0  0.02461  0.58717  0.23538  1.0000
  H   H114      1.0  0.04361  0.55866  0.32255  1.0000
  H   H115      1.0  0.13526  0.48769  0.43927  1.0000
  H   H116      1.0  0.15119  0.51316  0.04462  1.0000
  H   H117      1.0  0.03136  0.61632  0.33789  1.0000
  H   H118      1.0  0.24320  0.33409  0.42259  1.0000
  H   H119      1.0  0.11209  0.60967  0.43957  1.0000
  N   N8        1.0  0.11930  0.55643  0.03760  1.0000
  C   C107      1.0  0.32271  0.33823  0.30883  1.0000
  H   H120      1.0  0.06125  0.53670  0.22650  1.0000
  H   H121      1.0  0.31716  0.36414  0.30255  1.0000
  H   H122      1.0  0.14187  0.60443  0.02528  1.0000
  H   H123      1.0  0.05117  0.34804  0.09255  1.0000
  H   H124      1.0  0.01656  0.37143  0.19466  1.0000
  H   H125      1.0  0.99625  0.34633  0.27877  1.0000
  C   C108      1.0  0.03670  0.36459  0.21329  1.0000
  H   H126      1.0  0.16900  0.56895  0.01993  1.0000
  H   H127      1.0  0.13776  0.51757  0.49760  1.0000
  H   H128      1.0  0.30341  0.33733  0.50443  1.0000
  H   H129      1.0  0.30329  0.41812  0.45443  1.0000
  C   C109      1.0  0.28438  0.40787  0.43463  1.0000
  H   H130      1.0  0.26266  0.42543  0.43426  1.0000
  H   H131      1.0  0.10869  0.50795  0.06107  1.0000
  C   C110      1.0  0.12976  0.52591  0.05819  1.0000
  H   H132      1.0  0.29542  0.40881  0.40650  1.0000
  C   C111      1.0  0.13121  0.53199  0.47334  1.0000
  C   C112      1.0  0.05659  0.38975  0.22962  1.0000
  C   C113      1.0  0.14838  0.57944  0.03690  1.0000
  C   C114      1.0  0.05248  0.61072  0.32023  1.0000
  H   H133      1.0  0.31488  0.35739  0.38670  1.0000
  H   H134      1.0  0.15847  0.58429  0.06535  1.0000
  C   C115      1.0  0.24948  0.36084  0.41757  1.0000
  H   H135      1.0  0.05746  0.62997  0.20219  1.0000
  H   H136      1.0  0.09917  0.57606  0.08855  1.0000
  H   H137      1.0  0.09367  0.50534  0.22395  1.0000
  H   H138      1.0  0.06880  0.55743  0.05781  1.0000
  C   C116      1.0  0.01690  0.35728  0.01374  1.0000
  H   H139      1.0  0.37544  0.34284  0.29727  1.0000
  C   C117      1.0  0.09683  0.62991  0.28082  1.0000
  H   H140      1.0  0.24777  0.35090  0.49052  1.0000
  H   H141      1.0  0.11041  0.65040  0.26824  1.0000
  H   H142      1.0  0.07683  0.50979  0.32370  1.0000
  H   H143      1.0  0.06428  0.66265  0.31126  1.0000
  H   H144      1.0  0.00638  0.38671  0.29701  1.0000
  N   N9        1.0  0.27422  0.37347  0.44514  1.0000
  C   C118      1.0  0.07090  0.63687  0.30516  1.0000
  C   C119      1.0  0.09207  0.57265  0.05885  1.0000
  C   C120      1.0  0.11602  0.56521  0.40723  1.0000
  C   C121      1.0  0.19759  0.47229  0.50123  1.0000
  H   H145      1.0  0.23471  0.39257  0.47985  1.0000
  C   C122      1.0  0.04261  0.33087  0.22155  1.0000
  C   C123      1.0  0.12492  0.56706  0.47479  1.0000
  C   C124      1.0  0.22117  0.52840  0.50469  1.0000
  H   H146      1.0  0.05406  0.33590  0.14003  1.0000
  H   H147      1.0  0.17744  0.60163  0.49918  1.0000
  H   H148      1.0  0.09125  0.34773  0.11664  1.0000
  C   C125      1.0  0.06710  0.33427  0.11292  1.0000
  H   H149      1.0  0.32264  0.34187  0.21723  1.0000
  C   C126      1.0  0.31557  0.33464  0.47801  1.0000
  H   H150      1.0  0.08728  0.62174  0.49506  1.0000
  H   H151      1.0  0.27363  0.38666  0.50324  1.0000
  C   C127      1.0  0.15282  0.61298  0.50628  1.0000
  Fe  Fe16      1.0  0.22185  0.55629  0.67168  1.0000
  S   S31       1.0  0.18478  0.54889  0.62533  1.0000
  S   S32       1.0  0.23419  0.52015  0.71819  1.0000
  Fe  Fe17      1.0  0.23746  0.62879  0.65000  1.0000
  S   S33       1.0  0.20031  0.62756  0.60255  1.0000
  C   C128      1.0  0.01092  0.34666  0.69797  1.0000
  Fe  Fe18      1.0  0.16610  0.60009  0.64110  1.0000
  S   S34       1.0  0.10959  0.60318  0.64237  1.0000
  Fe  Fe19      1.0  0.22148  0.57631  0.59003  1.0000
  S   S35       1.0  0.23263  0.56513  0.52952  1.0000
  S   S36       1.0  0.20076  0.60563  0.68972  1.0000
  S   S37       1.0  0.26092  0.57935  0.63505  1.0000
  S   S38       1.0  0.12255  0.41315  0.75763  1.0000
  C   C129      1.0  0.15544  0.44065  0.74624  1.0000
  C   C130      1.0  0.15099  0.46180  0.71561  1.0000
  C   C131      1.0  0.17524  0.48576  0.70660  1.0000
  C   C132      1.0  0.20427  0.48890  0.72813  1.0000
  C   C133      1.0  0.20890  0.46766  0.75876  1.0000
  C   C134      1.0  0.18454  0.44356  0.76784  1.0000
  H   H152      1.0  0.12869  0.45960  0.69865  1.0000
  H   H153      1.0  0.17136  0.50179  0.68295  1.0000
  H   H154      1.0  0.23128  0.46991  0.77565  1.0000
  H   H155      1.0  0.18812  0.42750  0.79166  1.0000
  C   C135      1.0  0.08951  0.62616  0.67771  1.0000
  C   C136      1.0  0.05579  0.61960  0.68546  1.0000
  C   C137      1.0  0.03925  0.63715  0.71384  1.0000
  C   C138      1.0  0.09270  0.53894  0.78887  1.0000
  C   C139      1.0  0.01954  0.51509  0.71770  1.0000
  H   H156      1.0  0.08073  0.45641  0.81235  1.0000
  H   H157      1.0  0.04240  0.60088  0.66947  1.0000
  C   C140      1.0  0.01214  0.43964  0.66099  1.0000
  H   H158      1.0  0.28094  0.63200  0.74669  1.0000
  H   H159      1.0  0.09482  0.48598  0.93594  1.0000
  H   H160      1.0  0.00700  0.35199  0.84519  1.0000
  C   C141      1.0  0.32194  0.58928  0.78315  1.0000
  H   H161      1.0  0.13286  0.56942  0.71352  1.0000
  C   C142      1.0  0.09511  0.51120  0.94736  1.0000
  H   H162      1.0  0.02006  0.36542  0.89055  1.0000
  N   N10       1.0  0.01358  0.45375  0.69914  1.0000
  H   H163      1.0  0.36864  0.63963  0.63889  1.0000
  H   H164      1.0  0.02290  0.41395  0.65970  1.0000
  S   S39       1.0  0.07468  0.36847  0.82793  1.0000
  H   H165      1.0  0.05212  0.33087  0.73294  1.0000
  C   C143      1.0  0.06133  0.55120  0.80150  1.0000
  H   H166      1.0  0.27818  0.60808  0.70521  1.0000
  C   C144      1.0  0.20679  0.50076  0.52216  1.0000
  H   H167      1.0  0.02615  0.45561  0.64126  1.0000
  H   H168      1.0  0.11938  0.52745  0.72238  1.0000
  H   H169      1.0  0.04289  0.51082  0.73204  1.0000
  C   C145      1.0  0.08391  0.57025  0.94052  1.0000
  H   H170      1.0  0.30383  0.57111  0.79500  1.0000
  H   H171      1.0  0.11626  0.54651  0.54768  1.0000
  H   H172      1.0  0.05105  0.45596  0.74274  1.0000
  H   H173      1.0  0.08757  0.60554  0.76344  1.0000
  H   H174      1.0  0.13108  0.61263  0.76341  1.0000
  C   C146      1.0  0.36771  0.63820  0.66887  1.0000
  N   N11       1.0  0.31756  0.59257  0.74238  1.0000
  H   H175      1.0  0.31727  0.61345  0.79772  1.0000
  H   H176      1.0  0.17033  0.57093  0.77023  1.0000
  C   C147      1.0  0.04188  0.37264  0.99232  1.0000
  C   C148      1.0  0.00188  0.48897  0.69914  1.0000
  S   S40       1.0  0.15208  0.35976  0.85268  1.0000
  Fe  Fe20      1.0  0.10183  0.35272  0.87933  1.0000
  H   H177      1.0  0.31111  0.55733  0.69683  1.0000
  H   H178      1.0  0.01327  0.63201  0.71964  1.0000
  S   S41       1.0  0.08531  0.37671  0.93367  1.0000
  H   H179      1.0  0.13612  0.58191  0.56850  1.0000
  H   H180      1.0  0.09417  0.61695  0.54369  1.0000
  C   C149      1.0  0.13519  0.56636  0.54280  1.0000
  C   C150      1.0  0.00492  0.66157  0.95825  1.0000
  H   H181      1.0  0.13244  0.65604  0.69231  1.0000
  C   C151      1.0  0.15196  0.55305  0.78210  1.0000
  H   H182      1.0  0.02707  0.35601  0.67650  1.0000
  H   H183      1.0  0.15631  0.62723  0.53262  1.0000
  H   H184      1.0  0.05732  0.42313  0.71060  1.0000
  H   H185      1.0  0.02657  0.47931  0.83379  1.0000
  H   H186      1.0  0.34553  0.54834  0.72772  1.0000
  H   H187      1.0  0.18634  0.45110  0.51494  1.0000
  H   H188      1.0  0.26383  0.59000  0.74729  1.0000
  H   H189      1.0  0.20285  0.50128  0.55177  1.0000
  C   C152      1.0  0.02520  0.33236  0.72993  1.0000
  C   C153      1.0  0.10655  0.65062  0.69824  1.0000
  C   C154      1.0  0.11139  0.59684  0.77625  1.0000
  C   C155      1.0  0.09864  0.50403  0.79289  1.0000
  Fe  Fe21      1.0  0.12411  0.37053  0.79952  1.0000
  C   C156      1.0  0.09594  0.57603  0.97647  1.0000
  C   C157      1.0  0.11457  0.55416  0.72931  1.0000
  C   C158      1.0  0.07530  0.48300  0.80954  1.0000
  H   H190      1.0  0.32800  0.60305  0.66795  1.0000
  H   H191      1.0  0.16080  0.52805  0.77280  1.0000
  H   H192      1.0  0.99554  0.41583  0.91132  1.0000
  H   H193      1.0  0.12116  0.49237  0.78275  1.0000
  H   H194      1.0  0.30290  0.54031  0.74075  1.0000
  H   H195      1.0  0.15425  0.55420  0.81284  1.0000
  H   H196      1.0  0.06626  0.46517  0.69675  1.0000
  C   C159      1.0  0.31956  0.55830  0.72624  1.0000
  C   C160      1.0  0.04853  0.44962  0.71285  1.0000
  H   H197      1.0  0.34751  0.58017  0.79036  1.0000
  C   C161      1.0  0.00675  0.54772  0.71904  1.0000
  C   C162      1.0  0.03787  0.52981  0.81750  1.0000
  H   H198      1.0  0.11091  0.60290  0.80637  1.0000
  H   H199      1.0  0.08923  0.56053  0.71837  1.0000
  C   C163      1.0  0.28365  0.60616  0.73529  1.0000
  C   C164      1.0  0.04488  0.49582  0.82162  1.0000
  C   C165      1.0  0.34251  0.61490  0.72505  1.0000
  N   N12       1.0  0.11718  0.56052  0.76969  1.0000
  H   H200      1.0  0.05394  0.57715  0.79883  1.0000
  C   C166      1.0  0.05543  0.35610  0.96141  1.0000
  H   H201      1.0  0.01383  0.53967  0.82624  1.0000
  H   H202      1.0  0.05031  0.39763  0.99933  1.0000
  C   C167      1.0  0.34470  0.61703  0.68587  1.0000
  C   C168      1.0  0.10697  0.51672  0.98351  1.0000
  H   H203      1.0  0.11541  0.49489  0.99851  1.0000
  C   C169      1.0  0.08351  0.53788  0.92596  1.0000
  H   H204      1.0  0.16029  0.55455  0.54026  1.0000
  H   H205      1.0  0.07470  0.59109  0.92405  1.0000
  H   H206      1.0  0.07416  0.53349  0.89806  1.0000
  H   H207      1.0  0.03430  0.65922  0.90865  1.0000
  H   H208      1.0  0.07362  0.58428  0.51780  1.0000
  H   H209      1.0  0.36383  0.63703  0.77595  1.0000
  C   C170      1.0  0.00180  0.34943  0.87527  1.0000
  N   N13       1.0  0.12675  0.58678  0.50964  1.0000
  C   C171      1.0  0.36412  0.63616  0.74608  1.0000
  C   C172      1.0  0.10759  0.54949  0.99925  1.0000
  H   H210      1.0  0.09592  0.60157  0.98647  1.0000
  C   C173      1.0  0.09407  0.60316  0.51671  1.0000
  H   H211      1.0  0.00071  0.40787  0.72681  1.0000
  H   H212      1.0  0.02000  0.56718  0.73411  1.0000
  C   C174      1.0  0.38667  0.65768  0.72870  1.0000
  C   C175      1.0  0.38848  0.65866  0.69020  1.0000
  H   H213      1.0  0.12337  0.34080  0.99390  1.0000
  C   C176      1.0  0.05615  0.66197  0.73403  1.0000
  C   C177      1.0  0.03486  0.66108  0.93857  1.0000
  Fe  Fe22      1.0  0.16651  0.69808  0.13868  1.0000
  H   H214      1.0  0.38925  0.73857  0.23438  1.0000
  S   S42       1.0  0.21837  0.72327  0.13926  1.0000
  H   H215      1.0  0.30623  0.70806  0.19220  1.0000
  H   H216      1.0  0.39058  0.70804  0.15613  1.0000
  H   H217      1.0  0.34493  0.80815  0.21458  1.0000
  H   H218      1.0  0.34730  0.76734  0.12983  1.0000
  H   H219      1.0  0.39208  0.76559  0.13571  1.0000
  S   S43       1.0  0.11737  0.71828  0.11699  1.0000
  Fe  Fe23      1.0  0.33086  0.88708  0.15948  1.0000
  S   S44       1.0  0.36230  0.86588  0.11398  1.0000
  S   S45       1.0  0.27624  0.87131  0.16478  1.0000
  Fe  Fe24      1.0  0.38779  0.93251  0.18825  1.0000
  S   S46       1.0  0.42220  0.91421  0.14398  1.0000
  Fe  Fe25      1.0  0.37851  0.91917  0.10520  1.0000
  S   S47       1.0  0.38804  0.93683  0.04663  1.0000
  Fe  Fe26      1.0  0.40295  0.86334  0.15734  1.0000
  S   S48       1.0  0.44066  0.82138  0.16098  1.0000
  S   S49       1.0  0.34491  0.94130  0.14837  1.0000
  S   S50       1.0  0.37058  0.88069  0.20388  1.0000
  C   C178      1.0  0.25958  0.83073  0.15498  1.0000
  C   C179      1.0  0.22625  0.82344  0.16430  1.0000
  C   C180      1.0  0.21270  0.79111  0.15845  1.0000
  C   C181      1.0  0.23240  0.76560  0.14323  1.0000
  C   C182      1.0  0.26543  0.77323  0.13299  1.0000
  C   C183      1.0  0.27889  0.80556  0.13865  1.0000
  H   H220      1.0  0.21096  0.84272  0.17678  1.0000
  H   H221      1.0  0.18731  0.78571  0.16660  1.0000
  H   H222      1.0  0.28087  0.75375  0.12118  1.0000
  H   H223      1.0  0.30434  0.81090  0.13098  1.0000
  H   H224      1.0  0.48223  0.71303  0.41224  1.0000
  H   H225      1.0  0.25483  0.97329  0.02599  1.0000
  C   C184      1.0  0.47982  0.79679  0.47747  1.0000
  S   S51       1.0  0.41759  0.96507  0.22829  1.0000
  C   C185      1.0  0.36809  0.77063  0.15022  1.0000
  C   C186      1.0  0.47390  0.73668  0.48375  1.0000
  C   C187      1.0  0.46335  0.81511  0.27062  1.0000
  C   C188      1.0  0.44688  0.82282  0.23714  1.0000
  C   C189      1.0  0.46226  0.81581  0.20332  1.0000
  C   C190      1.0  0.39199  0.75402  0.20896  1.0000
  C   C191      1.0  0.37795  0.97926  0.39237  1.0000
  H   H226      1.0  0.45082  0.81934  0.29667  1.0000
  H   H227      1.0  0.42191  0.83317  0.23758  1.0000
  N   N14       1.0  0.28283  0.91088  0.03594  1.0000
  C   C192      1.0  0.26986  0.77416  0.23392  1.0000
  H   H228      1.0  0.48939  0.87601  0.23239  1.0000
  H   H229      1.0  0.36334  0.69514  0.19247  1.0000
  N   N15       1.0  0.36375  0.74843  0.18270  1.0000
  C   C193      1.0  0.32613  0.78884  0.21614  1.0000
  H   H230      1.0  0.29902  0.86297  0.05756  1.0000
  H   H231      1.0  0.29145  0.82288  0.24200  1.0000
  C   C194      1.0  0.24717  0.90082  0.03712  1.0000
  S   S52       1.0  0.04964  0.70209  0.19617  1.0000
  H   H232      1.0  0.46469  0.75149  0.39489  1.0000
  H   H233      1.0  0.39395  0.78058  0.21780  1.0000
  H   H234      1.0  0.47861  0.71117  0.47516  1.0000
  H   H235      1.0  0.33051  0.88567  0.03330  1.0000
  C   C195      1.0  0.48699  0.76417  0.46361  1.0000
  C   C196      1.0  0.29563  0.79750  0.23222  1.0000
  C   C197      1.0  0.36600  0.71327  0.16929  1.0000
  H   H236      1.0  0.36884  0.79754  0.15816  1.0000
  C   C198      1.0  0.33170  0.75640  0.20106  1.0000
  H   H237      1.0  0.49450  0.89629  0.18853  1.0000
  H   H238      1.0  0.34649  0.70781  0.14786  1.0000
  C   C199      1.0  0.30494  0.73306  0.20359  1.0000
  H   H239      1.0  0.37401  0.95817  0.41070  1.0000
  H   H240      1.0  0.41657  0.74791  0.19623  1.0000
  H   H241      1.0  0.24579  0.78132  0.24503  1.0000
  C   C200      1.0  0.36999  0.97619  0.35483  1.0000
  C   C201      1.0  0.02617  0.67101  0.21912  1.0000
  H   H242      1.0  0.31801  0.93656  0.07095  1.0000
  C   C202      1.0  0.29175  0.92750  0.07149  1.0000
  C   C203      1.0  0.27457  0.74200  0.21984  1.0000
  H   H243      1.0  0.28927  0.91014  0.09547  1.0000
  H   H244      1.0  0.49471  0.99100  0.10292  1.0000
  H   H245      1.0  0.45914  0.96459  0.09893  1.0000
  Fe  Fe27      1.0  0.11441  0.67167  0.08167  1.0000
  H   H246      1.0  0.35997  0.95287  0.34398  1.0000
  H   H247      1.0  0.24241  0.88272  0.05999  1.0000
  H   H248      1.0  0.27552  0.94934  0.07774  1.0000
  S   S53       1.0  0.10617  0.66746  0.01929  1.0000
  C   C204      1.0  0.37364  0.97399  0.02506  1.0000
  H   H249      1.0  0.03765  0.66843  0.04608  1.0000
  C   C205      1.0  0.30323  0.87981  0.03344  1.0000
  Fe  Fe28      1.0  0.09389  0.68595  0.16131  1.0000
  C   C206      1.0  0.46916  0.98702  0.11381  1.0000
  H   H250      1.0  0.23029  0.92252  0.04193  1.0000
  C   C207      1.0  0.99761  0.68013  0.23929  1.0000
  H   H251      1.0  0.47469  0.91752  0.22645  1.0000
  H   H252      1.0  0.48913  0.81929  0.46466  1.0000
  H   H253      1.0  0.25394  0.72433  0.21989  1.0000
  H   H254      1.0  0.40362  0.98463  0.10607  1.0000
  H   H255      1.0  0.49179  0.97081  0.23319  1.0000
  C   C208      1.0  0.03687  0.66630  0.01621  1.0000
  H   H256      1.0  0.34659  0.99331  0.07189  1.0000
  S   S54       1.0  0.14315  0.66896  0.18582  1.0000
  H   H257      1.0  0.47155  0.98052  0.14373  1.0000
  C   C209      1.0  0.48849  0.73856  0.40241  1.0000
  C   C210      1.0  0.49480  0.80261  0.20325  1.0000
  H   H258      1.0  0.23925  0.88875  0.01059  1.0000
  H   H259      1.0  0.29682  0.86501  0.00817  1.0000
  Fe  Fe29      1.0  0.47565  0.84744  0.60618  1.0000
  Fe  Fe30      1.0  0.41776  0.87067  0.65569  1.0000
  S   S55       1.0  0.41940  0.82418  0.69052  1.0000
  S   S56       1.0  0.38117  0.91386  0.66033  1.0000
  Fe  Fe31      1.0  0.42524  0.79611  0.63676  1.0000
  S   S57       1.0  0.39611  0.75023  0.61574  1.0000
  H   H260      1.0  0.31264  0.89064  0.65720  1.0000
  S   S58       1.0  0.41986  0.84248  0.60184  1.0000
  S   S59       1.0  0.35951  0.98388  0.81648  1.0000
  C   C211      1.0  0.46184  0.98833  0.78749  1.0000
  C   C212      1.0  0.38299  0.98012  0.98831  1.0000
  C   C213      1.0  0.31538  0.68815  0.62230  1.0000
  H   H261      1.0  0.31409  0.84382  0.72367  1.0000
  H   H262      1.0  0.32098  0.83340  0.60576  1.0000
  C   C214      1.0  0.25613  0.76016  0.64092  1.0000
  H   H263      1.0  0.30312  0.67017  0.60426  1.0000
  H   H264      1.0  0.35984  0.75323  0.68635  1.0000
  C   C215      1.0  0.34747  0.73538  0.66830  1.0000
  S   S60       1.0  0.26646  0.67339  0.67438  1.0000
  H   H265      1.0  0.45603  0.82643  0.51980  1.0000
  S   S61       1.0  0.47287  0.87933  0.65746  1.0000
  C   C216      1.0  0.44839  0.77383  0.52848  1.0000
  C   C217      1.0  0.06679  0.66593  0.99654  1.0000
  H   H266      1.0  0.34090  0.81216  0.70447  1.0000
  C   C218      1.0  0.33369  0.83239  0.63328  1.0000
  C   C219      1.0  0.23336  0.76074  0.66985  1.0000
  H   H267      1.0  0.47514  0.99559  0.81353  1.0000
  C   C220      1.0  0.37533  0.93340  0.70370  1.0000
  C   C221      1.0  0.27607  0.98847  0.97504  1.0000
  Fe  Fe32      1.0  0.47553  0.83082  0.68825  1.0000
  C   C222      1.0  0.36484  0.96516  0.77261  1.0000
  C   C223      1.0  0.38285  0.93498  0.77047  1.0000
  C   C224      1.0  0.38846  0.91936  0.73613  1.0000
  H   H268      1.0  0.43659  0.97942  0.79596  1.0000
  H   H269      1.0  0.27790  0.87094  0.63387  1.0000
  H   H270      1.0  0.39277  0.92376  0.79553  1.0000
  H   H271      1.0  0.40265  0.89628  0.73485  1.0000
  H   H272      1.0  0.35326  0.70085  0.58248  1.0000
  H   H273      1.0  0.33052  0.94398  0.92290  1.0000
  H   H274      1.0  0.21707  0.78656  0.71872  1.0000
  H   H275      1.0  0.34996  0.85597  0.69855  1.0000
  C   C225      1.0  0.32940  0.83715  0.69921  1.0000
  C   C226      1.0  0.36000  0.72945  0.63278  1.0000
  H   H276      1.0  0.10293  0.68800  0.74142  1.0000
  C   C227      1.0  0.35685  0.96331  0.70580  1.0000
  C   C228      1.0  0.28366  0.81071  0.66544  1.0000
  H   H277      1.0  0.30960  0.72257  0.70816  1.0000
  S   S62       1.0  0.03649  0.68455  0.76991  1.0000
  C   C229      1.0  0.28111  0.78453  0.63868  1.0000
  C   C230      1.0  0.30290  0.69396  0.65783  1.0000
  H   H278      1.0  0.21481  0.74105  0.67198  1.0000
  C   C231      1.0  0.34379  0.70571  0.60997  1.0000
  C   C232      1.0  0.25952  0.81098  0.69408  1.0000
  H   H279      1.0  0.25964  0.83026  0.71518  1.0000
  C   C233      1.0  0.08977  0.66875  0.72596  1.0000
  C   C234      1.0  0.31361  0.94969  0.94542  1.0000
  C   C235      1.0  0.31913  0.71770  0.68071  1.0000
  H   H280      1.0  0.27761  0.87711  0.68323  1.0000
  H   H281      1.0  0.25515  0.73987  0.62084  1.0000
  H   H282      1.0  0.29855  0.78169  0.61621  1.0000
  C   C236      1.0  0.29704  0.98038  0.94577  1.0000
  N   N16       1.0  0.30973  0.83699  0.66412  1.0000
  C   C237      1.0  0.29370  0.87028  0.65942  1.0000
  H   H283      1.0  0.34754  0.80822  0.63570  1.0000
  H   H284      1.0  0.35284  0.85256  0.63308  1.0000
  C   C238      1.0  0.23491  0.78621  0.69627  1.0000
  H   H285      1.0  0.39828  0.96204  0.97379  1.0000
  C   C239      1.0  0.35183  0.97937  0.74015  1.0000
  C   C240      1.0  0.27137  0.96578  0.00398  1.0000
  H   H286      1.0  0.47444  0.96627  0.77481  1.0000
  H   H287      1.0  0.43393  0.77751  0.55344  1.0000
  S   S63       1.0  0.48197  0.79890  0.63707  1.0000
  C   C241      1.0  0.30948  0.92695  0.97447  1.0000
  C   C242      1.0  0.06565  0.66330  0.95768  1.0000
  H   H288      1.0  0.32385  0.90411  0.97279  1.0000
  H   H289      1.0  0.40260  0.67409  0.74511  1.0000
  C   C243      1.0  0.28808  0.93434  0.00475  1.0000
  H   H290      1.0  0.45669  0.98587  0.71251  1.0000
  C   C244      1.0  0.00605  0.66425  0.99709  1.0000
  H   H291      1.0  0.34650  0.97421  0.68078  1.0000
  H   H292      1.0  0.08872  0.66309  0.94226  1.0000
  C   C245      1.0  0.46075  0.80134  0.50939  1.0000
  H   H293      1.0  0.44531  0.72031  0.53094  1.0000
  H   H294      1.0  0.40547  0.67588  0.67676  1.0000
  C   C246      1.0  0.45490  0.74157  0.51569  1.0000
  H   H295      1.0  0.41744  0.99354  0.73430  1.0000
  Fe  Fe33      1.0  0.71781  0.02225  0.17009  1.0000
  H   H296      1.0  0.58043  0.17159  0.44741  1.0000
  C   C247      1.0  0.81180  0.09972  0.01881  1.0000
  S   S64       1.0  0.54756  0.19011  0.27615  1.0000
  N   N17       1.0  0.81190  0.11710  0.05523  1.0000
  S   S65       1.0  0.67596  0.02490  0.12852  1.0000
  Fe  Fe34      1.0  0.74049  0.09522  0.15548  1.0000
  S   S66       1.0  0.69877  0.10333  0.11375  1.0000
  S   S67       1.0  0.78728  0.12610  0.17043  1.0000
  Fe  Fe35      1.0  0.66602  0.07554  0.15431  1.0000
  S   S68       1.0  0.61094  0.08056  0.16916  1.0000
  Fe  Fe36      1.0  0.71189  0.05192  0.09163  1.0000
  S   S69       1.0  0.72390  0.04521  0.03020  1.0000
  S   S70       1.0  0.70657  0.07134  0.19775  1.0000
  S   S71       1.0  0.75480  0.04519  0.13137  1.0000
  C   C248      1.0  0.67445  0.25371  0.47223  1.0000
  C   C249      1.0  0.82637  0.09429  0.08356  1.0000
  H   H297      1.0  0.58024  0.06022  0.40103  1.0000
  Fe  Fe37      1.0  0.89942  0.29821  0.13981  1.0000
  S   S72       1.0  0.84796  0.27234  0.13998  1.0000
  C   C250      1.0  0.88701  0.17471  0.04419  1.0000
  H   H298      1.0  0.62311  0.11233  0.28649  1.0000
  C   C251      1.0  0.83191  0.23127  0.14832  1.0000
  C   C252      1.0  0.79749  0.22530  0.14265  1.0000
  C   C253      1.0  0.78346  0.19328  0.14851  1.0000
  C   C254      1.0  0.80364  0.16677  0.16070  1.0000
  C   C255      1.0  0.83806  0.17270  0.16627  1.0000
  C   C256      1.0  0.85218  0.20460  0.15987  1.0000
  H   H299      1.0  0.78151  0.24570  0.13377  1.0000
  H   H300      1.0  0.75693  0.18935  0.14440  1.0000
  H   H301      1.0  0.85395  0.15249  0.17583  1.0000
  H   H302      1.0  0.87865  0.20863  0.16429  1.0000
  C   C257      1.0  0.56531  0.15899  0.24736  1.0000
  C   C258      1.0  0.59749  0.16390  0.23303  1.0000
  C   C259      1.0  0.61215  0.13982  0.20957  1.0000
  C   C260      1.0  0.59456  0.11074  0.20013  1.0000
  C   C261      1.0  0.56281  0.10539  0.21536  1.0000
  C   C262      1.0  0.54820  0.12938  0.23887  1.0000
  H   H303      1.0  0.61095  0.18667  0.23968  1.0000
  H   H304      1.0  0.63667  0.14418  0.19813  1.0000
  H   H305      1.0  0.54935  0.08265  0.20888  1.0000
  H   H306      1.0  0.52365  0.12512  0.25022  1.0000
  H   H307      1.0  0.61252  0.03355  0.25801  1.0000
  H   H308      1.0  0.76351  0.13939  0.04443  1.0000
  C   C263      1.0  0.52716  0.16641  0.43891  1.0000
  C   C264      1.0  0.55664  0.16740  0.46061  1.0000
  H   H309      1.0  0.52831  0.17010  0.40926  1.0000
  N   N18       1.0  0.65017  0.04963  0.29734  1.0000
  C   C265      1.0  0.63707  0.04663  0.25889  1.0000
  H   H310      1.0  0.67839  0.09406  0.28343  1.0000
  H   H311      1.0  0.69395  0.25310  0.41666  1.0000
  C   C266      1.0  0.62544  0.06726  0.32075  1.0000
  H   H312      1.0  0.79331  0.18461  0.06784  1.0000
  C   C267      1.0  0.61234  0.05327  0.35381  1.0000
  Fe  Fe38      1.0  0.97194  0.31137  0.16648  1.0000
  H   H313      1.0  0.82855  0.10712  0.11095  1.0000
  C   C268      1.0  0.58964  0.07112  0.37569  1.0000
  C   C269      1.0  0.61280  0.23990  0.43868  1.0000
  H   H314      1.0  0.55619  0.03219  0.16851  1.0000
  C   C270      1.0  0.83947  0.20893  0.05973  1.0000
  C   C271      1.0  0.86685  0.14608  0.04468  1.0000
  C   C272      1.0  0.68172  0.06914  0.29672  1.0000
  H   H315      1.0  0.53270  0.09399  0.13153  1.0000
  C   C273      1.0  0.64108  0.24385  0.41692  1.0000
  C   C274      1.0  0.59142  0.11741  0.33305  1.0000
  C   C275      1.0  0.55556  0.16296  0.49923  1.0000
  H   H316      1.0  0.69157  0.07349  0.32529  1.0000
  C   C276      1.0  0.65849  0.01527  0.31035  1.0000
  H   H317      1.0  0.50451  0.02480  0.20498  1.0000
  C   C277      1.0  0.77647  0.12335  0.06522  1.0000
  C   C278      1.0  0.52145  0.00382  0.20112  1.0000
  S   S73       1.0  0.94918  0.27614  0.12406  1.0000
  C   C279      1.0  0.67189  0.25058  0.43367  1.0000
  H   H318      1.0  0.56175  0.11693  0.38242  1.0000
  C   C280      1.0  0.81910  0.18047  0.06052  1.0000
  H   H319      1.0  0.65459  0.03266  0.24075  1.0000
  H   H320      1.0  0.81064  0.07161  0.08747  1.0000
  H   H321      1.0  0.85168  0.08517  0.07621  1.0000
  S   S74       1.0  0.97090  0.30664  0.02662  1.0000
  C   C281      1.0  0.61423  0.09991  0.31109  1.0000
  H   H322      1.0  0.82915  0.23337  0.06646  1.0000
  H   H323      1.0  0.77444  0.13527  0.09303  1.0000
  C   C282      1.0  0.87336  0.20605  0.05197  1.0000
  C   C283      1.0  0.64598  0.25068  0.49522  1.0000
  H   H324      1.0  0.50902  0.04539  0.09944  1.0000
  C   C284      1.0  0.83231  0.14801  0.05330  1.0000
  H   H325      1.0  0.63369  0.07135  0.24545  1.0000
  H   H326      1.0  0.70155  0.05596  0.28073  1.0000
  C   C285      1.0  0.61508  0.24296  0.47724  1.0000
  H   H327      1.0  0.61936  0.02867  0.36354  1.0000
  H   H328      1.0  0.76194  0.09960  0.06660  1.0000
  H   H329      1.0  0.88909  0.22819  0.05250  1.0000
  C   C286      1.0  0.57921  0.10309  0.36533  1.0000
  H   H330      1.0  0.63914  0.24126  0.38704  1.0000
  H   H331      1.0  0.58895  0.23397  0.42564  1.0000
  H   H332      1.0  0.83710  0.09105  0.01071  1.0000
  H   H333      1.0  0.58326  0.14234  0.32503  1.0000
  H   H334      1.0  0.93988  0.32868  0.27011  1.0000
  H   H335      1.0  0.67700  0.00276  0.29194  1.0000
  C   C287      1.0  0.50759  0.08560  0.13810  1.0000
  H   H336      1.0  0.59231  0.23849  0.49233  1.0000
  H   H337      1.0  0.63601  0.99881  0.31051  1.0000
  H   H338      1.0  0.67006  0.01559  0.33851  1.0000
  H   H339      1.0  0.91346  0.17260  0.03830  1.0000
  H   H340      1.0  0.49973  0.12485  0.17811  1.0000
  H   H341      1.0  0.69902  0.25806  0.48393  1.0000
  H   H342      1.0  0.79550  0.07701  0.01906  1.0000
  H   H343      1.0  0.87864  0.12229  0.03889  1.0000
  Fe  Fe39      1.0  0.95349  0.31962  0.08479  1.0000
  C   C288      1.0  0.55043  0.00804  0.18055  1.0000
  C   C289      1.0  0.49633  0.16034  0.45564  1.0000
  S   S75       1.0  0.92184  0.32950  0.18634  1.0000
  Fe  Fe40      1.0  0.62911  0.20141  0.65220  1.0000
  S   S76       1.0  0.64657  0.15905  0.61574  1.0000
  S   S77       1.0  0.65496  0.25282  0.65756  1.0000
  Fe  Fe41      1.0  0.55967  0.16829  0.66321  1.0000
  S   S78       1.0  0.57295  0.12507  0.62646  1.0000
  H   H344      1.0  0.95060  0.26982  0.58407  1.0000
  Fe  Fe42      1.0  0.62205  0.12523  0.65751  1.0000
  S   S79       1.0  0.63428  0.07136  0.67295  1.0000
  Fe  Fe43      1.0  0.59576  0.16251  0.58839  1.0000
  S   S80       1.0  0.59335  0.16459  0.52531  1.0000
  S   S81       1.0  0.60760  0.16716  0.69644  1.0000
  S   S82       1.0  0.57925  0.20606  0.62284  1.0000
  H   H345      1.0  0.50939  0.13962  0.81239  1.0000
  H   H346      1.0  0.62195  0.02085  0.91966  1.0000
  C   C290      1.0  0.60062  0.06931  0.86782  1.0000
  C   C291      1.0  0.50875  0.15060  0.75386  1.0000
  H   H347      1.0  0.90986  0.28835  0.58275  1.0000
  H   H348      1.0  0.69343  0.22269  0.53913  1.0000
  C   C292      1.0  0.66239  0.05472  0.70617  1.0000
  C   C293      1.0  0.68775  0.07374  0.72287  1.0000
  C   C294      1.0  0.71022  0.05848  0.74803  1.0000
  C   C295      1.0  0.70719  0.02432  0.75688  1.0000
  C   C296      1.0  0.68929  0.05596  0.87870  1.0000
  C   C297      1.0  0.65921  0.02077  0.71547  1.0000
  H   H349      1.0  0.69047  0.09992  0.71583  1.0000
  H   H350      1.0  0.73011  0.07312  0.76053  1.0000
  S   S83       1.0  0.80623  0.30509  0.65017  1.0000
  H   H351      1.0  0.94981  0.30776  0.87432  1.0000
  C   C298      1.0  0.58692  0.09326  0.80789  1.0000
  C   C299      1.0  0.94793  0.24279  0.69446  1.0000
  H   H352      1.0  0.97085  0.22443  0.74492  1.0000
  H   H353      1.0  0.53503  0.15688  0.75288  1.0000
  C   C300      1.0  0.52458  0.07216  0.71553  1.0000
  C   C301      1.0  0.76385  0.29102  0.64843  1.0000
  H   H354      1.0  0.59243  0.06512  0.89584  1.0000
  C   C302      1.0  0.98537  0.27048  0.65200  1.0000
  C   C303      1.0  0.75730  0.25648  0.65178  1.0000
  C   C304      1.0  0.72422  0.24419  0.65327  1.0000
  C   C305      1.0  0.69714  0.26639  0.65216  1.0000
  C   C306      1.0  0.66812  0.28482  0.54615  1.0000
  H   H355      1.0  0.77799  0.23908  0.65380  1.0000
  H   H356      1.0  0.71974  0.21762  0.65645  1.0000
  N   N19       1.0  0.65622  0.03906  0.87837  1.0000
  H   H357      1.0  0.61979  0.25978  0.58556  1.0000
  H   H358      1.0  0.74707  0.02279  0.95929  1.0000
  H   H359      1.0  0.66430  0.02180  0.93452  1.0000
  C   C307      1.0  0.63218  0.05792  0.85484  1.0000
  H   H360      1.0  0.89780  0.21964  0.64817  1.0000
  C   C308      1.0  0.63974  0.06474  0.81725  1.0000
  C   C309      1.0  0.97481  0.23680  0.71861  1.0000
  H   H361      1.0  0.65459  0.20081  0.54337  1.0000
  H   H362      1.0  0.67042  0.22564  0.58137  1.0000
  H   H363      1.0  0.60096  0.27661  0.54431  1.0000
  C   C310      1.0  0.64546  0.03559  0.91750  1.0000
  H   H364      1.0  0.52354  0.15368  0.54566  1.0000
  H   H365      1.0  0.80219  0.11651  0.99654  1.0000
  H   H366      1.0  0.68700  0.08254  0.88771  1.0000
  H   H367      1.0  0.60245  0.23193  0.55217  1.0000
  H   H368      1.0  0.57718  0.01692  0.75704  1.0000
  C   C311      1.0  0.61752  0.08227  0.79428  1.0000
  C   C312      1.0  0.52704  0.02849  0.63028  1.0000
  H   H369      1.0  0.62412  0.08735  0.76571  1.0000
  C   C313      1.0  0.50690  0.00065  0.63640  1.0000
  H   H370      1.0  0.67148  0.00531  0.83473  1.0000
  C   C314      1.0  0.56151  0.02603  0.63530  1.0000
  H   H371      1.0  0.57718  0.04769  0.63025  1.0000
  H   H372      1.0  0.68296  0.31836  0.64747  1.0000
  C   C315      1.0  0.57844  0.08669  0.84452  1.0000
  C   C316      1.0  0.66781  0.22456  0.55060  1.0000
  C   C317      1.0  0.71312  0.00959  0.00291  1.0000
  C   C318      1.0  0.55376  0.02861  0.74883  1.0000
  H   H373      1.0  0.87557  0.29088  0.63667  1.0000
  H   H374      1.0  0.65666  0.30729  0.53295  1.0000
  H   H375      1.0  0.66298  0.05643  0.80531  1.0000
  C   C319      1.0  0.68138  0.00561  0.74075  1.0000
  H   H376      1.0  0.88812  0.27374  0.67993  1.0000
  H   H377      1.0  0.92357  0.23420  0.70289  1.0000
  H   H378      1.0  0.96262  0.32883  0.93311  1.0000
  C   C320      1.0  0.73672  0.31312  0.64586  1.0000
  H   H379      1.0  0.94260  0.30938  0.60717  1.0000
  H   H380      1.0  0.51605  0.05204  0.62142  1.0000
  H   H381      1.0  0.88713  0.23690  0.60423  1.0000
  C   C321      1.0  0.70365  0.30089  0.64820  1.0000
  H   H382      1.0  0.90812  0.31091  0.66319  1.0000
  H   H383      1.0  0.92713  0.21683  0.61087  1.0000
  H   H384      1.0  0.52524  0.09412  0.69783  1.0000
  S   S84       1.0  0.73515  0.00593  0.78909  1.0000
  C   C322      1.0  0.61665  0.25573  0.55514  1.0000
  H   H385      1.0  0.56971  0.10682  0.78998  1.0000
  H   H386      1.0  0.63962  0.00609  0.70278  1.0000
  N   N20       1.0  0.92339  0.26590  0.63532  1.0000
  C   C323      1.0  0.93217  0.28407  0.60086  1.0000
  C   C324      1.0  0.90827  0.23340  0.62421  1.0000
  C   C325      1.0  0.89779  0.28615  0.65472  1.0000
  C   C326      1.0  0.95234  0.25991  0.66038  1.0000
  H   H387      1.0  0.67932  0.28117  0.75049  1.0000
  S   S85       1.0  0.50506  0.16993  0.68028  1.0000
  H   H388      1.0  0.70144  0.05554  0.85105  1.0000
  H   H389      1.0  0.55449  0.09522  0.85490  1.0000
  N   N21       1.0  0.64934  0.25395  0.53602  1.0000
  H   H390      1.0  0.57792  0.06683  0.71691  1.0000
  H   H391      1.0  0.69483  0.28364  0.53815  1.0000
  H   H392      1.0  0.77485  0.32238  0.72635  1.0000
  H   H393      1.0  0.66846  0.28907  0.57673  1.0000
  C   C327      1.0  0.69591  0.30267  0.75027  1.0000
  C   C328      1.0  0.52471  0.15718  0.51598  1.0000
  C   C329      1.0  0.55434  0.05678  0.72621  1.0000
  C   C330      1.0  0.72891  0.29882  0.73915  1.0000
  H   H394      1.0  0.73780  0.27429  0.73066  1.0000
  C   C331      1.0  0.72827  0.00519  0.96820  1.0000
  H   H395      1.0  0.64214  0.06045  0.93104  1.0000
  H   H396      1.0  0.95385  0.30868  0.77284  1.0000
  H   H397      1.0  0.99121  0.28446  0.62735  1.0000
  C   C332      1.0  0.75002  0.32661  0.73702  1.0000
  C   C333      1.0  0.66051  0.00490  0.86296  1.0000
  H   H398      1.0  0.70732  0.04328  0.89780  1.0000
  C   C334      1.0  0.52327  0.01560  0.76094  1.0000
  C   C335      1.0  0.96982  0.32006  0.75246  1.0000
  Fe  Fe44      1.0  0.87996  0.56557  0.37748  1.0000
  S   S86       1.0  0.82893  0.56841  0.35114  1.0000
  S   S87       1.0  0.89049  0.55438  0.43839  1.0000
  Fe  Fe45      1.0  0.91471  0.59175  0.30660  1.0000
  S   S88       1.0  0.86566  0.59756  0.27599  1.0000
  S   S89       1.0  0.96590  0.59004  0.27924  1.0000
  Fe  Fe46      1.0  0.84490  0.61882  0.32941  1.0000
  H   H399      1.0  0.97417  0.53674  0.16854  1.0000
  Fe  Fe47      1.0  0.85403  0.54709  0.30043  1.0000
  S   S90       1.0  0.83313  0.50371  0.26698  1.0000
  S   S91       1.0  0.89547  0.61673  0.35812  1.0000
  S   S92       1.0  0.90346  0.54041  0.32872  1.0000
  S   S93       1.0  0.92974  0.42503  0.15843  1.0000
  H   H400      1.0  0.95750  0.44962  0.39148  1.0000
  N   N22       1.0  0.79644  0.61690  0.44856  1.0000
  C   C336      1.0  0.79186  0.58082  0.45664  1.0000
  C   C337      1.0  0.94607  0.59058  0.10185  1.0000
  H   H401      1.0  0.97208  0.56949  0.20240  1.0000
  H   H402      1.0  0.98744  0.66260  0.08100  1.0000
  H   H403      1.0  0.89128  0.55146  0.12649  1.0000
  C   C338      1.0  0.90305  0.44382  0.19124  1.0000
  C   C339      1.0  0.91564  0.47009  0.21312  1.0000
  C   C340      1.0  0.89458  0.48824  0.23690  1.0000
  C   C341      1.0  0.86067  0.48008  0.23908  1.0000
  C   C342      1.0  0.84836  0.45282  0.21833  1.0000
  C   C343      1.0  0.86952  0.43461  0.19457  1.0000
  H   H404      1.0  0.94184  0.47642  0.21144  1.0000
  H   H405      1.0  0.90449  0.50874  0.25326  1.0000
  H   H406      1.0  0.82219  0.44619  0.22008  1.0000
  H   H407      1.0  0.85956  0.41430  0.17788  1.0000
  H   H408      1.0  0.76704  0.65287  0.28387  1.0000
  S   S94       1.0  0.90276  0.34046  0.09822  1.0000
  H   H409      1.0  0.96756  0.37260  0.22958  1.0000
  C   C344      1.0  0.90936  0.42118  0.30316  1.0000
  N   N23       1.0  0.95363  0.37887  0.28680  1.0000
  H   H410      1.0  0.91807  0.59857  0.21244  1.0000
  H   H411      1.0  0.98169  0.40664  0.35220  1.0000
  C   C345      1.0  0.85304  0.46218  0.46375  1.0000
  C   C346      1.0  0.86197  0.49115  0.44393  1.0000
  C   C347      1.0  0.87956  0.51695  0.46170  1.0000
  C   C348      1.0  0.91169  0.54069  0.14394  1.0000
  H   H412      1.0  0.83924  0.44245  0.44983  1.0000
  H   H413      1.0  0.85476  0.49373  0.41512  1.0000
  C   C349      1.0  0.95686  0.55101  0.18669  1.0000
  H   H414      1.0  0.78136  0.48547  0.48012  1.0000
  H   H415      1.0  0.98719  0.35505  0.32596  1.0000
  H   H416      1.0  0.89479  0.41423  0.27892  1.0000
  H   H417      1.0  0.93118  0.39692  0.23586  1.0000
  H   H418      1.0  0.96214  0.61291  0.05051  1.0000
  H   H419      1.0  0.87235  0.45771  0.31924  1.0000
  C   C350      1.0  0.94461  0.59343  0.14112  1.0000
  C   C351      1.0  0.77606  0.62881  0.41654  1.0000
  H   H420      1.0  0.90528  0.35645  0.27563  1.0000
  H   H421      1.0  0.89189  0.56317  0.20712  1.0000
  H   H422      1.0  0.78383  0.61667  0.39017  1.0000
  C   C352      1.0  0.77302  0.55899  0.43321  1.0000
  H   H423      1.0  0.84893  0.61752  0.46407  1.0000
  S   S95       1.0  0.97963  0.35261  0.12592  1.0000
  C   C353      1.0  0.95778  0.41675  0.34376  1.0000
  H   H424      1.0  0.74892  0.62428  0.42070  1.0000
  N   N24       1.0  0.92980  0.56728  0.16495  1.0000
  H   H425      1.0  0.84064  0.60740  0.41691  1.0000
  C   C354      1.0  0.95955  0.62229  0.15731  1.0000
  C   C355      1.0  0.89615  0.44604  0.32618  1.0000
  C   C356      1.0  0.95604  0.39142  0.24829  1.0000
  H   H426      1.0  0.90314  0.47535  0.37580  1.0000
  C   C357      1.0  0.83208  0.62334  0.44025  1.0000
  C   C358      1.0  0.90564  0.58255  0.19112  1.0000
  H   H427      1.0  0.83653  0.64986  0.43213  1.0000
  Fe  Fe48      1.0  0.92858  0.36969  0.14371  1.0000
  C   C359      1.0  0.76918  0.52506  0.44184  1.0000
  H   H428      1.0  0.89978  0.52220  0.16278  1.0000
  H   H429      1.0  0.92878  0.52574  0.12616  1.0000
  C   C360      1.0  0.96128  0.61541  0.08046  1.0000
  H   H430      1.0  0.95990  0.62603  0.18692  1.0000
  C   C361      1.0  0.94060  0.40570  0.31123  1.0000
  C   C362      1.0  0.93037  0.34995  0.28717  1.0000
  H   H431      1.0  0.94671  0.53372  0.20781  1.0000
  H   H432      1.0  0.88674  0.59810  0.17623  1.0000
  C   C363      1.0  0.94420  0.44155  0.36668  1.0000
  C   C364      1.0  0.91347  0.45610  0.35796  1.0000
  C   C365      1.0  0.98837  0.62210  0.25669  1.0000
  H   H433      1.0  0.76147  0.56731  0.40769  1.0000
  C   C366      1.0  0.86131  0.45878  0.50155  1.0000
  H   H434      1.0  0.93574  0.56942  0.08699  1.0000
  H   H435      1.0  0.76077  0.63167  0.48974  1.0000
  H   H436      1.0  0.75527  0.50870  0.42327  1.0000
  C   C367      1.0  0.98731  0.36639  0.29785  1.0000
  C   C368      1.0  0.88817  0.51341  0.49938  1.0000
  C   C369      1.0  0.97863  0.65574  0.25791  1.0000
  H   H437      1.0  0.92669  0.34062  0.31588  1.0000
  C   C370      1.0  0.78377  0.51191  0.47384  1.0000
  C   C371      1.0  0.97490  0.64676  0.13579  1.0000
  C   C372      1.0  0.97562  0.64341  0.09744  1.0000
  H   H438      1.0  0.77917  0.65621  0.41184  1.0000
  C   C373      1.0  0.78681  0.63742  0.48117  1.0000
  C   C374      1.0  0.80265  0.53251  0.49711  1.0000
  C   C375      1.0  0.80711  0.56631  0.48847  1.0000
  H   H439      1.0  0.97125  0.41471  0.24691  1.0000
  H   H440      1.0  0.80354  0.63319  0.50546  1.0000
  Fe  Fe49      1.0  0.84875  0.42676  0.66812  1.0000
  S   S96       1.0  0.89114  0.43371  0.62852  1.0000
  S   S97       1.0  0.83293  0.46686  0.70896  1.0000
  Fe  Fe50      1.0  0.83222  0.35568  0.64123  1.0000
  S   S98       1.0  0.87402  0.35742  0.59984  1.0000
  S   S99       1.0  0.99192  0.62360  0.83466  1.0000
  Fe  Fe51      1.0  0.90481  0.38107  0.64517  1.0000
  S   S100      1.0  0.95955  0.36783  0.65330  1.0000
  Fe  Fe52      1.0  0.85684  0.40976  0.58636  1.0000
  S   S101      1.0  0.84818  0.42236  0.52544  1.0000
  S   S102      1.0  0.86475  0.37580  0.68772  1.0000
  S   S103      1.0  0.81286  0.40651  0.62474  1.0000
  C   C376      1.0  0.95835  0.53032  0.68372  1.0000
  Fe  Fe53      1.0  0.94358  0.60655  0.80824  1.0000
  S   S104      1.0  0.94504  0.55066  0.79478  1.0000
  H   H441      1.0  0.81495  0.52183  0.52126  1.0000
  H   H442      1.0  0.78940  0.37831  0.79105  1.0000
  C   C377      1.0  0.97605  0.34888  0.69371  1.0000
  H   H443      1.0  0.98617  0.43687  0.65022  1.0000
  C   C378      1.0  0.86466  0.49089  0.73100  1.0000
  C   C379      1.0  0.89679  0.47781  0.73652  1.0000
  C   C380      1.0  0.92096  0.49650  0.75623  1.0000
  C   C381      1.0  0.91372  0.52879  0.76952  1.0000
  C   C382      1.0  0.88181  0.54216  0.76341  1.0000
  C   C383      1.0  0.85724  0.52305  0.74467  1.0000
  H   H444      1.0  0.90275  0.45304  0.72629  1.0000
  H   H445      1.0  0.94555  0.48610  0.76099  1.0000
  H   H446      1.0  0.87586  0.56693  0.77372  1.0000
  H   H447      1.0  0.83244  0.53334  0.74063  1.0000
  S   S105      1.0  0.96559  0.65898  0.93551  1.0000
  H   H448      1.0  0.92863  0.33766  0.71856  1.0000
  H   H449      1.0  0.88560  0.48224  0.54831  1.0000
  S   S106      1.0  0.91230  0.63412  0.84991  1.0000
  C   C384      1.0  0.97208  0.45377  0.87880  1.0000
  H   H450      1.0  0.99021  0.44516  0.75167  1.0000
  H   H451      1.0  0.74375  0.39552  0.68535  1.0000
  C   C385      1.0  0.96090  0.35535  0.92370  1.0000
  H   H452      1.0  0.92519  0.38338  0.82572  1.0000
  H   H453      1.0  0.96554  0.43227  0.71215  1.0000
  H   H454      1.0  0.80991  0.40575  0.75879  1.0000
  C   C386      1.0  0.97769  0.42046  0.88917  1.0000
  H   H455      1.0  0.93407  0.53609  0.67164  1.0000
  H   H456      1.0  0.78103  0.37086  0.68961  1.0000
  H   H457      1.0  0.91621  0.44150  0.80884  1.0000
  H   H458      1.0  0.74067  0.41910  0.78538  1.0000
  H   H459      1.0  0.78294  0.41535  0.69619  1.0000
  N   N25       1.0  0.76093  0.38859  0.74149  1.0000
  C   C387      1.0  0.79333  0.38336  0.76109  1.0000
  C   C388      1.0  0.76746  0.39272  0.70146  1.0000
  C   C389      1.0  0.74662  0.42061  0.75536  1.0000
  C   C390      1.0  0.93343  0.43546  0.83127  1.0000
  H   H460      1.0  0.76448  0.44188  0.75201  1.0000
  C   C391      1.0  0.94996  0.46127  0.84993  1.0000
  H   H461      1.0  0.98489  0.47392  0.89330  1.0000
  C   C392      1.0  0.87907  0.48451  0.51927  1.0000
  H   H462      1.0  0.94555  0.48716  0.84197  1.0000
  H   H463      1.0  0.82338  0.58075  0.50643  1.0000
  H   H464      1.0  0.72371  0.42788  0.73957  1.0000
  C   C393      1.0  0.99149  0.43394  0.72344  1.0000
  N   N26       1.0  0.96671  0.35857  0.88326  1.0000
  C   C394      1.0  0.96068  0.39357  0.87131  1.0000
  Fe  Fe54      1.0  0.96066  0.65466  0.87278  1.0000
  H   H465      1.0  0.96604  0.58043  0.70419  1.0000
  S   S107      1.0  0.94146  0.64846  0.76659  1.0000
  C   C395      1.0  0.97074  0.49757  0.68242  1.0000
  H   H466      1.0  0.97970  0.36918  0.94066  1.0000
  C   C396      1.0  0.94495  0.33368  0.86412  1.0000
  H   H467      1.0  0.93571  0.36482  0.93138  1.0000
  C   C397      1.0  0.93868  0.40205  0.84153  1.0000
  C   C398      1.0  0.95549  0.33601  0.72138  1.0000
  H   H468      1.0  0.95503  0.47885  0.66937  1.0000
  C   C399      1.0  0.97627  0.55531  0.70209  1.0000
  H   H469      1.0  0.90175  0.53326  0.51335  1.0000
  H   H470      1.0  0.80790  0.36217  0.74938  1.0000
  C   C400      1.0  0.70505  0.36228  0.75843  1.0000
  H   H471      1.0  0.69406  0.38603  0.76593  1.0000
  C   C401      1.0  0.73876  0.35927  0.74651  1.0000
  H   H472      1.0  0.74117  0.33969  0.64309  1.0000
  C   C402      1.0  0.68408  0.33428  0.76015  1.0000
  H   H473      1.0  0.65825  0.33710  0.76855  1.0000
  H   H474      1.0  0.94998  0.33280  0.83385  1.0000
  H   H475      1.0  0.91801  0.33910  0.86876  1.0000
  Fe  Fe55      1.0  0.56944  0.79702  0.32318  1.0000
  S   S108      1.0  0.57914  0.84127  0.35980  1.0000
  H   H476      1.0  0.54691  0.86197  0.23793  1.0000
  Fe  Fe56      1.0  0.64425  0.77761  0.32197  1.0000
  S   S109      1.0  0.65902  0.82164  0.35807  1.0000
  S   S110      1.0  0.67789  0.73754  0.29559  1.0000
  Fe  Fe57      1.0  0.61356  0.80793  0.39189  1.0000
  S   S111      1.0  0.61059  0.79918  0.45411  1.0000
  Fe  Fe58      1.0  0.62265  0.85133  0.32250  1.0000
  S   S112      1.0  0.62012  0.90413  0.29934  1.0000
  S   S113      1.0  0.60109  0.76239  0.35768  1.0000
  S   S114      1.0  0.61092  0.80855  0.28396  1.0000
  C   C403      1.0  0.74363  0.85517  0.21115  1.0000
  N   N27       1.0  0.50766  0.75824  0.43035  1.0000
  C   C404      1.0  0.74987  0.77195  0.24406  1.0000
  H   H477      1.0  0.80249  0.80057  0.27648  1.0000
  C   C405      1.0  0.53620  0.94492  0.21297  1.0000
  H   H478      1.0  0.49701  0.80465  0.40184  1.0000
  C   C406      1.0  0.51176  0.79605  0.23680  1.0000
  C   C407      1.0  0.65113  0.92205  0.27130  1.0000
  C   C408      1.0  0.68467  0.91250  0.27416  1.0000
  C   C409      1.0  0.70898  0.92935  0.25334  1.0000
  C   C410      1.0  0.69977  0.95499  0.22868  1.0000
  C   C411      1.0  0.66607  0.96382  0.22508  1.0000
  C   C412      1.0  0.64197  0.94793  0.24697  1.0000
  H   H479      1.0  0.69198  0.89278  0.29308  1.0000
  H   H480      1.0  0.73504  0.92244  0.25623  1.0000
  H   H481      1.0  0.99020  0.70619  0.24057  1.0000
  H   H482      1.0  0.61616  0.95581  0.24519  1.0000
  C   C413      1.0  0.58119  0.81951  0.48305  1.0000
  C   C414      1.0  0.56697  0.85033  0.47338  1.0000
  H   H483      1.0  0.53435  0.78414  0.38746  1.0000
  H   H484      1.0  0.76984  0.86153  0.21112  1.0000
  H   H485      1.0  0.57440  0.86257  0.44806  1.0000
  H   H486      1.0  0.59510  0.98492  0.16008  1.0000
  H   H487      1.0  0.72452  0.74885  0.35815  1.0000
  S   S115      1.0  0.73090  0.97565  0.20313  1.0000
  H   H488      1.0  0.53657  0.78518  0.23651  1.0000
  C   C415      1.0  0.73050  0.82858  0.23279  1.0000
  H   H489      1.0  0.55227  0.92851  0.28238  1.0000
  H   H490      1.0  0.58365  0.93052  0.18689  1.0000
  C   C416      1.0  0.51860  0.78952  0.41196  1.0000
  C   C417      1.0  0.73938  0.80911  0.29570  1.0000
  H   H491      1.0  0.79886  0.81486  0.22983  1.0000
  C   C418      1.0  0.53814  0.73923  0.44105  1.0000
  C   C419      1.0  0.72761  0.68975  0.29029  1.0000
  C   C420      1.0  0.77664  0.68507  0.33067  1.0000
  C   C421      1.0  0.52812  0.91785  0.27218  1.0000
  C   C422      1.0  0.75793  0.67369  0.30019  1.0000
  H   H492      1.0  0.55265  0.75285  0.46286  1.0000
  H   H493      1.0  0.75917  0.76940  0.21523  1.0000
  H   H494      1.0  0.77850  0.72152  0.37490  1.0000
  H   H495      1.0  0.64802  0.83912  0.20788  1.0000
  C   C423      1.0  0.56539  0.95003  0.19144  1.0000
  N   N28       1.0  0.75164  0.80722  0.25704  1.0000
  H   H496      1.0  0.68369  0.80315  0.24583  1.0000
  C   C424      1.0  0.72272  0.87512  0.18907  1.0000
  H   H497      1.0  0.71383  0.79864  0.29854  1.0000
  H   H498      1.0  0.67232  0.88559  0.17156  1.0000
  C   C425      1.0  0.76426  0.71237  0.35134  1.0000
  C   C426      1.0  0.68839  0.86942  0.18797  1.0000
  H   H499      1.0  0.50678  0.79700  0.17718  1.0000
  C   C427      1.0  0.55343  0.88581  0.22368  1.0000
  H   H500      1.0  0.71368  0.68100  0.26630  1.0000
  H   H501      1.0  0.72393  0.76205  0.24407  1.0000
  S   S116      1.0  0.51411  0.78892  0.31283  1.0000
  C   C428      1.0  0.73363  0.72801  0.34186  1.0000
  H   H502      1.0  0.65870  0.98306  0.20561  1.0000
  H   H503      1.0  0.79072  0.84318  0.26813  1.0000
  C   C429      1.0  0.71518  0.71696  0.31102  1.0000
  H   H504      1.0  0.55461  0.87994  0.19355  1.0000
  N   N29       1.0  0.52868  0.91271  0.23143  1.0000
  C   C430      1.0  0.68896  0.98651  0.01413  1.0000
  H   H505      1.0  0.75544  0.79443  0.31512  1.0000
  H   H506      1.0  0.76479  0.75485  0.26217  1.0000
  C   C431      1.0  0.51439  0.97278  0.21714  1.0000
  H   H507      1.0  0.73305  0.89596  0.17362  1.0000
  C   C432      1.0  0.78747  0.81705  0.25777  1.0000
  C   C433      1.0  0.69545  0.82311  0.23046  1.0000
  H   H508      1.0  0.78821  0.66474  0.47513  1.0000
  H   H509      1.0  0.55521  0.73556  0.41716  1.0000
  C   C434      1.0  0.67478  0.84341  0.20855  1.0000
  H   H510      1.0  0.73854  0.83551  0.30575  1.0000
  H   H511      1.0  0.50284  0.73528  0.37625  1.0000
  H   H512      1.0  0.53236  0.71397  0.45200  1.0000
  C   C435      1.0  0.54337  0.86557  0.49676  1.0000
  C   C436      1.0  0.57233  0.98126  0.17574  1.0000
  H   H513      1.0  0.67703  0.98957  0.04071  1.0000
  S   S117      1.0  0.81601  0.66715  0.34362  1.0000
  H   H514      1.0  0.50775  0.93505  0.28086  1.0000
  H   H515      1.0  0.57886  0.89266  0.23401  1.0000
  H   H516      1.0  0.53436  0.80509  0.43058  1.0000
  C   C437      1.0  0.49544  0.90027  0.21909  1.0000
  H   H517      1.0  0.52420  0.89383  0.28725  1.0000
  H   H518      1.0  0.98657  0.66835  0.14902  1.0000
  C   C438      1.0  0.49576  0.80161  0.27056  1.0000
  H   H519      1.0  0.53278  0.88959  0.48925  1.0000
  H   H520      1.0  0.98293  0.66491  0.01235  1.0000
  H   H521      1.0  0.95674  0.66302  0.27339  1.0000
  H   H522      1.0  0.56723  0.90315  0.71449  1.0000
  H   H523      1.0  0.53990  0.80682  0.56461  1.0000
  H   H524      1.0  0.52797  0.91713  0.69752  1.0000
  H   H525      1.0  0.87033  0.85303  0.94981  1.0000
  Fe  Fe59      1.0  0.76151  0.88265  0.82442  1.0000
  S   S118      1.0  0.71204  0.86132  0.84205  1.0000
  S   S119      1.0  0.81282  0.85645  0.82766  1.0000
  Fe  Fe60      1.0  0.72855  0.95109  0.80394  1.0000
  S   S120      1.0  0.67744  0.93342  0.81914  1.0000
  Fe  Fe61      1.0  0.70336  0.91195  0.86937  1.0000
  S   S121      1.0  0.68128  0.92203  0.92639  1.0000
  Fe  Fe62      1.0  0.69115  0.88565  0.79026  1.0000
  S   S122      1.0  0.66170  0.86208  0.74259  1.0000
  S   S123      1.0  0.75398  0.93148  0.85529  1.0000
  S   S124      1.0  0.74119  0.90476  0.77136  1.0000
  H   H526      1.0  0.66082  0.94214  0.99938  1.0000
  H   H527      1.0  0.61376  0.95412  0.69526  1.0000
  S   S125      1.0  0.86328  0.70544  0.80179  1.0000
  C   C439      1.0  0.57147  0.80409  0.51624  1.0000
  C   C440      1.0  0.67977  0.95965  0.99060  1.0000
  S   S126      1.0  0.96017  0.69985  0.83581  1.0000
  C   C441      1.0  0.69485  0.95530  0.95583  1.0000
  H   H528      1.0  0.83341  0.74393  0.89800  1.0000
  H   H529      1.0  0.58244  0.78031  0.52402  1.0000
  C   C442      1.0  0.82629  0.81401  0.82216  1.0000
  C   C443      1.0  0.80375  0.78766  0.81668  1.0000
  C   C444      1.0  0.81552  0.75466  0.81101  1.0000
  C   C445      1.0  0.85000  0.74735  0.81123  1.0000
  C   C446      1.0  0.87258  0.77353  0.81780  1.0000
  C   C447      1.0  0.86077  0.80660  0.82316  1.0000
  H   H530      1.0  0.77728  0.79281  0.81696  1.0000
  H   H531      1.0  0.79779  0.73466  0.80617  1.0000
  H   H532      1.0  0.89914  0.76849  0.81773  1.0000
  H   H533      1.0  0.87848  0.82669  0.82765  1.0000
  C   C448      1.0  0.54914  0.83939  0.74162  1.0000
  C   C449      1.0  0.56830  0.83454  0.70981  1.0000
  C   C450      1.0  0.60285  0.84128  0.71072  1.0000
  C   C451      1.0  0.61840  0.85336  0.74322  1.0000
  C   C452      1.0  0.59923  0.85837  0.77495  1.0000
  C   C453      1.0  0.56478  0.85111  0.77421  1.0000
  H   H534      1.0  0.55655  0.82525  0.68468  1.0000
  H   H535      1.0  0.61756  0.83717  0.68611  1.0000
  H   H536      1.0  0.61097  0.86750  0.80016  1.0000
  H   H537      1.0  0.55012  0.85472  0.79897  1.0000
  H   H538      1.0  0.73143  0.97506  0.91842  1.0000
  C   C454      1.0  0.54736  0.81904  0.53929  1.0000
  H   H539      1.0  0.87528  0.79240  0.73028  1.0000
  N   N30       1.0  0.74055  0.79688  0.71841  1.0000
  C   C455      1.0  0.72959  0.82566  0.69520  1.0000
  C   C456      1.0  0.77754  0.79530  0.72031  1.0000
  C   C457      1.0  0.79638  0.82425  0.72986  1.0000
  C   C458      1.0  0.83124  0.82327  0.73255  1.0000
  C   C459      1.0  0.84836  0.79337  0.72664  1.0000
  H   H540      1.0  0.73693  0.82476  0.76964  1.0000
  H   H541      1.0  0.74214  0.82538  0.66781  1.0000
  H   H542      1.0  0.70207  0.82556  0.69014  1.0000
  H   H543      1.0  0.73469  0.85025  0.70867  1.0000
  H   H544      1.0  0.78431  0.84766  0.73674  1.0000
  H   H545      1.0  0.84490  0.84550  0.74116  1.0000
  Fe  Fe63      1.0  0.98807  0.66688  0.79550  1.0000
  C   C460      1.0  0.93110  0.75065  0.90979  1.0000
  C   C461      1.0  0.87532  0.76965  0.92601  1.0000
  N   N31       1.0  0.89916  0.74122  0.92757  1.0000
  H   H546      1.0  0.69729  0.76887  0.69980  1.0000
  H   H547      1.0  0.92334  0.71053  0.96903  1.0000
  H   H548      1.0  0.67879  0.97934  0.74739  1.0000
  C   C462      1.0  0.90609  0.73244  0.96680  1.0000
  Fe  Fe64      1.0  0.91346  0.67801  0.81052  1.0000
  H   H549      1.0  0.78378  0.74149  0.70872  1.0000
  C   C463      1.0  0.88670  0.71057  0.90849  1.0000
  H   H550      1.0  0.88261  0.72588  0.98141  1.0000
  C   C464      1.0  0.72738  0.80141  0.75634  1.0000
  H   H551      1.0  0.88142  0.71536  0.87863  1.0000
  H   H552      1.0  0.57595  0.91501  0.61087  1.0000
  C   C465      1.0  0.84260  0.76680  0.91047  1.0000
  H   H553      1.0  0.90541  0.68991  0.90945  1.0000
  S   S127      1.0  0.50571  0.83134  0.74165  1.0000
  N   N32       1.0  0.57053  0.93473  0.66618  1.0000
  C   C466      1.0  0.71941  0.97810  0.94492  1.0000
  C   C467      1.0  0.83094  0.82525  0.92329  1.0000
  H   H554      1.0  0.84411  0.74083  0.71495  1.0000
  C   C468      1.0  0.60722  0.93580  0.67309  1.0000
  H   H555      1.0  0.73464  0.78011  0.77451  1.0000
  H   H556      1.0  0.50462  0.94927  0.65159  1.0000
  H   H557      1.0  0.53711  0.90484  0.63176  1.0000
  H   H558      1.0  0.62122  0.94207  0.64751  1.0000
  H   H559      1.0  0.61711  0.91109  0.68264  1.0000
  H   H560      1.0  0.92683  0.75831  0.88046  1.0000
  H   H561      1.0  0.86375  0.70059  0.92162  1.0000
  H   H562      1.0  0.94925  0.72941  0.90988  1.0000
  C   C469      1.0  0.83069  0.76433  0.71790  1.0000
  C   C470      1.0  0.55445  0.92486  0.70143  1.0000
  H   H563      1.0  0.55526  0.94568  0.72200  1.0000
  C   C471      1.0  0.79579  0.76508  0.71470  1.0000
  H   H564      1.0  0.69958  0.80308  0.75635  1.0000
  H   H565      1.0  0.73478  0.76084  0.67423  1.0000
  H   H566      1.0  0.57408  0.88363  0.64653  1.0000
  C   C472      1.0  0.72498  0.76622  0.70241  1.0000
  H   H567      1.0  0.94407  0.77156  0.92423  1.0000
  H   H568      1.0  0.72918  0.74399  0.72041  1.0000
  C   C473      1.0  0.56415  0.90848  0.63774  1.0000
  C   C474      1.0  0.88439  0.80138  0.94094  1.0000
  C   C475      1.0  0.53337  0.84999  0.52972  1.0000
  H   H569      1.0  0.81434  0.84669  0.92102  1.0000
  C   C476      1.0  0.82081  0.79423  0.90955  1.0000
  H   H570      1.0  0.91821  0.75331  0.98230  1.0000
  H   H571      1.0  0.90857  0.80535  0.95379  1.0000
  C   C477      1.0  0.86259  0.82878  0.93918  1.0000
  C   C478      1.0  0.52119  0.97031  0.64770  1.0000
  H   H572      1.0  0.63625  0.99135  0.86117  1.0000
  C   C479      1.0  0.55624  0.96702  0.65347  1.0000
  H   H573      1.0  0.79625  0.79182  0.89683  1.0000
  H   H574      1.0  0.52459  0.99369  0.77834  1.0000
  S   S128      1.0  0.50374  0.87050  0.55809  1.0000
  H   H575      1.0  0.67773  0.98943  0.88035  1.0000
  H   H576      1.0  0.60295  0.99601  0.65003  1.0000
  C   C480      1.0  0.57608  0.99588  0.64677  1.0000
