data_image0
_chemical_formula_structural       HFeHFeSC3S2H2C2H2C2HCH2CH4CH2CHCHC2SH2C2H3CH2C3HNH2CH4FeH5C3H2CH2C3FeNC2HC2HCH3C2SH3FeSFeS2FeHFeS2C2SFeCSFeSFe2S2CH2CH3C2H4SC2HC3H4CH2C2HCNHCH2C2HSCHCHCH2C3HSC2H2C2HNH2C3H2CSC3H2CHSCFeS2FeS2FeCFeS3H4C4H4C3H2C4H2CHC3SH2SHCSC3H3C2H4CHNH2SH2CH2C3HNHCHCH2CH2NCHCH2SH9C2HCHC2NCHC3HC2HSCH3C2FeS2FeS2FeCFeHS2HC3HCH3CH2SC2H3C2HC3H3SH2SCS2C4HC2H2CHC2HCHC2NHC2H3C2HNHC2H3CHC2H2CHNCHCH3CHCHCSHSHNHFeSCSC2FeSH2CFeSFeSHFeSFeS2H5C2S2H3C4H4SH2C2H3FeH2CH2C4SCSHCHC3HFeH2CHCHC2H2CHNH2NHCH2SCHNCH2C3SCHC4SHCSFeSFeH4FeCH2C3HCH2CH2C3H5SC2H2CHC2H7CFeNCH2C2NH3CHCHNH3CH2C4H2CHCH4CH2C2HC5HCSC2HC2FeS2FeS2FeCFeS3HCSC2HCHSC2HCHCH2N2HCH2C2HC4SH2CHC5H5CH3CHC3H3C2HSH2C2H2CHCH3C3HC2H2CHCH3CH3NHCHC2HC2H2CFeSFeSHFeSFeS2FeS2FeHCFeS2HCHC5H2C4H4CHC3H2C2HCH3CH3CH3CH5C3HSH5C2FeHNC5H3C2HCH2SNH3CHSHCH2SHSH2CH2CH2FeSHFeSFeSFeHCHC2H4C2HC3H2C2H2C3HCH2CHSCSHCH2C2NCHC2H2CH2C3HCH2CH3C2HCNH3CHCHCHCSH4CHFeSFeSFeHFeS2H4CH4C3HCH8CH2CHCHC2H3C2HC3H4CNH3C4HSCHC4HSC2HCHCHSCH2SFeSFeSFeHSC2HFeSFeSCFeCHSC2HC2HCHCH2FeH2C2NH2SH3CSH5CHC2H3CHC3SC4NC2H3CFeH3CHC2HSHCSCH2C7HCHCHNCH2CSH2CH3CHCH5CH3C2HFeS2FeS2FeCFeHS2HC2H4CHCH2CH2C2SH2C2H4CNCHC4HSCSCNHCH3CHC2HCH5C2H3C2SH5CHC3HCHCH2CH2CHC2SNCH2CHCHCH
_chemical_formula_sum              "H576 Fe64 S128 C480 N32"
_cell_length_a       35.5128
_cell_length_b       35.8497
_cell_length_c       50.3891
_cell_angle_alpha    90.1379
_cell_angle_beta     90.2437
_cell_angle_gamma    90.1453

_space_group_name_H-M_alt    "P 1"
_space_group_IT_number       1

loop_
  _space_group_symop_operation_xyz
  'x, y, z'

loop_
  _atom_site_type_symbol
  _atom_site_label
  _atom_site_symmetry_multiplicity
  _atom_site_fract_x
  _atom_site_fract_y
  _atom_site_fract_z
  _atom_site_occupancy
  H   H1        1.0  0.13494  0.10491  0.11960  1.0000
  Fe  Fe1       1.0  0.06198  0.00933  0.10562  1.0000
  H   H2        1.0  0.10084  0.09511  0.05166  1.0000
  Fe  Fe2       1.0  0.01566  0.07977  0.09290  1.0000
  S   S1        1.0  0.02505  0.14246  0.08790  1.0000
  C   C1        1.0  0.12489  0.38702  0.28783  1.0000
  C   C2        1.0  0.41056  0.03869  0.99698  1.0000
  C   C3        1.0  0.06904  0.41564  0.24835  1.0000
  S   S2        1.0  0.03697  0.05491  0.13112  1.0000
  S   S3        1.0  0.04470  0.03669  0.06709  1.0000
  H   H3        1.0  0.12414  0.15418  0.07337  1.0000
  H   H4        1.0  0.16737  0.15318  0.09215  1.0000
  C   C4        1.0  0.43392  0.04766  0.01833  1.0000
  C   C5        1.0  0.07241  0.44147  0.20413  1.0000
  H   H5        1.0  0.08502  0.47187  0.29846  1.0000
  H   H6        1.0  0.24085  0.03023  0.12361  1.0000
  C   C6        1.0  0.15584  0.44644  0.28742  1.0000
  C   C7        1.0  0.31843  0.46120  0.20740  1.0000
  H   H7        1.0  0.26964  0.47899  0.30745  1.0000
  C   C8        1.0  0.98807  0.17597  0.08637  1.0000
  H   H8        1.0  0.16800  0.14829  0.05668  1.0000
  H   H9        1.0  0.02725  0.40664  0.21783  1.0000
  C   C9        1.0  0.97844  0.03540  0.21497  1.0000
  H   H10       1.0  0.34978  0.44872  0.29413  1.0000
  H   H11       1.0  0.20729  0.10068  0.04250  1.0000
  H   H12       1.0  0.26872  0.07049  0.04631  1.0000
  H   H13       1.0  0.02624  0.22285  0.08730  1.0000
  C   C10       1.0  0.32635  0.48743  0.25222  1.0000
  H   H14       1.0  0.14504  0.09086  0.03548  1.0000
  H   H15       1.0  0.17779  0.43602  0.27362  1.0000
  C   C11       1.0  0.30590  0.46537  0.23355  1.0000
  H   H16       1.0  0.06535  0.42644  0.30266  1.0000
  C   C12       1.0  0.44038  0.44761  0.00264  1.0000
  H   H17       1.0  0.43091  0.03297  0.03702  1.0000
  C   C13       1.0  0.21358  0.08575  0.06057  1.0000
  C   C14       1.0  0.24893  0.06883  0.06259  1.0000
  S   S4        1.0  0.98699  0.42411  0.29625  1.0000
  H   H18       1.0  0.02394  0.99222  0.17560  1.0000
  H   H19       1.0  0.30259  0.44422  0.19342  1.0000
  C   C15       1.0  0.05385  0.41988  0.22291  1.0000
  C   C16       1.0  0.99704  0.21426  0.08654  1.0000
  H   H20       1.0  0.11869  0.06226  0.10394  1.0000
  H   H21       1.0  0.00063  0.18997  0.20788  1.0000
  H   H22       1.0  0.00272  0.04344  0.20344  1.0000
  C   C17       1.0  0.25869  0.04898  0.08531  1.0000
  H   H23       1.0  0.12800  0.05297  0.05531  1.0000
  H   H24       1.0  0.98244  0.12491  0.21824  1.0000
  C   C18       1.0  0.12996  0.08396  0.05409  1.0000
  C   C19       1.0  0.18659  0.08273  0.08120  1.0000
  C   C20       1.0  0.09224  0.44224  0.30257  1.0000
  H   H25       1.0  0.36115  0.47544  0.17885  1.0000
  N   N1        1.0  0.14876  0.09956  0.07804  1.0000
  H   H26       1.0  0.28560  0.03475  0.08652  1.0000
  H   H27       1.0  0.13702  0.38191  0.30794  1.0000
  C   C21       1.0  0.34318  0.47848  0.29838  1.0000
  H   H28       1.0  0.09520  0.10534  0.09787  1.0000
  H   H29       1.0  0.28027  0.45092  0.23865  1.0000
  H   H30       1.0  0.42607  0.42977  0.01667  1.0000
  H   H31       1.0  0.17909  0.05816  0.12086  1.0000
  Fe  Fe3       1.0  0.98341  0.02179  0.13109  1.0000
  H   H32       1.0  0.00404  0.05040  0.25250  1.0000
  H   H33       1.0  0.09811  0.37096  0.28706  1.0000
  H   H34       1.0  0.05308  0.39917  0.26234  1.0000
  H   H35       1.0  0.14422  0.37453  0.27297  1.0000
  H   H36       1.0  0.28066  0.44292  0.28438  1.0000
  C   C22       1.0  0.23335  0.04642  0.10623  1.0000
  C   C23       1.0  0.12348  0.09264  0.10094  1.0000
  C   C24       1.0  0.46698  0.09224  0.99091  1.0000
  H   H37       1.0  0.16659  0.44126  0.30792  1.0000
  H   H38       1.0  0.06024  0.44489  0.18450  1.0000
  C   C25       1.0  0.19772  0.06275  0.10430  1.0000
  H   H39       1.0  0.99989  0.00412  0.99484  1.0000
  H   H40       1.0  0.12047  0.47589  0.19601  1.0000
  C   C26       1.0  0.10367  0.43270  0.25573  1.0000
  C   C27       1.0  0.27805  0.47372  0.28647  1.0000
  C   C28       1.0  0.46207  0.07439  0.01531  1.0000
  Fe  Fe4       1.0  0.99005  0.00440  0.07036  1.0000
  N   N2        1.0  0.11917  0.42740  0.28280  1.0000
  C   C29       1.0  0.15232  0.14054  0.07490  1.0000
  C   C30       1.0  0.46358  0.47669  0.01228  1.0000
  H   H41       1.0  0.98159  0.34775  0.27459  1.0000
  C   C31       1.0  0.12192  0.45469  0.23610  1.0000
  C   C32       1.0  0.97902  0.03951  0.24288  1.0000
  H   H42       1.0  0.15315  0.47724  0.28548  1.0000
  C   C33       1.0  0.10634  0.45888  0.21070  1.0000
  H   H43       1.0  0.25449  0.48394  0.27387  1.0000
  H   H44       1.0  0.38945  0.01704  0.99929  1.0000
  H   H45       1.0  0.14806  0.46915  0.23990  1.0000
  C   C34       1.0  0.35142  0.47870  0.19911  1.0000
  C   C35       1.0  0.98547  0.18388  0.22600  1.0000
  S   S5        1.0  0.46814  0.48337  0.04743  1.0000
  H   H46       1.0  0.99475  0.14555  0.14267  1.0000
  H   H47       1.0  0.98557  0.24084  0.23945  1.0000
  H   H48       1.0  0.47759  0.46306  0.24297  1.0000
  Fe  Fe5       1.0  0.02546  0.33229  0.37165  1.0000
  S   S6        1.0  0.02457  0.26820  0.37345  1.0000
  Fe  Fe6       1.0  0.08551  0.39545  0.36692  1.0000
  S   S7        1.0  0.04029  0.43912  0.36295  1.0000
  S   S8        1.0  0.15039  0.40094  0.36240  1.0000
  Fe  Fe7       1.0  0.01009  0.40925  0.39624  1.0000
  H   H49       1.0  0.02020  0.07606  0.42169  1.0000
  Fe  Fe8       1.0  0.01040  0.39910  0.33504  1.0000
  S   S9        1.0  0.05703  0.36744  0.40187  1.0000
  S   S10       1.0  0.05713  0.35718  0.33722  1.0000
  C   C36       1.0  0.22571  0.42142  0.36204  1.0000
  C   C37       1.0  0.42412  0.34466  0.54886  1.0000
  S   S11       1.0  0.45997  0.05686  0.59159  1.0000
  Fe  Fe9       1.0  0.40991  0.09504  0.59085  1.0000
  C   C38       1.0  0.46898  0.25623  0.59674  1.0000
  S   S12       1.0  0.41027  0.15889  0.58951  1.0000
  Fe  Fe10      1.0  0.35332  0.03058  0.60077  1.0000
  S   S13       1.0  0.29068  0.02286  0.61181  1.0000
  Fe  Fe11      1.0  0.43229  0.03078  0.62719  1.0000
  Fe  Fe12      1.0  0.42443  0.01760  0.56661  1.0000
  S   S14       1.0  0.38425  0.07092  0.62779  1.0000
  S   S15       1.0  0.37549  0.05782  0.56346  1.0000
  C   C39       1.0  0.00889  0.21582  0.43867  1.0000
  H   H50       1.0  0.05143  0.13206  0.43445  1.0000
  H   H51       1.0  0.37908  0.29333  0.51970  1.0000
  C   C40       1.0  0.40218  0.27407  0.52212  1.0000
  H   H52       1.0  0.39359  0.34416  0.54404  1.0000
  H   H53       1.0  0.00505  0.04350  0.44615  1.0000
  H   H54       1.0  0.36473  0.22663  0.51970  1.0000
  C   C41       1.0  0.44009  0.22917  0.59598  1.0000
  C   C42       1.0  0.44817  0.19134  0.59118  1.0000
  H   H55       1.0  0.43103  0.02561  0.49061  1.0000
  H   H56       1.0  0.41119  0.23767  0.59889  1.0000
  H   H57       1.0  0.40791  0.34260  0.49681  1.0000
  H   H58       1.0  0.28511  0.43587  0.36142  1.0000
  S   S16       1.0  0.39938  0.48150  0.35879  1.0000
  C   C43       1.0  0.46816  0.25946  0.52854  1.0000
  C   C44       1.0  0.99558  0.19701  0.37395  1.0000
  H   H59       1.0  0.02436  0.18851  0.37048  1.0000
  C   C45       1.0  0.47113  0.45326  0.51201  1.0000
  C   C46       1.0  0.18219  0.47292  0.36321  1.0000
  C   C47       1.0  0.00429  0.43723  0.47897  1.0000
  H   H60       1.0  0.02476  0.43345  0.51933  1.0000
  H   H61       1.0  0.02477  0.41783  0.47117  1.0000
  H   H62       1.0  0.06399  0.19783  0.42731  1.0000
  H   H63       1.0  0.23092  0.39170  0.36177  1.0000
  C   C48       1.0  0.18822  0.43431  0.36297  1.0000
  H   H64       1.0  0.42799  0.32978  0.56805  1.0000
  H   H65       1.0  0.45482  0.33321  0.48557  1.0000
  C   C49       1.0  0.43902  0.47041  0.50100  1.0000
  C   C50       1.0  0.39365  0.23595  0.52184  1.0000
  H   H66       1.0  0.44137  0.01782  0.44208  1.0000
  C   C51       1.0  0.25664  0.44648  0.36184  1.0000
  N   N3        1.0  0.44754  0.32760  0.52773  1.0000
  H   H67       1.0  0.43138  0.37459  0.55219  1.0000
  C   C52       1.0  0.43962  0.28706  0.52606  1.0000
  H   H68       1.0  0.03937  0.07737  0.45522  1.0000
  H   H69       1.0  0.21039  0.03218  0.61532  1.0000
  C   C53       1.0  0.00422  0.44624  0.50632  1.0000
  C   C54       1.0  0.01339  0.07320  0.44315  1.0000
  H   H70       1.0  0.01480  0.24498  0.43464  1.0000
  S   S17       1.0  0.47264  0.44494  0.54700  1.0000
  C   C55       1.0  0.42215  0.20971  0.52490  1.0000
  H   H71       1.0  0.99975  0.10061  0.49216  1.0000
  C   C56       1.0  0.25061  0.48508  0.36224  1.0000
  H   H72       1.0  0.44428  0.37613  0.50256  1.0000
  C   C57       1.0  0.43820  0.34558  0.50206  1.0000
  H   H73       1.0  0.46220  0.28516  0.60037  1.0000
  H   H74       1.0  0.42073  0.17377  0.64633  1.0000
  C   C58       1.0  0.46775  0.47250  0.45711  1.0000
  C   C59       1.0  0.03658  0.18906  0.43444  1.0000
  C   C60       1.0  0.02877  0.15121  0.43847  1.0000
  H   H75       1.0  0.41972  0.99314  0.34748  1.0000
  S   S18       1.0  0.46882  0.48681  0.42312  1.0000
  C   C61       1.0  0.21521  0.00375  0.60900  1.0000
  C   C62       1.0  0.98715  0.23527  0.37595  1.0000
  H   H76       1.0  0.41535  0.18019  0.52555  1.0000
  H   H77       1.0  0.10370  0.44065  0.32315  1.0000
  C   C63       1.0  0.99254  0.13910  0.44691  1.0000
  C   C64       1.0  0.25241  0.99173  0.60438  1.0000
  H   H78       1.0  0.31187  0.00830  0.43382  1.0000
  N   N4        1.0  0.98295  0.09929  0.45111  1.0000
  H   H79       1.0  0.46270  0.12676  0.63300  1.0000
  H   H80       1.0  0.28441  0.01878  0.38925  1.0000
  C   C65       1.0  0.43724  0.47989  0.47379  1.0000
  C   C66       1.0  0.45934  0.22143  0.52782  1.0000
  C   C67       1.0  0.44460  0.00075  0.48313  1.0000
  H   H81       1.0  0.41538  0.47682  0.51369  1.0000
  H   H82       1.0  0.15372  0.48352  0.36383  1.0000
  C   C68       1.0  0.45047  0.99617  0.45557  1.0000
  S   S19       1.0  0.97896  0.48109  0.55179  1.0000
  C   C69       1.0  0.97794  0.47154  0.51695  1.0000
  C   C70       1.0  0.97800  0.45349  0.46178  1.0000
  C   C71       1.0  0.30967  0.00209  0.39129  1.0000
  H   H83       1.0  0.33416  0.48053  0.31948  1.0000
  H   H84       1.0  0.31344  0.99247  0.34994  1.0000
  C   C72       1.0  0.32505  0.99622  0.41644  1.0000
  H   H85       1.0  0.15594  0.98926  0.60948  1.0000
  S   S20       1.0  0.47319  0.40177  0.80122  1.0000
  C   C73       1.0  0.46386  0.30865  0.72112  1.0000
  Fe  Fe13      1.0  0.34764  0.41219  0.85707  1.0000
  S   S21       1.0  0.40116  0.44613  0.85515  1.0000
  S   S22       1.0  0.29441  0.44514  0.84522  1.0000
  Fe  Fe14      1.0  0.39284  0.34143  0.87034  1.0000
  S   S23       1.0  0.44810  0.37159  0.87027  1.0000
  S   S24       1.0  0.38859  0.27792  0.87344  1.0000
  Fe  Fe15      1.0  0.41848  0.41718  0.89294  1.0000
  C   C74       1.0  0.42671  0.16699  0.66753  1.0000
  Fe  Fe16      1.0  0.42693  0.39842  0.83272  1.0000
  S   S25       1.0  0.02063  0.47753  0.87246  1.0000
  S   S26       1.0  0.36372  0.38506  0.89592  1.0000
  S   S27       1.0  0.37266  0.36627  0.83173  1.0000
  H   H86       1.0  0.21936  0.03701  0.68891  1.0000
  H   H87       1.0  0.00452  0.40574  0.80992  1.0000
  H   H88       1.0  0.42016  0.15153  0.95392  1.0000
  H   H89       1.0  0.38580  0.00394  0.66721  1.0000
  C   C75       1.0  0.33316  0.45384  0.94197  1.0000
  C   C76       1.0  0.03087  0.37753  0.87103  1.0000
  C   C77       1.0  0.42673  0.24582  0.87379  1.0000
  C   C78       1.0  0.41957  0.20774  0.86899  1.0000
  H   H90       1.0  0.97941  0.37465  0.84861  1.0000
  H   H91       1.0  0.39101  0.19862  0.86504  1.0000
  H   H92       1.0  0.44306  0.15224  0.86529  1.0000
  H   H93       1.0  0.36261  0.44330  0.94064  1.0000
  C   C79       1.0  0.43522  0.40345  0.75264  1.0000
  C   C80       1.0  0.43398  0.40374  0.72463  1.0000
  C   C81       1.0  0.11621  0.41966  0.79662  1.0000
  H   H94       1.0  0.40941  0.40512  0.76390  1.0000
  H   H95       1.0  0.40704  0.40543  0.71460  1.0000
  C   C82       1.0  0.24747  0.45364  0.85660  1.0000
  C   C83       1.0  0.23317  0.43806  0.87994  1.0000
  C   C84       1.0  0.19628  0.44680  0.88842  1.0000
  C   C85       1.0  0.43566  0.04386  0.70805  1.0000
  H   H96       1.0  0.39738  0.04648  0.95649  1.0000
  H   H97       1.0  0.25060  0.41956  0.89160  1.0000
  C   C86       1.0  0.43376  0.04953  0.73572  1.0000
  H   H98       1.0  0.47646  0.48420  0.86981  1.0000
  C   C87       1.0  0.45437  0.46364  0.95664  1.0000
  C   C88       1.0  0.46733  0.02691  0.69689  1.0000
  C   C89       1.0  0.05474  0.43156  0.77859  1.0000
  S   S28       1.0  0.44960  0.45729  0.92148  1.0000
  H   H99       1.0  0.42861  0.10572  0.90280  1.0000
  H   H100      1.0  0.01879  0.36480  0.88854  1.0000
  S   S29       1.0  0.45845  0.04501  0.78746  1.0000
  H   H101      1.0  0.06846  0.44561  0.76146  1.0000
  C   C90       1.0  0.46373  0.03921  0.75256  1.0000
  S   S30       1.0  0.46330  0.40118  0.67414  1.0000
  C   C91       1.0  0.02375  0.40092  0.82620  1.0000
  C   C92       1.0  0.17306  0.47121  0.87382  1.0000
  C   C93       1.0  0.44385  0.08359  0.96864  1.0000
  H   H102      1.0  0.02717  0.44601  0.78092  1.0000
  H   H103      1.0  0.42552  0.06042  0.91708  1.0000
  H   H104      1.0  0.43855  0.14165  0.76236  1.0000
  C   C94       1.0  0.43585  0.44103  0.97509  1.0000
  C   C95       1.0  0.44903  0.18135  0.86916  1.0000
  H   H105      1.0  0.40590  0.14514  0.67319  1.0000
  H   H106      1.0  0.11182  0.41802  0.85119  1.0000
  H   H107      1.0  0.12748  0.43223  0.77808  1.0000
  H   H108      1.0  0.44564  0.32458  0.70803  1.0000
  C   C96       1.0  0.46717  0.40188  0.70946  1.0000
  H   H109      1.0  0.31480  0.43513  0.92980  1.0000
  N   N5        1.0  0.46600  0.15378  0.67137  1.0000
  H   H110      1.0  0.40873  0.06172  0.74424  1.0000
  H   H111      1.0  0.09882  0.47795  0.82874  1.0000
  S   S31       1.0  0.47228  0.06441  0.86010  1.0000
  H   H112      1.0  0.42892  0.31787  0.75426  1.0000
  H   H113      1.0  0.33988  0.00114  0.68153  1.0000
  C   C97       1.0  0.41548  0.05602  0.97239  1.0000
  H   H114      1.0  0.32474  0.45052  0.96304  1.0000
  H   H115      1.0  0.13745  0.42647  0.81221  1.0000
  C   C98       1.0  0.45900  0.13924  0.74652  1.0000
  C   C99       1.0  0.21329  0.00833  0.68346  1.0000
  C   C100      1.0  0.42327  0.09077  0.92177  1.0000
  H   H116      1.0  0.45177  0.15773  0.92642  1.0000
  N   N6        1.0  0.07809  0.43401  0.80312  1.0000
  H   H117      1.0  0.39380  0.09720  0.92757  1.0000
  C   C101      1.0  0.00876  0.38308  0.84848  1.0000
  H   H118      1.0  0.10601  0.99423  0.66406  1.0000
  C   C102      1.0  0.06185  0.41331  0.82581  1.0000
  H   H119      1.0  0.42902  0.29478  0.82414  1.0000
  H   H120      1.0  0.04938  0.40202  0.77285  1.0000
  C   C103      1.0  0.08341  0.40749  0.84924  1.0000
  H   H121      1.0  0.45395  0.09680  0.66088  1.0000
  H   H122      1.0  0.44571  0.22602  0.78863  1.0000
  N   N7        1.0  0.47022  0.28043  0.79431  1.0000
  C   C104      1.0  0.06810  0.38979  0.87142  1.0000
  H   H123      1.0  0.41834  0.41821  0.96824  1.0000
  C   C105      1.0  0.45459  0.30452  0.74792  1.0000
  H   H124      1.0  0.33282  0.47600  0.89167  1.0000
  H   H125      1.0  0.41230  0.05190  0.69554  1.0000
  S   S32       1.0  0.46988  0.01543  0.66253  1.0000
  H   H126      1.0  0.18583  0.43494  0.90670  1.0000
  H   H127      1.0  0.08486  0.38691  0.88935  1.0000
  H   H128      1.0  0.15590  0.01234  0.69473  1.0000
  H   H129      1.0  0.11572  0.38882  0.79398  1.0000
  H   H130      1.0  0.26869  0.99870  0.66796  1.0000
  H   H131      1.0  0.47020  0.15467  0.95910  1.0000
  H   H132      1.0  0.42088  0.15863  0.71740  1.0000
  H   H133      1.0  0.40968  0.28604  0.79204  1.0000
  H   H134      1.0  0.99604  0.99507  0.94593  1.0000
  C   C106      1.0  0.44914  0.14850  0.72043  1.0000
  C   C107      1.0  0.43441  0.29835  0.80252  1.0000
  H   H135      1.0  0.43505  0.32898  0.79889  1.0000
  C   C108      1.0  0.22405  0.47767  0.84181  1.0000
  H   H136      1.0  0.42113  0.19298  0.67895  1.0000
  C   C109      1.0  0.08134  0.47385  0.81053  1.0000
  C   C110      1.0  0.46981  0.40150  0.76591  1.0000
  N   N8        1.0  0.45051  0.10205  0.94279  1.0000
  C   C111      1.0  0.47117  0.12080  0.65390  1.0000
  H   H137      1.0  0.45970  0.23598  0.82216  1.0000
  C   C112      1.0  0.44800  0.14319  0.94579  1.0000
  C   C113      1.0  0.46750  0.24021  0.80100  1.0000
  C   C114      1.0  0.47506  0.14385  0.69921  1.0000
  H   H138      1.0  0.46976  0.28629  0.88282  1.0000
  C   C115      1.0  0.46380  0.25722  0.87880  1.0000
  C   C116      1.0  0.18714  0.48635  0.85027  1.0000
  H   H139      1.0  0.05303  0.48569  0.81467  1.0000
  S   S33       1.0  0.12746  0.48258  0.88645  1.0000
  C   C117      1.0  0.17702  0.99384  0.68678  1.0000
  H   H140      1.0  0.37754  0.48601  0.90635  1.0000
  H   H141      1.0  0.07791  0.95967  0.22940  1.0000
  H   H142      1.0  0.28750  0.54552  0.27133  1.0000
  C   C118      1.0  0.17349  0.97596  0.08189  1.0000
  C   C119      1.0  0.03729  0.95840  0.26023  1.0000
  Fe  Fe17      1.0  0.39222  0.84739  0.08721  1.0000
  S   S34       1.0  0.44486  0.88004  0.09448  1.0000
  S   S35       1.0  0.39186  0.78418  0.08091  1.0000
  Fe  Fe18      1.0  0.34180  0.91767  0.09087  1.0000
  S   S36       1.0  0.39268  0.95443  0.09896  1.0000
  S   S37       1.0  0.28397  0.94282  0.07910  1.0000
  Fe  Fe19      1.0  0.42124  0.92260  0.06605  1.0000
  C   C120      1.0  0.45621  0.84678  0.02705  1.0000
  Fe  Fe20      1.0  0.41230  0.90880  0.12686  1.0000
  H   H143      1.0  0.38943  0.84957  0.00230  1.0000
  S   S38       1.0  0.37021  0.88784  0.05666  1.0000
  S   S39       1.0  0.35984  0.87385  0.12084  1.0000
  H   H144      1.0  0.41656  0.74053  0.18577  1.0000
  C   C121      1.0  0.45784  0.71791  0.01703  1.0000
  C   C122      1.0  0.23752  0.95264  0.09113  1.0000
  C   C123      1.0  0.47177  0.67376  0.15896  1.0000
  H   H145      1.0  0.07145  0.98539  0.18687  1.0000
  C   C124      1.0  0.46096  0.56725  0.22732  1.0000
  H   H146      1.0  0.29864  0.53860  0.30585  1.0000
  H   H147      1.0  0.18396  0.95571  0.14724  1.0000
  H   H148      1.0  0.39038  0.80294  0.98941  1.0000
  C   C125      1.0  0.42607  0.80614  0.15389  1.0000
  H   H149      1.0  0.42159  0.67263  0.18243  1.0000
  H   H150      1.0  0.99081  0.95649  0.28748  1.0000
  S   S40       1.0  0.00895  0.97456  0.10765  1.0000
  C   C126      1.0  0.41534  0.89657  0.24021  1.0000
  C   C127      1.0  0.41510  0.90068  0.21230  1.0000
  H   H151      1.0  0.38949  0.88946  0.25030  1.0000
  H   H152      1.0  0.38928  0.89673  0.20117  1.0000
  H   H153      1.0  0.45616  0.59643  0.22306  1.0000
  C   C128      1.0  0.40181  0.82136  0.00533  1.0000
  C   C129      1.0  0.44244  0.69022  0.17296  1.0000
  H   H154      1.0  0.15305  0.98640  0.06782  1.0000
  C   C130      1.0  0.45149  0.68706  0.08357  1.0000
  C   C131      1.0  0.42227  0.71368  0.08401  1.0000
  C   C132      1.0  0.43009  0.75212  0.08250  1.0000
  H   H155      1.0  0.44492  0.65761  0.08447  1.0000
  H   H156      1.0  0.39334  0.70435  0.08526  1.0000
  H   H157      1.0  0.99699  0.89234  0.17562  1.0000
  S   S41       1.0  0.44938  0.49654  0.29081  1.0000
  H   H158      1.0  0.44320  0.57212  0.26830  1.0000
  H   H159      1.0  0.42223  0.79705  0.13292  1.0000
  S   S42       1.0  0.45010  0.91598  0.16378  1.0000
  C   C133      1.0  0.16370  0.97247  0.10866  1.0000
  S   S43       1.0  0.46210  0.95066  0.03676  1.0000
  S   S44       1.0  0.44679  0.89734  0.29046  1.0000
  C   C134      1.0  0.98564  0.93427  0.22186  1.0000
  C   C135      1.0  0.04796  0.97238  0.17551  1.0000
  C   C136      1.0  0.43978  0.72911  0.17465  1.0000
  C   C137      1.0  0.44863  0.90169  0.25516  1.0000
  H   H160      1.0  0.40201  0.79487  0.16536  1.0000
  C   C138      1.0  0.00736  0.91977  0.16835  1.0000
  C   C139      1.0  0.44816  0.91047  0.19896  1.0000
  H   H161      1.0  0.42325  0.83710  0.15448  1.0000
  H   H162      1.0  0.09459  0.92213  0.19587  1.0000
  C   C140      1.0  0.30855  0.53333  0.28521  1.0000
  H   H163      1.0  0.99145  0.50131  0.02728  1.0000
  C   C141      1.0  0.46646  0.75277  0.16213  1.0000
  C   C142      1.0  0.97986  0.98449  0.98654  1.0000
  H   H164      1.0  0.44322  0.87494  0.02580  1.0000
  C   C143      1.0  0.45358  0.55354  0.25306  1.0000
  H   H165      1.0  0.01841  0.91508  0.14796  1.0000
  C   C144      1.0  0.35999  0.50453  0.24311  1.0000
  C   C145      1.0  0.19099  0.95860  0.12649  1.0000
  N   N9        1.0  0.03659  0.93569  0.18634  1.0000
  H   H166      1.0  0.39096  0.81156  0.02487  1.0000
  C   C146      1.0  0.21010  0.96624  0.07327  1.0000
  C   C147      1.0  0.22751  0.94864  0.11783  1.0000
  H   H167      1.0  0.21738  0.96955  0.05258  1.0000
  H   H168      1.0  0.07895  0.90501  0.16474  1.0000
  H   H169      1.0  0.41004  0.75276  0.01669  1.0000
  C   C148      1.0  0.47440  0.54366  0.20707  1.0000
  C   C149      1.0  0.46124  0.78519  0.00797  1.0000
  H   H170      1.0  0.40938  0.93330  0.99296  1.0000
  N   N10       1.0  0.46310  0.79387  0.16440  1.0000
  H   H171      1.0  0.24808  0.93833  0.13188  1.0000
  C   C150      1.0  0.45950  0.51587  0.25896  1.0000
  C   C151      1.0  0.06958  0.91033  0.18552  1.0000
  H   H172      1.0  0.37740  0.52119  0.25625  1.0000
  H   H173      1.0  0.44142  0.69348  0.02228  1.0000
  H   H174      1.0  0.37005  0.49419  0.29692  1.0000
  C   C152      1.0  0.00009  0.95139  0.26731  1.0000
  H   H175      1.0  0.39789  0.51377  0.21046  1.0000
  C   C153      1.0  0.44013  0.75241  0.01372  1.0000
  C   C154      1.0  0.02357  0.94058  0.21402  1.0000
  H   H176      1.0  0.06283  0.88296  0.19476  1.0000
  H   H177      1.0  0.33503  0.54958  0.28304  1.0000
  C   C155      1.0  0.47311  0.49230  0.23873  1.0000
  H   H178      1.0  0.37682  0.94461  0.30491  1.0000
  N   N11       1.0  0.44366  0.82240  0.00495  1.0000
  C   C156      1.0  0.37212  0.50031  0.21693  1.0000
  H   H179      1.0  0.05781  0.96987  0.15469  1.0000
  C   C157      1.0  0.04897  0.95315  0.23401  1.0000
  H   H180      1.0  0.05693  0.96861  0.27510  1.0000
  H   H181      1.0  0.44830  0.83446  0.04648  1.0000
  H   H182      1.0  0.47360  0.64360  0.15742  1.0000
  C   C158      1.0  0.46244  0.95965  0.00187  1.0000
  H   H183      1.0  0.44238  0.79399  0.20479  1.0000
  C   C159      1.0  0.46769  0.76371  0.08094  1.0000
  H   H184      1.0  0.98293  0.93900  0.16603  1.0000
  C   C160      1.0  0.46603  0.80500  0.19272  1.0000
  S   S45       1.0  0.11856  0.98606  0.12127  1.0000
  H   H185      1.0  0.46545  0.83587  0.19511  1.0000
  S   S46       1.0  0.47399  0.56976  0.09715  1.0000
  H   H186      1.0  0.47431  0.79306  0.07966  1.0000
  N   N12       1.0  0.31397  0.49293  0.27999  1.0000
  H   H187      1.0  0.36123  0.98811  0.31822  1.0000
  Fe  Fe21      1.0  0.42649  0.52150  0.32970  1.0000
  S   S47       1.0  0.37913  0.56275  0.33230  1.0000
  C   C161      1.0  0.99403  0.58150  0.48171  1.0000
  S   S48       1.0  0.38310  0.55417  0.39691  1.0000
  C   C162      1.0  0.37459  0.95917  0.39693  1.0000
  C   C163      1.0  0.21310  0.49798  0.36268  1.0000
  Fe  Fe22      1.0  0.41221  0.58904  0.36576  1.0000
  S   S49       1.0  0.41320  0.65272  0.37049  1.0000
  H   H188      1.0  0.05473  0.53346  0.52204  1.0000
  H   H189      1.0  0.98564  0.56840  0.44023  1.0000
  C   C164      1.0  0.02747  0.53324  0.45789  1.0000
  Fe  Fe23      1.0  0.01881  0.90069  0.63688  1.0000
  S   S50       1.0  0.06492  0.85970  0.62764  1.0000
  Fe  Fe24      1.0  0.00719  0.91659  0.57667  1.0000
  S   S51       1.0  0.05340  0.87697  0.56498  1.0000
  H   H190      1.0  0.98637  0.87192  0.53150  1.0000
  Fe  Fe25      1.0  0.02728  0.83811  0.59507  1.0000
  S   S52       1.0  0.02484  0.77520  0.58649  1.0000
  Fe  Fe26      1.0  0.08729  0.90207  0.59872  1.0000
  S   S53       1.0  0.15215  0.90851  0.59664  1.0000
  S   S54       1.0  0.04251  0.94421  0.60881  1.0000
  H   H191      1.0  0.35035  0.89570  0.35133  1.0000
  H   H192      1.0  0.39800  0.63495  0.42615  1.0000
  H   H193      1.0  0.01993  0.59719  0.57197  1.0000
  H   H194      1.0  0.45349  0.56924  0.43209  1.0000
  H   H195      1.0  0.01929  0.92634  0.50410  1.0000
  C   C165      1.0  0.01301  0.57264  0.50576  1.0000
  C   C166      1.0  0.99554  0.95032  0.46828  1.0000
  S   S55       1.0  0.46118  0.54995  0.36151  1.0000
  S   S56       1.0  0.45162  0.97784  0.53612  1.0000
  H   H196      1.0  0.98096  0.64537  0.59393  1.0000
  H   H197      1.0  0.39475  0.64406  0.46117  1.0000
  H   H198      1.0  0.02924  0.69568  0.59181  1.0000
  C   C167      1.0  0.22696  0.93009  0.59367  1.0000
  C   C168      1.0  0.18978  0.94198  0.59860  1.0000
  C   C169      1.0  0.04680  0.52399  0.48104  1.0000
  C   C170      1.0  0.03969  0.54312  0.50472  1.0000
  H   H199      1.0  0.43012  0.56113  0.47513  1.0000
  H   H200      1.0  0.39360  0.89357  0.33295  1.0000
  H   H201      1.0  0.45216  0.67086  0.42068  1.0000
  H   H202      1.0  0.06647  0.50090  0.48080  1.0000
  S   S57       1.0  0.28839  0.51846  0.36081  1.0000
  H   H203      1.0  0.41240  0.49325  0.46579  1.0000
  H   H204      1.0  0.45723  0.60583  0.40822  1.0000
  C   C171      1.0  0.44930  0.68727  0.36803  1.0000
  C   C172      1.0  0.43886  0.72512  0.36758  1.0000
  H   H205      1.0  0.33194  0.94661  0.32060  1.0000
  H   H206      1.0  0.40930  0.73238  0.36729  1.0000
  H   H207      1.0  0.99730  0.82865  0.51544  1.0000
  Fe  Fe27      1.0  0.43055  0.51330  0.39106  1.0000
  H   H208      1.0  0.44674  0.54331  0.52046  1.0000
  H   H209      1.0  0.28625  0.94485  0.59269  1.0000
  C   C173      1.0  0.44776  0.57993  0.48653  1.0000
  H   H210      1.0  0.45232  0.68468  0.45454  1.0000
  H   H211      1.0  0.38409  0.92726  0.64069  1.0000
  C   C174      1.0  0.99683  0.94310  0.49587  1.0000
  C   C175      1.0  0.97869  0.84181  0.53040  1.0000
  C   C176      1.0  0.01303  0.63377  0.52649  1.0000
  C   C177      1.0  0.41858  0.96213  0.34678  1.0000
  S   S58       1.0  0.47396  0.87198  0.36170  1.0000
  C   C178      1.0  0.45666  0.97333  0.50097  1.0000
  S   S59       1.0  0.40030  0.98852  0.60265  1.0000
  H   H212      1.0  0.05756  0.58409  0.55055  1.0000
  C   C179      1.0  0.45730  0.56933  0.51239  1.0000
  H   H213      1.0  0.98621  0.82872  0.54976  1.0000
  C   C180      1.0  0.98910  0.74063  0.59051  1.0000
  C   C181      1.0  0.02676  0.58086  0.55379  1.0000
  C   C182      1.0  0.25799  0.95475  0.59631  1.0000
  H   H214      1.0  0.43328  0.95305  0.32842  1.0000
  Fe  Fe28      1.0  0.35341  0.52452  0.36296  1.0000
  H   H215      1.0  0.20788  0.52770  0.36291  1.0000
  H   H216      1.0  0.43581  0.95159  0.36354  1.0000
  C   C183      1.0  0.35747  0.97481  0.41924  1.0000
  H   H217      1.0  0.39497  0.59709  0.44861  1.0000
  C   C184      1.0  0.99965  0.70282  0.59163  1.0000
  H   H218      1.0  0.23182  0.90143  0.58788  1.0000
  C   C185      1.0  0.46620  0.75377  0.36761  1.0000
  C   C186      1.0  0.18414  0.97928  0.60589  1.0000
  H   H219      1.0  0.00840  0.65023  0.54497  1.0000
  H   H220      1.0  0.34731  0.98394  0.64873  1.0000
  C   C187      1.0  0.40754  0.62525  0.44611  1.0000
  H   H221      1.0  0.04287  0.63796  0.52045  1.0000
  N   N13       1.0  0.44927  0.62509  0.44838  1.0000
  H   H222      1.0  0.36960  0.97037  0.43880  1.0000
  H   H223      1.0  0.99479  0.64659  0.51107  1.0000
  N   N14       1.0  0.37919  0.94832  0.34772  1.0000
  H   H224      1.0  0.45753  0.78266  0.36728  1.0000
  C   C188      1.0  0.35993  0.96477  0.37097  1.0000
  H   H225      1.0  0.02058  0.55113  0.55862  1.0000
  H   H226      1.0  0.01710  0.93880  0.45559  1.0000
  S   S60       1.0  0.97961  0.87653  0.60568  1.0000
  C   C189      1.0  0.47425  0.94120  0.49071  1.0000
  H   H227      1.0  0.39969  0.94277  0.40019  1.0000
  N   N15       1.0  0.00461  0.59360  0.53042  1.0000
  C   C190      1.0  0.37947  0.90708  0.35019  1.0000
  H   H228      1.0  0.39484  0.89756  0.36817  1.0000
  H   H229      1.0  0.11501  0.95794  0.64035  1.0000
  C   C191      1.0  0.46070  0.61406  0.47556  1.0000
  C   C192      1.0  0.46459  0.59795  0.42899  1.0000
  C   C193      1.0  0.46831  0.96415  0.44539  1.0000
  S   S61       1.0  0.47733  0.96142  0.41057  1.0000
  C   C194      1.0  0.36126  0.95750  0.32184  1.0000
  H   H230      1.0  0.03207  0.51730  0.43984  1.0000
  C   C195      1.0  0.00113  0.56192  0.45822  1.0000
  C   C196      1.0  0.46271  0.66283  0.44068  1.0000
  C   C197      1.0  0.32673  0.98670  0.36878  1.0000
  C   C198      1.0  0.11300  0.94996  0.70751  1.0000
  S   S62       1.0  0.05378  0.55340  0.84529  1.0000
  H   H231      1.0  0.18325  0.53169  0.93515  1.0000
  C   C199      1.0  0.35304  0.51706  0.95071  1.0000
  S   S63       1.0  0.04448  0.54807  0.91044  1.0000
  Fe  Fe29      1.0  0.02201  0.58454  0.87726  1.0000
  S   S64       1.0  0.02566  0.64823  0.87430  1.0000
  Fe  Fe30      1.0  0.07187  0.51396  0.87790  1.0000
  H   H232      1.0  0.02275  0.92306  0.73820  1.0000
  H   H233      1.0  0.13147  0.89584  0.65398  1.0000
  H   H234      1.0  0.44850  0.82101  0.96239  1.0000
  H   H235      1.0  0.00595  0.63297  0.80510  1.0000
  Fe  Fe31      1.0  0.00090  0.51893  0.84188  1.0000
  C   C200      1.0  0.98846  0.68139  0.87486  1.0000
  H   H236      1.0  0.04312  0.80178  0.93026  1.0000
  H   H237      1.0  0.08445  0.93728  0.70979  1.0000
  C   C201      1.0  0.27067  0.51671  0.90995  1.0000
  C   C202      1.0  0.45522  0.83966  0.97947  1.0000
  C   C203      1.0  0.19703  0.93556  0.66701  1.0000
  H   H238      1.0  0.07230  0.74052  0.92524  1.0000
  C   C204      1.0  0.02199  0.71002  0.93426  1.0000
  H   H239      1.0  0.28352  0.51746  0.89056  1.0000
  H   H240      1.0  0.16995  0.50535  0.83885  1.0000
  C   C205      1.0  0.99588  0.71837  0.86706  1.0000
  H   H241      1.0  0.02379  0.72578  0.86030  1.0000
  H   H242      1.0  0.44079  0.86682  0.97604  1.0000
  C   C206      1.0  0.38580  0.95308  0.70679  1.0000
  C   C207      1.0  0.41382  0.96157  0.75936  1.0000
  C   C208      1.0  0.12457  0.90267  0.67500  1.0000
  H   H243      1.0  0.32462  0.91987  0.65984  1.0000
  H   H244      1.0  0.03500  0.68297  0.93130  1.0000
  H   H245      1.0  0.41175  0.94794  0.94471  1.0000
  H   H246      1.0  0.34721  0.52373  0.89794  1.0000
  H   H247      1.0  0.13154  0.93774  0.72306  1.0000
  S   S65       1.0  0.01441  0.91429  0.68168  1.0000
  C   C209      1.0  0.39689  0.93107  0.66074  1.0000
  C   C210      1.0  0.29035  0.50490  0.93312  1.0000
  H   H248      1.0  0.99516  0.51405  0.97882  1.0000
  H   H249      1.0  0.01915  0.84627  0.95752  1.0000
  C   C211      1.0  0.23320  0.95031  0.66386  1.0000
  H   H250      1.0  0.00199  0.84278  0.91035  1.0000
  C   C212      1.0  0.37691  0.97157  0.75338  1.0000
  C   C213      1.0  0.99418  0.91380  0.73465  1.0000
  H   H251      1.0  0.10903  0.98003  0.71193  1.0000
  H   H252      1.0  0.21802  0.53506  0.89302  1.0000
  H   H253      1.0  0.02182  0.54118  0.76929  1.0000
  H   H254      1.0  0.19229  0.90802  0.65889  1.0000
  H   H255      1.0  0.99127  0.66560  0.76751  1.0000
  H   H256      1.0  0.99192  0.58477  0.80334  1.0000
  H   H257      1.0  0.21603  0.51246  0.97635  1.0000
  C   C214      1.0  0.42357  0.94374  0.71351  1.0000
  Fe  Fe32      1.0  0.99258  0.51280  0.90361  1.0000
  N   N16       1.0  0.33028  0.49300  0.93274  1.0000
  C   C215      1.0  0.02582  0.77742  0.93355  1.0000
  H   H258      1.0  0.38351  0.50949  0.95016  1.0000
  H   H259      1.0  0.01988  0.55360  0.72076  1.0000
  C   C216      1.0  0.26966  0.50422  0.95718  1.0000
  C   C217      1.0  0.43462  0.95672  0.95755  1.0000
  N   N17       1.0  0.12848  0.94323  0.68056  1.0000
  H   H260      1.0  0.98335  0.61210  0.83263  1.0000
  H   H261      1.0  0.09506  0.89282  0.67789  1.0000
  H   H262      1.0  0.42491  0.96588  0.77925  1.0000
  C   C218      1.0  0.99762  0.53743  0.72981  1.0000
  H   H263      1.0  0.25434  0.93421  0.65351  1.0000
  C   C219      1.0  0.98702  0.78078  0.93989  1.0000
  H   H264      1.0  0.34439  0.51451  0.97180  1.0000
  N   N18       1.0  0.37025  0.94881  0.67960  1.0000
  H   H265      1.0  0.34170  0.89781  0.68960  1.0000
  H   H266      1.0  0.31252  0.93860  0.69138  1.0000
  H   H267      1.0  0.07513  0.95500  0.66203  1.0000
  C   C220      1.0  0.99867  0.53063  0.75744  1.0000
  H   H268      1.0  0.44368  0.93427  0.69898  1.0000
  H   H269      1.0  0.28270  0.49558  0.97557  1.0000
  C   C221      1.0  0.10519  0.96355  0.66095  1.0000
  C   C222      1.0  0.43707  0.94774  0.73948  1.0000
  C   C223      1.0  0.98395  0.71227  0.94061  1.0000
  C   C224      1.0  0.21305  0.52502  0.93479  1.0000
  H   H270      1.0  0.46622  0.94141  0.74409  1.0000
  H   H271      1.0  0.42251  0.94859  0.65776  1.0000
  C   C225      1.0  0.34754  0.49486  0.90597  1.0000
  H   H272      1.0  0.35058  0.54695  0.94504  1.0000
  C   C226      1.0  0.04288  0.74252  0.93071  1.0000
  H   H273      1.0  0.97936  0.91522  0.77639  1.0000
  H   H274      1.0  0.99400  0.66570  0.71903  1.0000
  H   H275      1.0  0.40577  0.90298  0.66768  1.0000
  H   H276      1.0  0.23473  0.49001  0.82376  1.0000
  C   C227      1.0  0.33580  0.92529  0.68021  1.0000
  H   H277      1.0  0.33435  0.97615  0.72384  1.0000
  H   H278      1.0  0.09418  0.49075  0.79441  1.0000
  C   C228      1.0  0.16775  0.95692  0.67872  1.0000
  C   C229      1.0  0.23272  0.52687  0.91100  1.0000
  H   H279      1.0  0.14279  0.88580  0.68834  1.0000
  C   C230      1.0  0.36298  0.96743  0.72753  1.0000
  C   C231      1.0  0.98343  0.61289  0.81056  1.0000
  C   C232      1.0  0.98933  0.84054  0.96274  1.0000
  C   C233      1.0  0.46506  0.97677  0.94664  1.0000
  C   C234      1.0  0.98215  0.90657  0.70841  1.0000
  H   H280      1.0  0.98913  0.82601  0.98225  1.0000
  C   C235      1.0  0.23153  0.51393  0.95788  1.0000
  S   S66       1.0  0.46464  0.98711  0.91192  1.0000
  C   C236      1.0  0.36030  0.98600  0.66887  1.0000
  C   C237      1.0  0.24127  0.98665  0.67192  1.0000
  H   H281      1.0  0.35938  0.98333  0.76884  1.0000
  C   C238      1.0  0.47731  0.49291  0.96624  1.0000
  C   C239      1.0  0.43324  0.94822  0.98493  1.0000
  Fe  Fe33      1.0  0.83750  0.39185  0.10635  1.0000
  S   S67       1.0  0.88492  0.42855  0.12134  1.0000
  S   S68       1.0  0.77364  0.40360  0.10155  1.0000
  Fe  Fe34      1.0  0.89341  0.32639  0.09459  1.0000
  S   S69       1.0  0.94352  0.36014  0.10744  1.0000
  S   S70       1.0  0.89318  0.26419  0.08378  1.0000
  Fe  Fe35      1.0  0.90821  0.37753  0.14259  1.0000
  C   C240      1.0  0.91464  0.13162  0.17768  1.0000
  Fe  Fe36      1.0  0.91627  0.40772  0.08491  1.0000
  S   S71       1.0  0.94826  0.44987  0.05882  1.0000
  S   S72       1.0  0.85843  0.34251  0.12985  1.0000
  S   S73       1.0  0.86840  0.37252  0.06970  1.0000
  H   H282      1.0  0.89838  0.10905  0.18630  1.0000
  C   C241      1.0  0.68905  0.46073  0.18307  1.0000
  S   S74       1.0  0.95127  0.03358  0.29380  1.0000
  C   C242      1.0  0.94677  0.02026  0.20222  1.0000
  C   C243      1.0  0.94784  0.02919  0.25850  1.0000
  H   H283      1.0  0.95984  0.32403  0.23063  1.0000
  C   C244      1.0  0.94822  0.12350  0.16477  1.0000
  H   H284      1.0  0.89878  0.10678  0.28496  1.0000
  S   S75       1.0  0.94506  0.01171  0.16724  1.0000
  C   C245      1.0  0.91574  0.01519  0.24569  1.0000
  C   C246      1.0  0.91537  0.01056  0.21780  1.0000
  H   H285      1.0  0.88689  0.27852  0.19417  1.0000
  C   C247      1.0  0.93056  0.23102  0.08432  1.0000
  H   H286      1.0  0.80404  0.42077  0.04553  1.0000
  C   C248      1.0  0.92165  0.19274  0.08411  1.0000
  H   H287      1.0  0.94267  0.13613  0.08515  1.0000
  H   H288      1.0  0.89246  0.18413  0.08309  1.0000
  N   N19       1.0  0.90565  0.23635  0.16658  1.0000
  N   N20       1.0  0.92560  0.15815  0.29819  1.0000
  H   H289      1.0  0.95781  0.09485  0.16331  1.0000
  C   C249      1.0  0.94495  0.41640  0.22062  1.0000
  H   H290      1.0  0.49057  0.48739  0.19766  1.0000
  H   H291      1.0  0.93484  0.43569  0.20576  1.0000
  C   C250      1.0  0.95107  0.45656  0.02362  1.0000
  C   C251      1.0  0.97470  0.48484  0.01360  1.0000
  H   H292      1.0  0.91188  0.41328  0.01271  1.0000
  C   C252      1.0  0.73798  0.43889  0.10402  1.0000
  C   C253      1.0  0.70048  0.42968  0.09729  1.0000
  C   C254      1.0  0.67128  0.45649  0.09847  1.0000
  C   C255      1.0  0.94570  0.37817  0.21497  1.0000
  S   S76       1.0  0.96037  0.04925  0.09412  1.0000
  H   H293      1.0  0.69394  0.40153  0.09097  1.0000
  H   H294      1.0  0.64280  0.44876  0.09305  1.0000
  C   C256      1.0  0.91299  0.19135  0.31348  1.0000
  H   H295      1.0  0.84801  0.21847  0.15998  1.0000
  C   C257      1.0  0.95575  0.13922  0.25517  1.0000
  C   C258      1.0  0.95613  0.18895  0.15418  1.0000
  C   C259      1.0  0.95089  0.13614  0.31553  1.0000
  C   C260      1.0  0.89708  0.24905  0.19395  1.0000
  C   C261      1.0  0.64066  0.47989  0.22454  1.0000
  H   H296      1.0  0.89149  0.00711  0.25728  1.0000
  H   H297      1.0  0.48962  0.11231  0.98944  1.0000
  H   H298      1.0  0.74793  0.44718  0.03536  1.0000
  H   H299      1.0  0.95823  0.26696  0.16579  1.0000
  H   H300      1.0  0.87383  0.14897  0.27667  1.0000
  C   C262      1.0  0.87030  0.23589  0.15080  1.0000
  H   H301      1.0  0.87464  0.17307  0.18822  1.0000
  H   H302      1.0  0.68841  0.47886  0.04090  1.0000
  H   H303      1.0  0.87529  0.22451  0.13053  1.0000
  C   C263      1.0  0.90146  0.16837  0.17878  1.0000
  H   H304      1.0  0.95664  0.45940  0.24969  1.0000
  C   C264      1.0  0.81861  0.43904  0.03088  1.0000
  C   C265      1.0  0.94582  0.16768  0.27346  1.0000
  C   C266      1.0  0.95732  0.42976  0.24563  1.0000
  H   H305      1.0  0.56665  0.47480  0.17983  1.0000
  H   H306      1.0  0.84709  0.42678  0.02796  1.0000
  H   H307      1.0  0.85842  0.26436  0.14827  1.0000
  C   C267      1.0  0.84057  0.47803  0.06640  1.0000
  C   C268      1.0  0.92169  0.19821  0.16691  1.0000
  H   H308      1.0  0.94905  0.11032  0.25904  1.0000
  S   S77       1.0  0.93078  0.35923  0.18376  1.0000
  H   H309      1.0  0.87201  0.48556  0.01779  1.0000
  H   H310      1.0  0.67596  0.44451  0.24866  1.0000
  C   C269      1.0  0.92973  0.43551  0.00554  1.0000
  C   C270      1.0  0.89164  0.13534  0.29204  1.0000
  H   H311      1.0  0.87474  0.23214  0.20349  1.0000
  H   H312      1.0  0.89484  0.20986  0.30125  1.0000
  C   C271      1.0  0.96904  0.15212  0.15325  1.0000
  H   H313      1.0  0.71871  0.42770  0.21185  1.0000
  C   C272      1.0  0.95013  0.16540  0.08529  1.0000
  H   H314      1.0  0.87385  0.13101  0.30994  1.0000
  H   H315      1.0  0.91829  0.29297  0.15485  1.0000
  H   H316      1.0  0.92267  0.24806  0.20671  1.0000
  C   C273      1.0  0.93112  0.26470  0.15478  1.0000
  C   C274      1.0  0.69523  0.44637  0.20835  1.0000
  C   C275      1.0  0.74572  0.47549  0.11225  1.0000
  H   H317      1.0  0.97305  0.20940  0.14395  1.0000
  C   C276      1.0  0.97143  0.36700  0.25971  1.0000
  C   C277      1.0  0.67111  0.45592  0.22903  1.0000
  H   H318      1.0  0.93692  0.25880  0.13363  1.0000
  H   H319      1.0  0.82361  0.46301  0.08157  1.0000
  C   C278      1.0  0.74909  0.47662  0.03984  1.0000
  H   H320      1.0  0.86844  0.46395  0.06511  1.0000
  C   C279      1.0  0.95905  0.35363  0.23471  1.0000
  H   H321      1.0  0.95219  0.22802  0.28028  1.0000
  H   H322      1.0  0.77419  0.48323  0.11762  1.0000
  H   H323      1.0  0.80379  0.43705  0.01143  1.0000
  C   C280      1.0  0.95739  0.20467  0.26721  1.0000
  H   H324      1.0  0.89062  0.99897  0.20823  1.0000
  H   H325      1.0  0.48063  0.08070  0.03186  1.0000
  H   H326      1.0  0.96077  0.11015  0.30574  1.0000
  N   N21       1.0  0.82092  0.47824  0.04039  1.0000
  H   H327      1.0  0.62295  0.48587  0.24137  1.0000
  C   C281      1.0  0.97059  0.40524  0.26539  1.0000
  H   H328      1.0  0.70764  0.45313  0.16685  1.0000
  C   C282      1.0  0.96851  0.24163  0.08564  1.0000
  C   C283      1.0  0.65883  0.48474  0.17843  1.0000
  H   H329      1.0  0.97587  0.27094  0.08570  1.0000
  C   C284      1.0  0.97680  0.21246  0.24374  1.0000
  C   C285      1.0  0.97515  0.14730  0.23180  1.0000
  H   H330      1.0  0.49237  0.15183  0.58353  1.0000
  H   H331      1.0  0.92851  0.41262  0.50643  1.0000
  C   C286      1.0  0.50108  0.44454  0.49514  1.0000
  Fe  Fe37      1.0  0.50562  0.39761  0.63988  1.0000
  S   S78       1.0  0.56096  0.36723  0.63872  1.0000
  Fe  Fe38      1.0  0.50870  0.41557  0.57894  1.0000
  S   S79       1.0  0.56423  0.38615  0.57424  1.0000
  H   H332      1.0  0.61793  0.45693  0.56637  1.0000
  Fe  Fe39      1.0  0.53871  0.34160  0.60068  1.0000
  S   S80       1.0  0.54346  0.27936  0.59104  1.0000
  Fe  Fe40      1.0  0.58182  0.41439  0.61261  1.0000
  S   S81       1.0  0.63326  0.45230  0.62125  1.0000
  S   S82       1.0  0.52698  0.44619  0.61595  1.0000
  Fe  Fe41      1.0  0.89456  0.08446  0.37496  1.0000
  S   S83       1.0  0.94806  0.05449  0.36607  1.0000
  S   S84       1.0  0.89307  0.14679  0.38475  1.0000
  Fe  Fe42      1.0  0.84673  0.01253  0.36767  1.0000
  H   H333      1.0  0.75520  0.41769  0.57991  1.0000
  C   C287      1.0  0.96514  0.16721  0.45133  1.0000
  Fe  Fe43      1.0  0.91595  0.02818  0.33202  1.0000
  S   S85       1.0  0.87412  0.04028  0.40329  1.0000
  S   S86       1.0  0.86245  0.06016  0.34019  1.0000
  H   H334      1.0  0.82233  0.32916  0.48279  1.0000
  C   C288      1.0  0.96736  0.16961  0.37700  1.0000
  H   H335      1.0  0.87111  0.34490  0.44965  1.0000
  C   C289      1.0  0.64056  0.02068  0.42208  1.0000
  C   C290      1.0  0.50638  0.24589  0.59225  1.0000
  C   C291      1.0  0.63869  0.02452  0.37411  1.0000
  C   C292      1.0  0.51455  0.20797  0.58774  1.0000
  C   C293      1.0  0.54839  0.02126  0.45040  1.0000
  H   H336      1.0  0.54337  0.19965  0.58420  1.0000
  H   H337      1.0  0.68738  0.03780  0.39763  1.0000
  C   C294      1.0  0.74072  0.43721  0.59263  1.0000
  C   C295      1.0  0.70188  0.43194  0.59774  1.0000
  C   C296      1.0  0.68260  0.45665  0.61438  1.0000
  C   C297      1.0  0.94989  0.24583  0.38077  1.0000
  H   H338      1.0  0.48441  0.19390  0.64226  1.0000
  H   H339      1.0  0.68698  0.40859  0.58897  1.0000
  H   H340      1.0  0.89613  0.18327  0.33118  1.0000
  H   H341      1.0  0.97459  0.14040  0.37577  1.0000
  C   C298      1.0  0.48754  0.33637  0.53396  1.0000
  H   H342      1.0  0.52592  0.43113  0.50309  1.0000
  C   C299      1.0  0.93009  0.18015  0.38177  1.0000
  C   C300      1.0  0.92160  0.21840  0.38372  1.0000
  C   C301      1.0  0.49943  0.45432  0.46797  1.0000
  H   H343      1.0  0.89289  0.22692  0.38747  1.0000
  H   H344      1.0  0.94297  0.27512  0.38249  1.0000
  C   C302      1.0  0.60617  0.00530  0.47211  1.0000
  C   C303      1.0  0.97503  0.09288  0.47961  1.0000
  H   H345      1.0  0.65749  0.02440  0.43972  1.0000
  C   C304      1.0  0.48569  0.18077  0.58738  1.0000
  H   H346      1.0  0.82526  0.35455  0.52746  1.0000
  H   H347      1.0  0.91637  0.00316  0.46548  1.0000
  H   H348      1.0  0.59027  0.99852  0.49053  1.0000
  C   C305      1.0  0.90265  0.37964  0.47653  1.0000
  H   H349      1.0  0.85501  0.40271  0.58743  1.0000
  H   H350      1.0  0.93696  0.16021  0.45763  1.0000
  H   H351      1.0  0.50680  0.32626  0.51816  1.0000
  C   C306      1.0  0.60731  0.47225  0.54867  1.0000
  H   H352      1.0  0.85273  0.35908  0.57011  1.0000
  H   H353      1.0  0.94158  0.40791  0.54945  1.0000
  H   H354      1.0  0.82260  0.39794  0.56086  1.0000
  C   C307      1.0  0.84553  0.34732  0.48834  1.0000
  H   H355      1.0  0.75465  0.99604  0.32610  1.0000
  H   H356      1.0  0.87773  0.45794  0.56587  1.0000
  H   H357      1.0  0.92317  0.36441  0.56140  1.0000
  H   H358      1.0  0.49744  0.26635  0.53190  1.0000
  H   H359      1.0  0.52814  0.01617  0.43392  1.0000
  C   C308      1.0  0.95163  0.47868  0.47246  1.0000
  C   C309      1.0  0.76099  0.46725  0.60394  1.0000
  C   C310      1.0  0.60171  0.01158  0.37416  1.0000
  H   H360      1.0  0.55521  0.99296  0.39700  1.0000
  S   S87       1.0  0.91534  0.48049  0.61558  1.0000
  H   H361      1.0  0.61464  0.03515  0.47377  1.0000
  H   H362      1.0  0.49244  0.36698  0.53570  1.0000
  H   H363      1.0  0.92382  0.38689  0.46185  1.0000
  H   H364      1.0  0.84886  0.45161  0.53702  1.0000
  H   H365      1.0  0.92294  0.10296  0.44282  1.0000
  C   C311      1.0  0.90512  0.39432  0.50219  1.0000
  C   C312      1.0  0.60262  0.00782  0.42286  1.0000
  Fe  Fe44      1.0  0.92614  0.00860  0.39239  1.0000
  H   H366      1.0  0.55507  0.05160  0.45035  1.0000
  N   N22       1.0  0.88061  0.40314  0.54855  1.0000
  C   C313      1.0  0.91796  0.39497  0.56056  1.0000
  C   C314      1.0  0.87642  0.44409  0.54615  1.0000
  C   C315      1.0  0.85144  0.38982  0.56738  1.0000
  C   C316      1.0  0.87778  0.38606  0.52180  1.0000
  C   C317      1.0  0.84765  0.36210  0.51407  1.0000
  H   H367      1.0  0.92039  0.40636  0.58109  1.0000
  H   H368      1.0  0.58071  0.45817  0.54253  1.0000
  H   H369      1.0  0.52317  0.44824  0.45529  1.0000
  C   C318      1.0  0.94892  0.08933  0.43541  1.0000
  C   C319      1.0  0.87294  0.35611  0.46962  1.0000
  H   H370      1.0  0.89901  0.45681  0.53402  1.0000
  C   C320      1.0  0.65816  0.02881  0.39797  1.0000
  H   H371      1.0  0.94322  0.05875  0.43576  1.0000
  H   H372      1.0  0.65266  0.03017  0.35544  1.0000
  S   S88       1.0  0.81020  0.47205  0.59671  1.0000
  N   N23       1.0  0.58306  0.99849  0.44791  1.0000
  H   H373      1.0  0.95152  0.22580  0.44968  1.0000
  H   H374      1.0  0.96830  0.06301  0.48363  1.0000
  H   H375      1.0  0.93637  0.12745  0.33405  1.0000
  C   C321      1.0  0.97324  0.20492  0.44708  1.0000
  H   H376      1.0  0.62817  0.46816  0.53250  1.0000
  S   S89       1.0  0.48263  0.36950  0.60313  1.0000
  H   H377      1.0  0.53277  0.01484  0.46901  1.0000
  C   C322      1.0  0.58383  0.00331  0.39810  1.0000
  H   H378      1.0  0.95218  0.09789  0.41436  1.0000
  H   H379      1.0  0.58716  0.00716  0.35542  1.0000
  S   S90       1.0  0.97668  0.44382  0.42696  1.0000
  H   H380      1.0  0.48135  0.20088  0.53057  1.0000
  S   S91       1.0  0.97691  0.37232  0.36787  1.0000
  H   H381      1.0  0.95063  0.10949  0.48666  1.0000
  H   H382      1.0  0.49635  0.32380  0.55321  1.0000
  C   C323      1.0  0.95167  0.48784  0.49976  1.0000
  H   H383      1.0  0.93724  0.20778  0.32147  1.0000
  H   H384      1.0  0.97642  0.15245  0.32119  1.0000
  C   C324      1.0  0.70278  0.48686  0.62549  1.0000
  H   H385      1.0  0.91870  0.99085  0.51407  1.0000
  H   H386      1.0  0.47873  0.46278  0.83810  1.0000
  Fe  Fe45      1.0  0.49933  0.04211  0.82292  1.0000
  S   S92       1.0  0.55033  0.07879  0.82748  1.0000
  H   H387      1.0  0.50507  0.32737  0.80479  1.0000
  Fe  Fe46      1.0  0.50248  0.01907  0.88254  1.0000
  S   S93       1.0  0.55385  0.05479  0.89040  1.0000
  Fe  Fe47      1.0  0.52435  0.09853  0.86556  1.0000
  S   S94       1.0  0.52393  0.16047  0.87679  1.0000
  Fe  Fe48      1.0  0.57598  0.03180  0.85166  1.0000
  H   H388      1.0  0.49451  0.10524  0.91359  1.0000
  C   C325      1.0  0.83434  0.99887  0.95932  1.0000
  H   H389      1.0  0.51804  0.00324  0.95564  1.0000
  C   C326      1.0  0.52942  0.43034  0.86834  1.0000
  C   C327      1.0  0.49596  0.02354  0.74128  1.0000
  H   H390      1.0  0.52150  0.17492  0.66182  1.0000
  H   H391      1.0  0.70199  0.99539  0.92273  1.0000
  H   H392      1.0  0.50466  0.29834  0.69065  1.0000
  H   H393      1.0  0.51825  0.41082  0.85293  1.0000
  C   C328      1.0  0.79427  0.04736  0.90463  1.0000
  C   C329      1.0  0.49756  0.01716  0.71365  1.0000
  H   H394      1.0  0.52158  0.23980  0.88388  1.0000
  C   C330      1.0  0.59663  0.46062  0.83702  1.0000
  C   C331      1.0  0.50179  0.39963  0.72276  1.0000
  C   C332      1.0  0.50304  0.39953  0.75080  1.0000
  H   H395      1.0  0.52754  0.39792  0.71144  1.0000
  H   H396      1.0  0.52997  0.39782  0.76082  1.0000
  C   C333      1.0  0.48599  0.19268  0.87469  1.0000
  C   C334      1.0  0.50090  0.29755  0.81033  1.0000
  H   H397      1.0  0.69936  0.05181  0.89484  1.0000
  H   H398      1.0  0.83036  0.02747  0.96752  1.0000
  C   C335      1.0  0.79683  0.01475  0.92060  1.0000
  C   C336      1.0  0.51116  0.12958  0.70584  1.0000
  C   C337      1.0  0.52107  0.27396  0.72803  1.0000
  H   H399      1.0  0.51416  0.47594  0.80327  1.0000
  C   C338      1.0  0.95500  0.47163  0.96800  1.0000
  H   H400      1.0  0.91436  0.42711  0.96436  1.0000
  H   H401      1.0  0.54716  0.26272  0.72032  1.0000
  C   C339      1.0  0.71265  0.99626  0.84455  1.0000
  H   H402      1.0  0.53153  0.25405  0.76711  1.0000
  S   S95       1.0  0.63899  0.02095  0.84296  1.0000
  C   C340      1.0  0.86664  0.02043  0.92058  1.0000
  S   S96       1.0  0.95446  0.48112  0.93307  1.0000
  H   H403      1.0  0.52223  0.00408  0.70525  1.0000
  C   C341      1.0  0.48868  0.09247  0.93327  1.0000
  H   H404      1.0  0.53224  0.12502  0.69079  1.0000
  H   H405      1.0  0.81875  0.06297  0.89853  1.0000
  C   C342      1.0  0.93135  0.44334  0.97804  1.0000
  C   C343      1.0  0.49315  0.23076  0.87942  1.0000
  N   N24       1.0  0.53264  0.46865  0.85764  1.0000
  C   C344      1.0  0.76246  0.99669  0.92712  1.0000
  H   H406      1.0  0.52825  0.28308  0.80772  1.0000
  C   C345      1.0  0.67564  0.99017  0.85368  1.0000
  C   C346      1.0  0.72627  0.04201  0.90235  1.0000
  H   H407      1.0  0.49458  0.29671  0.83196  1.0000
  H   H408      1.0  0.86646  0.04969  0.92801  1.0000
  C   C347      1.0  0.49464  0.12524  0.75227  1.0000
  H   H409      1.0  0.55704  0.41922  0.87505  1.0000
  H   H410      1.0  0.71822  0.01980  0.83175  1.0000
  C   C348      1.0  0.52063  0.12033  0.73198  1.0000
  C   C349      1.0  0.54365  0.47189  0.80772  1.0000
  C   C350      1.0  0.47856  0.28478  0.76568  1.0000
  H   H411      1.0  0.51921  0.01542  0.75393  1.0000
  C   C351      1.0  0.75939  0.06058  0.89569  1.0000
  H   H412      1.0  0.51012  0.42922  0.88574  1.0000
  H   H413      1.0  0.75795  0.08514  0.88321  1.0000
  C   C352      1.0  0.62044  0.45860  0.81500  1.0000
  H   H414      1.0  0.51130  0.10250  0.94681  1.0000
  H   H415      1.0  0.86848  0.02043  0.89852  1.0000
  H   H416      1.0  0.54798  0.10847  0.73650  1.0000
  C   C353      1.0  0.72781  0.01021  0.91810  1.0000
  C   C354      1.0  0.49405  0.48221  0.85160  1.0000
  H   H417      1.0  0.65021  0.45301  0.81771  1.0000
  C   C355      1.0  0.51193  0.26932  0.75481  1.0000
  N   N25       1.0  0.83320  0.99919  0.92988  1.0000
  H   H418      1.0  0.49188  0.06168  0.93123  1.0000
  H   H419      1.0  0.50166  0.11690  0.77240  1.0000
  H   H420      1.0  0.60902  0.45569  0.85630  1.0000
  C   C356      1.0  0.49717  0.29381  0.71126  1.0000
  H   H421      1.0  0.49456  0.22525  0.79821  1.0000
  C   C357      1.0  0.55753  0.46791  0.83411  1.0000
  H   H422      1.0  0.49000  0.20861  0.67605  1.0000
  C   C358      1.0  0.49163  0.18403  0.66256  1.0000
  H   H423      1.0  0.62438  0.46115  0.77241  1.0000
  C   C359      1.0  0.60598  0.46313  0.78947  1.0000
  S   S97       1.0  0.52580  0.99356  0.84471  1.0000
  H   H424      1.0  0.91826  0.47979  0.76239  1.0000
  H   H425      1.0  0.89349  0.00787  0.92786  1.0000
  H   H426      1.0  0.57492  0.48261  0.88737  1.0000
  H   H427      1.0  0.55623  0.47216  0.76592  1.0000
  C   C360      1.0  0.56766  0.46957  0.78585  1.0000
  H   H428      1.0  0.50082  0.11113  0.65309  1.0000
  Fe  Fe49      1.0  0.57972  0.53742  0.10061  1.0000
  S   S98       1.0  0.64363  0.52876  0.10801  1.0000
  Fe  Fe50      1.0  0.52534  0.60353  0.08743  1.0000
  S   S99       1.0  0.52665  0.66612  0.07788  1.0000
  Fe  Fe51      1.0  0.50615  0.54994  0.13325  1.0000
  H   H429      1.0  0.48718  0.85132  0.02725  1.0000
  Fe  Fe52      1.0  0.50259  0.52309  0.07449  1.0000
  S   S100      1.0  0.55637  0.58572  0.12409  1.0000
  S   S101      1.0  0.55266  0.55826  0.06265  1.0000
  H   H430      1.0  0.85109  0.52792  0.02795  1.0000
  H   H431      1.0  0.52127  0.80834  0.15727  1.0000
  H   H432      1.0  0.48891  0.84545  0.15148  1.0000
  H   H433      1.0  0.80617  0.55079  0.05460  1.0000
  C   C361      1.0  0.49681  0.71500  0.01507  1.0000
  H   H434      1.0  0.51043  0.68841  0.01872  1.0000
  H   H435      1.0  0.91212  0.92305  0.00498  1.0000
  H   H436      1.0  0.50761  0.91499  0.25285  1.0000
  H   H437      1.0  0.94515  0.93527  0.25363  1.0000
  C   C362      1.0  0.57827  0.52914  0.21673  1.0000
  C   C363      1.0  0.64286  0.83274  0.31071  1.0000
  C   C364      1.0  0.74632  0.55193  0.05405  1.0000
  H   H438      1.0  0.52573  0.74627  0.07792  1.0000
  C   C365      1.0  0.78116  0.53440  0.05079  1.0000
  H   H439      1.0  0.66032  0.82430  0.29343  1.0000
  H   H440      1.0  0.72307  0.53045  0.11971  1.0000
  H   H441      1.0  0.62993  0.55266  0.16281  1.0000
  H   H442      1.0  0.54875  0.74427  0.00895  1.0000
  H   H443      1.0  0.59256  0.57636  0.17890  1.0000
  H   H444      1.0  0.49986  0.52185  0.00075  1.0000
  H   H445      1.0  0.63543  0.86279  0.30864  1.0000
  H   H446      1.0  0.50725  0.92278  0.20383  1.0000
  C   C366      1.0  0.48199  0.49936  0.99379  1.0000
  H   H447      1.0  0.55477  0.54848  0.21160  1.0000
  H   H448      1.0  0.51758  0.75040  0.13762  1.0000
  C   C367      1.0  0.49299  0.97944  0.99093  1.0000
  H   H449      1.0  0.74502  0.58090  0.06018  1.0000
  C   C368      1.0  0.49687  0.73706  0.07997  1.0000
  H   H450      1.0  0.69759  0.87643  0.30142  1.0000
  C   C369      1.0  0.57674  0.50260  0.17307  1.0000
  C   C370      1.0  0.71651  0.50227  0.11347  1.0000
  H   H451      1.0  0.69191  0.97742  0.30825  1.0000
  H   H452      1.0  0.68603  0.54534  0.05341  1.0000
  H   H453      1.0  0.52112  0.68307  0.13549  1.0000
  C   C371      1.0  0.61586  0.55614  0.18235  1.0000
  C   C372      1.0  0.48179  0.91082  0.24175  1.0000
  H   H454      1.0  0.84612  0.50657  0.07409  1.0000
  C   C373      1.0  0.84427  0.49924  0.02109  1.0000
  C   C374      1.0  0.97438  0.93935  0.24818  1.0000
  C   C375      1.0  0.48147  0.91530  0.21389  1.0000
  H   H455      1.0  0.65510  0.49495  0.15848  1.0000
  H   H456      1.0  0.63655  0.56934  0.19612  1.0000
  H   H457      1.0  0.75685  0.90854  0.30806  1.0000
  H   H458      1.0  0.59506  0.54322  0.23254  1.0000
  C   C376      1.0  0.49616  0.73501  0.14810  1.0000
  N   N26       1.0  0.60167  0.52029  0.19315  1.0000
  H   H459      1.0  0.49277  0.79485  0.20172  1.0000
  H   H460      1.0  0.82987  0.50131  0.00148  1.0000
  H   H461      1.0  0.59115  0.49852  0.15370  1.0000
  C   C377      1.0  0.78365  0.49623  0.04337  1.0000
  C   C378      1.0  0.49257  0.81464  0.14961  1.0000
  C   C379      1.0  0.95638  0.96424  0.00353  1.0000
  C   C380      1.0  0.71444  0.49453  0.04299  1.0000
  H   H462      1.0  0.96381  0.92639  0.20794  1.0000
  S   S102      1.0  0.48287  0.56294  0.17499  1.0000
  C   C381      1.0  0.51834  0.74659  0.00973  1.0000
  H   H463      1.0  0.51895  0.80504  0.00281  1.0000
  C   C382      1.0  0.48898  0.69856  0.08106  1.0000
  C   C383      1.0  0.50095  0.78121  0.00625  1.0000
  C   C384      1.0  0.71304  0.53205  0.05009  1.0000
  C   C385      1.0  0.49864  0.69610  0.14671  1.0000
  H   H464      1.0  0.55148  0.52000  0.16893  1.0000
  S   S103      1.0  0.53082  0.50015  0.11174  1.0000
  C   C386      1.0  0.93050  0.93885  0.99211  1.0000
  C   C387      1.0  0.63369  0.49515  0.19895  1.0000
  H   H465      1.0  0.49131  0.80824  0.12800  1.0000
  C   C388      1.0  0.67910  0.49317  0.10637  1.0000
  H   H466      1.0  0.56473  0.50368  0.22503  1.0000
  C   C389      1.0  0.48054  0.50602  0.21298  1.0000
  H   H467      1.0  0.61585  0.81697  0.30911  1.0000
  S   S104      1.0  0.95807  0.96910  0.03894  1.0000
  C   C390      1.0  0.97692  0.49215  0.98605  1.0000
  H   H468      1.0  0.51573  0.98849  0.00379  1.0000
  H   H469      1.0  0.88582  0.84745  0.54465  1.0000
  S   S105      1.0  0.87508  0.55872  0.63415  1.0000
  Fe  Fe53      1.0  0.93969  0.51163  0.58081  1.0000
  S   S106      1.0  0.88563  0.54042  0.57048  1.0000
  Fe  Fe54      1.0  0.90440  0.58544  0.59917  1.0000
  S   S107      1.0  0.89859  0.64756  0.58927  1.0000
  Fe  Fe55      1.0  0.86095  0.51086  0.60605  1.0000
  H   H470      1.0  0.71185  0.82335  0.37841  1.0000
  S   S108      1.0  0.62898  0.93754  0.32997  1.0000
  C   C391      1.0  0.59955  0.57600  0.49345  1.0000
  C   C392      1.0  0.57244  0.51626  0.57522  1.0000
  H   H471      1.0  0.63277  0.86760  0.35793  1.0000
  Fe  Fe56      1.0  0.52960  0.84235  0.36221  1.0000
  S   S109      1.0  0.54001  0.78039  0.37038  1.0000
  Fe  Fe57      1.0  0.57334  0.91213  0.34488  1.0000
  S   S110      1.0  0.51998  0.94602  0.34249  1.0000
  C   C393      1.0  0.94036  0.97955  0.50136  1.0000
  Fe  Fe58      1.0  0.50460  0.91965  0.38169  1.0000
  C   C394      1.0  0.50455  0.74502  0.36863  1.0000
  H   H472      1.0  0.95667  0.55941  0.53943  1.0000
  S   S111      1.0  0.55962  0.88849  0.38512  1.0000
  C   C395      1.0  0.58949  0.53161  0.52989  1.0000
  C   C396      1.0  0.96655  0.97193  0.45694  1.0000
  H   H473      1.0  0.89958  0.79239  0.51578  1.0000
  C   C397      1.0  0.67335  0.95064  0.34418  1.0000
  C   C398      1.0  0.68349  0.94190  0.37031  1.0000
  H   H474      1.0  0.94211  0.77828  0.59020  1.0000
  C   C399      1.0  0.89439  0.90447  0.47371  1.0000
  H   H475      1.0  0.92437  0.83581  0.56590  1.0000
  C   C400      1.0  0.94816  0.84793  0.47530  1.0000
  H   H476      1.0  0.51287  0.64258  0.52963  1.0000
  H   H477      1.0  0.49667  0.66236  0.48506  1.0000
  Fe  Fe59      1.0  0.93090  0.52998  0.64133  1.0000
  H   H478      1.0  0.49627  0.64949  0.36914  1.0000
  H   H479      1.0  0.75655  0.51537  0.62928  1.0000
  C   C401      1.0  0.93398  0.68285  0.59152  1.0000
  C   C402      1.0  0.92339  0.72068  0.59063  1.0000
  N   N27       1.0  0.60174  0.51245  0.55445  1.0000
  H   H480      1.0  0.89381  0.72777  0.59001  1.0000
  H   H481      1.0  0.68835  0.50626  0.63838  1.0000
  S   S112      1.0  0.54714  0.86400  0.32220  1.0000
  H   H482      1.0  0.60854  0.82350  0.35592  1.0000
  H   H483      1.0  0.61687  0.59705  0.48399  1.0000
  H   H484      1.0  0.64540  0.51283  0.58449  1.0000
  C   C403      1.0  0.51509  0.70713  0.36917  1.0000
  S   S113      1.0  0.96003  0.55853  0.60708  1.0000
  H   H485      1.0  0.54463  0.69996  0.36996  1.0000
  H   H486      1.0  0.66168  0.52280  0.55201  1.0000
  H   H487      1.0  0.87429  0.92718  0.47311  1.0000
  H   H488      1.0  0.58182  0.50393  0.59445  1.0000
  H   H489      1.0  0.66390  0.92697  0.38277  1.0000
  C   C404      1.0  0.57253  0.95842  0.44767  1.0000
  H   H490      1.0  0.92287  0.88110  0.55150  1.0000
  C   C405      1.0  0.96416  0.58938  0.53704  1.0000
  C   C406      1.0  0.74538  0.97199  0.36457  1.0000
  H   H491      1.0  0.53695  0.50034  0.52578  1.0000
  H   H492      1.0  0.59764  0.94043  0.44458  1.0000
  H   H493      1.0  0.55207  0.95165  0.43162  1.0000
  C   C407      1.0  0.74714  0.88899  0.32295  1.0000
  H   H494      1.0  0.64751  0.82898  0.37789  1.0000
  C   C408      1.0  0.55508  0.52144  0.51735  1.0000
  C   C409      1.0  0.92913  0.85722  0.49916  1.0000
  C   C410      1.0  0.69936  0.97039  0.32846  1.0000
  S   S114      1.0  0.96853  0.94872  0.54765  1.0000
  C   C411      1.0  0.94076  0.86676  0.45157  1.0000
  C   C412      1.0  0.48769  0.67841  0.36866  1.0000
  C   C413      1.0  0.63680  0.83683  0.35795  1.0000
  C   C414      1.0  0.54370  0.53769  0.49345  1.0000
  N   N28       1.0  0.66247  0.82540  0.33628  1.0000
  C   C415      1.0  0.75496  0.86045  0.36585  1.0000
  C   C416      1.0  0.48494  0.63623  0.49176  1.0000
  H   H495      1.0  0.90905  0.91030  0.43254  1.0000
  H   H496      1.0  0.49581  0.59633  0.43028  1.0000
  H   H497      1.0  0.68880  0.77502  0.32255  1.0000
  C   C417      1.0  0.56585  0.56493  0.48153  1.0000
  Fe  Fe60      1.0  0.49304  0.89628  0.32260  1.0000
  H   H498      1.0  0.63813  0.56908  0.52514  1.0000
  H   H499      1.0  0.48354  0.91969  0.50426  1.0000
  H   H500      1.0  0.55698  0.57719  0.46289  1.0000
  C   C418      1.0  0.73503  0.98109  0.33855  1.0000
  H   H501      1.0  0.72681  0.94527  0.40052  1.0000
  C   C419      1.0  0.61145  0.55961  0.51723  1.0000
  C   C420      1.0  0.95072  0.74943  0.59063  1.0000
  H   H502      1.0  0.77099  0.85758  0.38409  1.0000
  S   S115      1.0  0.79067  0.98310  0.37824  1.0000
  H   H503      1.0  0.55888  0.94988  0.46658  1.0000
  C   C421      1.0  0.71922  0.95249  0.38037  1.0000
  S   S116      1.0  0.89886  0.97892  0.35759  1.0000
  C   C422      1.0  0.72099  0.84116  0.36242  1.0000
  H   H504      1.0  0.94524  0.60111  0.52161  1.0000
  H   H505      1.0  0.56570  0.54607  0.57902  1.0000
  C   C423      1.0  0.74160  0.49216  0.62036  1.0000
  C   C424      1.0  0.92972  0.79698  0.52100  1.0000
  C   C425      1.0  0.71293  0.87017  0.31940  1.0000
  C   C426      1.0  0.47985  0.93648  0.46315  1.0000
  C   C427      1.0  0.91392  0.89496  0.45078  1.0000
  C   C428      1.0  0.76799  0.88433  0.34616  1.0000
  C   C429      1.0  0.96914  0.95758  0.51267  1.0000
  H   H506      1.0  0.68018  0.77606  0.35765  1.0000
  C   C430      1.0  0.97234  0.67417  0.59267  1.0000
  H   H507      1.0  0.88679  0.89610  0.51481  1.0000
  C   C431      1.0  0.90191  0.88621  0.49766  1.0000
  H   H508      1.0  0.95685  0.60406  0.55585  1.0000
  N   N29       1.0  0.93812  0.83731  0.52413  1.0000
  C   C432      1.0  0.63757  0.52724  0.56570  1.0000
  H   H509      1.0  0.63535  0.55738  0.57073  1.0000
  H   H510      1.0  0.94709  0.78374  0.50532  1.0000
  C   C433      1.0  0.93900  0.98668  0.47375  1.0000
  S   S117      1.0  0.96639  0.97958  0.42181  1.0000
  H   H511      1.0  0.93574  0.78127  0.53960  1.0000
  H   H512      1.0  0.49396  0.66424  0.43950  1.0000
  C   C434      1.0  0.69881  0.84549  0.33910  1.0000
  H   H513      1.0  0.51763  0.52889  0.48400  1.0000
  H   H514      1.0  0.49335  0.91156  0.45574  1.0000
  H   H515      1.0  0.64188  0.76869  0.33538  1.0000
  C   C435      1.0  0.91669  0.85110  0.54744  1.0000
  H   H516      1.0  0.95646  0.86009  0.43378  1.0000
  C   C436      1.0  0.66871  0.78457  0.33805  1.0000
  H   H517      1.0  0.97312  0.60329  0.48100  1.0000
  H   H518      1.0  0.93137  0.50750  0.50740  1.0000
  H   H519      1.0  0.79371  0.90023  0.34922  1.0000
  H   H520      1.0  0.48794  0.58346  0.54787  1.0000
  H   H521      1.0  0.54578  0.50161  0.56994  1.0000
  C   C437      1.0  0.49460  0.62515  0.51752  1.0000
  H   H522      1.0  0.63188  0.98759  0.47234  1.0000
  H   H523      1.0  0.96947  0.82649  0.47494  1.0000
  H   H524      1.0  0.93119  0.49150  0.45939  1.0000
  C   C438      1.0  0.48061  0.59191  0.52786  1.0000
  C   C439      1.0  0.69892  0.93553  0.87745  1.0000
  H   H525      1.0  0.82939  0.92127  0.75242  1.0000
  Fe  Fe61      1.0  0.89309  0.83251  0.86881  1.0000
  S   S118      1.0  0.94000  0.86975  0.85466  1.0000
  S   S119      1.0  0.89572  0.77116  0.88129  1.0000
  Fe  Fe62      1.0  0.83391  0.89697  0.86632  1.0000
  S   S120      1.0  0.87747  0.93775  0.85192  1.0000
  S   S121      1.0  0.77189  0.90871  0.87679  1.0000
  Fe  Fe63      1.0  0.89793  0.89157  0.82463  1.0000
  C   C440      1.0  0.93641  0.66137  0.80947  1.0000
  Fe  Fe64      1.0  0.91536  0.91224  0.88332  1.0000
  H   H526      1.0  0.90802  0.91415  0.95605  1.0000
  S   S122      1.0  0.85193  0.85206  0.83782  1.0000
  S   S123      1.0  0.87102  0.87371  0.89878  1.0000
  H   H527      1.0  0.95882  0.68216  0.80515  1.0000
  C   C441      1.0  0.74255  0.97235  0.85188  1.0000
  C   C442      1.0  0.97242  0.64721  0.75679  1.0000
  H   H528      1.0  0.88886  0.60386  0.80448  1.0000
  H   H529      1.0  0.78367  0.91932  0.73727  1.0000
  H   H530      1.0  0.95856  0.86555  0.91696  1.0000
  H   H531      1.0  0.90388  0.58037  0.76298  1.0000
  C   C443      1.0  0.73579  0.94134  0.86801  1.0000
  H   H532      1.0  0.83281  0.95916  0.89818  1.0000
  C   C444      1.0  0.96771  0.74603  0.86829  1.0000
  H   H533      1.0  0.95242  0.62420  0.69263  1.0000
  H   H534      1.0  0.69325  0.91185  0.89010  1.0000
  C   C445      1.0  0.95231  0.67227  0.88372  1.0000
  H   H535      1.0  0.73543  0.88772  0.81841  1.0000
  H   H536      1.0  0.73675  0.96419  0.75142  1.0000
  C   C446      1.0  0.95183  0.95379  0.94734  1.0000
  C   C447      1.0  0.92813  0.93370  0.96429  1.0000
  S   S124      1.0  0.95037  0.94857  0.91197  1.0000
  H   H537      1.0  0.64095  0.95461  0.87772  1.0000
  H   H538      1.0  0.91797  0.59769  0.83315  1.0000
  C   C448      1.0  0.93177  0.73709  0.87764  1.0000
  C   C449      1.0  0.92424  0.70002  0.88519  1.0000
  H   H539      1.0  0.92442  0.56762  0.80536  1.0000
  H   H540      1.0  0.89660  0.69280  0.89255  1.0000
  H   H541      1.0  0.94621  0.64407  0.89001  1.0000
  H   H542      1.0  0.93263  0.66200  0.83137  1.0000
  C   C450      1.0  0.96788  0.52394  0.71377  1.0000
  N   N30       1.0  0.78323  0.91455  0.77993  1.0000
  C   C451      1.0  0.79936  0.92970  0.75497  1.0000
  H   H543      1.0  0.55380  0.52190  0.87085  1.0000
  C   C452      1.0  0.78961  0.87359  0.77969  1.0000
  C   C453      1.0  0.74274  0.92300  0.78341  1.0000
  C   C454      1.0  0.91798  0.59700  0.81103  1.0000
  C   C455      1.0  0.80441  0.93111  0.80242  1.0000
  H   H544      1.0  0.86538  0.94875  0.92457  1.0000
  S   S125      1.0  0.96847  0.55161  0.87242  1.0000
  C   C456      1.0  0.96958  0.90933  0.75646  1.0000
  S   S126      1.0  0.97034  0.49877  0.80406  1.0000
  C   C457      1.0  0.92504  0.60120  0.72684  1.0000
  N   N31       1.0  0.94600  0.62342  0.79982  1.0000
  H   H545      1.0  0.78350  0.86034  0.79911  1.0000
  C   C458      1.0  0.96646  0.74700  0.94322  1.0000
  H   H546      1.0  0.95873  0.82096  0.90032  1.0000
  H   H547      1.0  0.90741  0.58271  0.71503  1.0000
  H   H548      1.0  0.81963  0.86662  0.77553  1.0000
  C   C459      1.0  0.92341  0.60015  0.75456  1.0000
  H   H549      1.0  0.91612  0.49271  0.71392  1.0000
  C   C460      1.0  0.68460  0.91585  0.80922  1.0000
  C   C461      1.0  0.94048  0.49611  0.75343  1.0000
  H   H550      1.0  0.66985  0.90371  0.82593  1.0000
  C   C462      1.0  0.83706  0.96039  0.92004  1.0000
  H   H551      1.0  0.91677  0.84529  0.95117  1.0000
  H   H552      1.0  0.90977  0.67149  0.80030  1.0000
  H   H553      1.0  0.79569  0.91903  0.82175  1.0000
  H   H554      1.0  0.93510  0.88915  0.68438  1.0000
  H   H555      1.0  0.77190  0.85967  0.76430  1.0000
  C   C463      1.0  0.93919  0.50331  0.72585  1.0000
  C   C464      1.0  0.72219  0.90659  0.80452  1.0000
  H   H556      1.0  0.49177  0.51074  0.95230  1.0000
  H   H557      1.0  0.92467  0.80279  0.96882  1.0000
  H   H558      1.0  0.48580  0.84617  0.97886  1.0000
  C   C465      1.0  0.92018  0.89086  0.72610  1.0000
  C   C466      1.0  0.94711  0.62331  0.77043  1.0000
  S   S127      1.0  0.89884  0.89418  0.77879  1.0000
  H   H559      1.0  0.79964  0.96073  0.75491  1.0000
  H   H560      1.0  0.89143  0.88215  0.72253  1.0000
  H   H561      1.0  0.63798  0.95071  0.79811  1.0000
  H   H562      1.0  0.52863  0.49607  0.89581  1.0000
  H   H563      1.0  0.83516  0.92631  0.80051  1.0000
  C   C467      1.0  0.66910  0.95977  0.87045  1.0000
  H   H564      1.0  0.93661  0.74648  0.94714  1.0000
  C   C468      1.0  0.95055  0.62456  0.71413  1.0000
  C   C469      1.0  0.93222  0.89808  0.75233  1.0000
  C   C470      1.0  0.92898  0.81683  0.94939  1.0000
  H   H565      1.0  0.79999  0.96178  0.80354  1.0000
  C   C471      1.0  0.97413  0.64763  0.72906  1.0000
  H   H566      1.0  0.81212  0.98075  0.96793  1.0000
  C   C472      1.0  0.94496  0.89475  0.70433  1.0000
  H   H567      1.0  0.77075  0.97808  0.84510  1.0000
  H   H568      1.0  0.67182  0.98016  0.76091  1.0000
  C   C473      1.0  0.54833  0.49340  0.87869  1.0000
  H   H569      1.0  0.91194  0.80213  0.93392  1.0000
  H   H570      1.0  0.49466  0.51037  0.84238  1.0000
  C   C474      1.0  0.66659  0.94232  0.79354  1.0000
  H   H571      1.0  0.81614  0.94099  0.92888  1.0000
  C   C475      1.0  0.68587  0.95907  0.77271  1.0000
  C   C476      1.0  0.72337  0.94963  0.76755  1.0000
  S   S128      1.0  0.96795  0.53432  0.67903  1.0000
  N   N32       1.0  0.96950  0.81813  0.94215  1.0000
  C   C477      1.0  0.97238  0.83769  0.91637  1.0000
  H   H572      1.0  0.76212  0.97144  0.93879  1.0000
  H   H573      1.0  0.96763  0.68682  0.94258  1.0000
  C   C478      1.0  0.97007  0.50980  0.76946  1.0000
  H   H574      1.0  0.97401  0.77432  0.86234  1.0000
  C   C479      1.0  0.97757  0.97925  0.95872  1.0000
  H   H575      1.0  0.97602  0.86840  0.96556  1.0000
  C   C480      1.0  0.49432  0.98802  0.96358  1.0000
  H   H576      1.0  0.86180  0.98820  0.96698  1.0000
