data_image0
_chemical_formula_structural       HFeSFeHSFeCHFeS2FeHSFeS2NFeS3HSHSFeHSCS2CH2C6HCNHC6H5C3SC6H4C6H4C2H2C2SH9CH2CH3CH6CH3CHC9H2C2H2C2H4NC2HCHCH2CHCH2N2C2HCH2CHNC6S2H8CH2CH2C5HCSH3FeCH2CH3FeH3CSH2CNH3CSHSHSHCHC2H2FeC2HCH2CHC2HC4H3CHFeHCHCHCHCHC4HCFeHFeSFeS2FeS2FeHSFeSCS3HFeS2HFeSFeSHSHFeSC3H2SC6H2C7H4C2H2C7H7CHCH2C6H5CHC2HCH3CH2CH2NH5NHCH2C4SCHCHC2H2C2H3C2FeH2CHSH2C2FeH2CH2CHCHCHN2C9H17C3HCSCH2CH3C2H4C2H4CH2SHCNCH2C2H2CH2NCH4CSCHC4HSH5SCH2C2NCSC3HCH2C2SCSCHCFeHSFeSHFeSHS2FeSH2SFeCFeH2C5H4CHCH5C2H4C4HCH2CHNSC3H4CHSCHCNHCHCH4C3HCH6SCHC2HC2H4CNHSHCHCSCFeH3CHCHCHFeS2FeSHFeSFeHS2FeS2FeSHFeSFeHS3C6H3CH6CHC2H6C2H2SH3CH2C3H3NH3CNCH2CHCHC2HSHSCH5C2SHNC5HC3HC2HC4HC3H2CHSFeS2FeS2FeSFeS4FeSFeS2FeHFeS2FeSFeCSH2SHCH2SCHC2HCH2C7H4C6H4C2NC2HC6H5CH3C3H2CH2CH2NHCHCH5CHC4HSHCHC3H5CH2CNH2SCSFeH5CHC5H4C4H2CNH3SCHC3H2CH2CSCHCH3CH3FeSHSHC2H2NHCH4C2H2CSNHCH2CH2C3HCH3CHC2FeSHSFeCSFeS2CFeS3CHSFeS2HSCFeSH2C3SHCHCHC6H4CFeHSC6H6C2HC6H5C3HCH4C4Fe2CH2C2H2C3HCH3C2SFeHSH2NC6HC2H9FeHCH2NC2HSH5SHCH6C3HCHNCH5C4H2FeH4CHCHCNC3HCH2C2H5CH4C3H3CSH2C2SCH2FeCSFeHSCFeSHS2FeS2FeSFeCFeS2FeSFeSFeSFeSC6H5C2H2C7H4C11H4C6H5C3NCHC2H2C2H2SH3C2H3CHCSCH4FeHC2SCH3C2HCH5CH2CH2CHC2HCNHCH6SCHCSH5CH2CHCS2H3CHC4HNHCHNC3HNCH3CHC2H3CH2C3HC3H7C4H2CH3CSHC5H3NCHC3HC2H2CHNH5C2H2CH3CH2SHCHCH3CFeS2HFeSFeSCSFeHSFeHFeSCSCFeS2FeSFeSFeSCSFeSH4C4H2CH3C6H4C6H4C2H2NC2HC2HCSCH2SHC6H5C2H3CH2C2NCH2NHCH4C3H2NSHCH6C2HCH3SCHCH2C2HC2H2CH4C3H3S2H4NC8H7FeH3C2HCH4CNH4C2H2C4HC2SC2H2SC2H4CHC2H2CHCSC2SH2CSCH2FeS2FeHSFeSHS2FeHSFeCHFeS4HCH3CHCHC3H4CHCSCSC4HCH3CSH2C2HNCSCH2C8H4FeH5CH2NH5C2H2C2H2NFeNCH2CHC3H2CH3C2HSCH4CH2CH2C2H2C3FeHC3H2CHC2HFeSHFeSHFeHFeSCSFeHSFeSH2FeS3HC3H2C5H2SC5HSHC2H6CSCH3C2HC6H4CNCNHCHCH2C3HCHSHCSHFeCH2CHCH2CH2CHCH2SNHCHCSCHCH2SHCHSH4CHC2H2SCFeS2FeSFeS2FeS2HSHFeSFeS3FeS2FeH3FeSC3HSHC8H5C2H2CHCHC6H3C7H6SH4FeCH2NC2HC5HCHC2H3CH5CNC4HCH5NH4CH2C3HNC9H14NHC4H2SHCH2SHC3HCH2C2H2NHCHSC2HCHCHFeCH2SHCSHC2FeCSHCHCHC3H7CH3SH2CH2CH5CHCHCSC2HC3SCHFeS2FeNFeSHC2S2CFeS2H3FeS2FeSFeSFeSHSC6H4CHC3HC4HC7H4CFeHFeCHC6H3C6H4NC9H11CH5C2SH2SH2CFeH3CHFeH2NHC2HCH6CNC2H10NHCHCH5CSC6H3C6H3CHNC6H15C3H3SHNCH5C3H2CNH3C3H3CH2SC
_chemical_formula_sum              "H1152 Fe128 S256 C960 N64"
_cell_length_a       56.1341
_cell_length_b       56.0726
_cell_length_c       36.9406
_cell_angle_alpha    90.5495
_cell_angle_beta     90.19
_cell_angle_gamma    88.0996

_space_group_name_H-M_alt    "P 1"
_space_group_IT_number       1

loop_
  _space_group_symop_operation_xyz
  'x, y, z'

loop_
  _atom_site_type_symbol
  _atom_site_label
  _atom_site_symmetry_multiplicity
  _atom_site_fract_x
  _atom_site_fract_y
  _atom_site_fract_z
  _atom_site_occupancy
  H   H1        1.0  0.14956  0.27985  0.12348  1.0000
  Fe  Fe1       1.0  0.10936  0.27415  0.02320  1.0000
  S   S1        1.0  0.10503  0.27469  0.08434  1.0000
  Fe  Fe2       1.0  0.32579  0.26967  0.02053  1.0000
  H   H2        1.0  0.18500  0.30282  0.41044  1.0000
  S   S2        1.0  0.28657  0.25958  0.02702  1.0000
  Fe  Fe3       1.0  0.36795  0.29982  0.04432  1.0000
  C   C1        1.0  0.05132  0.32433  0.10013  1.0000
  H   H3        1.0  0.39677  0.23813  0.21301  1.0000
  Fe  Fe4       1.0  0.37644  0.24690  0.03057  1.0000
  S   S3        1.0  0.40307  0.21691  0.04446  1.0000
  S   S4        1.0  0.35165  0.26736  0.06797  1.0000
  Fe  Fe5       1.0  0.46300  0.09008  0.22487  1.0000
  H   H4        1.0  0.03228  0.09637  0.25520  1.0000
  S   S5        1.0  0.46309  0.05052  0.20730  1.0000
  Fe  Fe6       1.0  0.43399  0.13592  0.20859  1.0000
  S   S6        1.0  0.45795  0.15889  0.24116  1.0000
  S   S7        1.0  0.40002  0.15163  0.18384  1.0000
  N   N1        1.0  0.01143  0.23383  0.45440  1.0000
  Fe  Fe7       1.0  0.45784  0.12981  0.28232  1.0000
  S   S8        1.0  0.45860  0.14014  0.34198  1.0000
  S   S9        1.0  0.46407  0.11690  0.17908  1.0000
  S   S10       1.0  0.43124  0.10813  0.25201  1.0000
  H   H5        1.0  0.38109  0.23562  0.17056  1.0000
  S   S11       1.0  0.36402  0.17194  0.42708  1.0000
  H   H6        1.0  0.18173  0.25981  0.05942  1.0000
  S   S12       1.0  0.18630  0.20402  0.45533  1.0000
  Fe  Fe8       1.0  0.09972  0.17753  0.45506  1.0000
  H   H7        1.0  0.14530  0.30772  0.41023  1.0000
  S   S13       1.0  0.07710  0.14877  0.43029  1.0000
  C   C2        1.0  0.05518  0.01094  0.26871  1.0000
  S   S14       1.0  0.07737  0.26457  0.45477  1.0000
  S   S15       1.0  0.11898  0.20675  0.42738  1.0000
  C   C3        1.0  0.47008  0.27718  0.21467  1.0000
  H   H8        1.0  0.24058  0.23874  0.03120  1.0000
  H   H9        1.0  0.09559  0.28693  0.15883  1.0000
  C   C4        1.0  0.07760  0.28151  0.41470  1.0000
  C   C5        1.0  0.09592  0.27896  0.38928  1.0000
  C   C6        1.0  0.09663  0.29460  0.35970  1.0000
  C   C7        1.0  0.03204  0.26323  0.33006  1.0000
  C   C8        1.0  0.02846  0.22990  0.42400  1.0000
  C   C9        1.0  0.05942  0.29896  0.40937  1.0000
  H   H10       1.0  0.11001  0.26559  0.39320  1.0000
  C   C10       1.0  0.05525  0.03220  0.28891  1.0000
  N   N2        1.0  0.40361  0.07749  0.13474  1.0000
  H   H11       1.0  0.04534  0.30124  0.42914  1.0000
  C   C11       1.0  0.05966  0.15422  0.39120  1.0000
  C   C12       1.0  0.03905  0.14112  0.38538  1.0000
  C   C13       1.0  0.02579  0.14370  0.35318  1.0000
  C   C14       1.0  0.03362  0.15869  0.32600  1.0000
  C   C15       1.0  0.05391  0.17217  0.33211  1.0000
  C   C16       1.0  0.06671  0.17021  0.36480  1.0000
  H   H12       1.0  0.03341  0.12888  0.40589  1.0000
  H   H13       1.0  0.06638  0.31518  0.18827  1.0000
  H   H14       1.0  0.06009  0.18376  0.31112  1.0000
  H   H15       1.0  0.08267  0.18023  0.36889  1.0000
  H   H16       1.0  0.40357  0.07342  0.19296  1.0000
  C   C17       1.0  0.17022  0.27628  0.05736  1.0000
  C   C18       1.0  0.42587  0.06240  0.13329  1.0000
  C   C19       1.0  0.25873  0.26739  0.00579  1.0000
  S   S16       1.0  0.39404  0.27935  0.00938  1.0000
  C   C20       1.0  0.43223  0.14930  0.36519  1.0000
  C   C21       1.0  0.40993  0.14905  0.34826  1.0000
  C   C22       1.0  0.38926  0.15613  0.36760  1.0000
  C   C23       1.0  0.39069  0.16370  0.40391  1.0000
  C   C24       1.0  0.41302  0.16417  0.42078  1.0000
  C   C25       1.0  0.43370  0.15693  0.40149  1.0000
  H   H17       1.0  0.40857  0.14321  0.32035  1.0000
  H   H18       1.0  0.37208  0.15572  0.35432  1.0000
  H   H19       1.0  0.41435  0.16992  0.44872  1.0000
  H   H20       1.0  0.45088  0.15715  0.41481  1.0000
  C   C26       1.0  0.40174  0.19905  0.08346  1.0000
  C   C27       1.0  0.42228  0.18592  0.09422  1.0000
  C   C28       1.0  0.42214  0.17175  0.12542  1.0000
  C   C29       1.0  0.40123  0.17010  0.14554  1.0000
  C   C30       1.0  0.38067  0.18319  0.13477  1.0000
  C   C31       1.0  0.38098  0.19786  0.10406  1.0000
  H   H21       1.0  0.43840  0.18676  0.07837  1.0000
  H   H22       1.0  0.43802  0.16163  0.13337  1.0000
  H   H23       1.0  0.36442  0.18196  0.15024  1.0000
  H   H24       1.0  0.36507  0.20788  0.09596  1.0000
  C   C32       1.0  0.46249  0.02213  0.26947  1.0000
  C   C33       1.0  0.46182  0.02308  0.23161  1.0000
  H   H25       1.0  0.46362  0.03849  0.28505  1.0000
  H   H26       1.0  0.01237  0.09357  0.33573  1.0000
  C   C34       1.0  0.08407  0.29500  0.10444  1.0000
  C   C35       1.0  0.08329  0.29740  0.14234  1.0000
  S   S17       1.0  0.48980  0.10993  0.25842  1.0000
  H   H27       1.0  0.23947  0.32832  0.02881  1.0000
  H   H28       1.0  0.38388  0.04610  0.14651  1.0000
  H   H29       1.0  0.48232  0.21761  0.22006  1.0000
  H   H30       1.0  0.00072  0.08344  0.29392  1.0000
  H   H31       1.0  0.32787  0.13753  0.41212  1.0000
  H   H32       1.0  0.40925  0.29115  0.15388  1.0000
  H   H33       1.0  0.38407  0.09701  0.17677  1.0000
  H   H34       1.0  0.30347  0.15125  0.36595  1.0000
  H   H35       1.0  0.27418  0.16337  0.37291  1.0000
  C   C36       1.0  0.03920  0.00830  0.24012  1.0000
  H   H36       1.0  0.19559  0.30924  0.45536  1.0000
  H   H37       1.0  0.32119  0.14148  0.45837  1.0000
  C   C37       1.0  0.23354  0.31801  0.05155  1.0000
  H   H38       1.0  0.18364  0.24913  0.41512  1.0000
  H   H39       1.0  0.02646  0.27090  0.17021  1.0000
  H   H40       1.0  0.43905  0.09162  0.08588  1.0000
  C   C38       1.0  0.06809  0.30864  0.08338  1.0000
  H   H41       1.0  0.23520  0.21065  0.43623  1.0000
  H   H42       1.0  0.16506  0.32953  0.10159  1.0000
  H   H43       1.0  0.02278  0.19948  0.47584  1.0000
  H   H44       1.0  0.26906  0.31144  0.07200  1.0000
  H   H45       1.0  0.17764  0.26459  0.12505  1.0000
  H   H46       1.0  0.30685  0.11840  0.43301  1.0000
  C   C39       1.0  0.24870  0.14856  0.43347  1.0000
  H   H47       1.0  0.20127  0.24820  0.00257  1.0000
  H   H48       1.0  0.04947  0.22863  0.32618  1.0000
  H   H49       1.0  0.01079  0.02481  0.20924  1.0000
  C   C40       1.0  0.13956  0.30630  0.43799  1.0000
  H   H50       1.0  0.06800  0.03295  0.31078  1.0000
  C   C41       1.0  0.01345  0.07858  0.31588  1.0000
  C   C42       1.0  0.40303  0.09725  0.10834  1.0000
  C   C43       1.0  0.42251  0.10198  0.08520  1.0000
  C   C44       1.0  0.38261  0.11278  0.10568  1.0000
  C   C45       1.0  0.42125  0.12084  0.06063  1.0000
  C   C46       1.0  0.38153  0.13149  0.08091  1.0000
  C   C47       1.0  0.40078  0.13548  0.05837  1.0000
  C   C48       1.0  0.19156  0.29457  0.43597  1.0000
  C   C49       1.0  0.01532  0.28117  0.19025  1.0000
  H   H51       1.0  0.11128  0.29315  0.34077  1.0000
  H   H52       1.0  0.36583  0.07096  0.13212  1.0000
  C   C50       1.0  0.24280  0.29449  0.10429  1.0000
  C   C51       1.0  0.02331  0.04831  0.25122  1.0000
  H   H53       1.0  0.48212  0.18277  0.31044  1.0000
  H   H54       1.0  0.01296  0.20714  0.32009  1.0000
  C   C52       1.0  0.47267  0.23417  0.21382  1.0000
  C   C53       1.0  0.01121  0.22628  0.32315  1.0000
  H   H55       1.0  0.36753  0.11097  0.12341  1.0000
  H   H56       1.0  0.43639  0.12441  0.04359  1.0000
  H   H57       1.0  0.36597  0.14347  0.07995  1.0000
  H   H58       1.0  0.40006  0.15041  0.03987  1.0000
  N   N3        1.0  0.03805  0.07408  0.30218  1.0000
  C   C54       1.0  0.27243  0.15082  0.44647  1.0000
  C   C55       1.0  0.22959  0.14658  0.45737  1.0000
  H   H59       1.0  0.04393  0.11150  0.29361  1.0000
  C   C56       1.0  0.03906  0.05153  0.28091  1.0000
  H   H60       1.0  0.27276  0.21257  0.47217  1.0000
  C   C57       1.0  0.18656  0.26534  0.48184  1.0000
  H   H61       1.0  0.03619  0.24667  0.41443  1.0000
  H   H62       1.0  0.46241  0.99953  0.31656  1.0000
  C   C58       1.0  0.02338  0.02699  0.23130  1.0000
  H   H63       1.0  0.14092  0.31159  0.08642  1.0000
  C   C59       1.0  0.27562  0.15125  0.48460  1.0000
  H   H64       1.0  0.00974  0.13390  0.34918  1.0000
  H   H65       1.0  0.45991  0.00184  0.18276  1.0000
  N   N4        1.0  0.17422  0.27818  0.45174  1.0000
  N   N5        1.0  0.29300  0.15394  0.42213  1.0000
  C   C60       1.0  0.07860  0.31229  0.35467  1.0000
  C   C61       1.0  0.23465  0.20887  0.46533  1.0000
  H   H66       1.0  0.04858  0.27262  0.33225  1.0000
  C   C62       1.0  0.40146  0.08748  0.17192  1.0000
  H   H67       1.0  0.49369  0.18049  0.37393  1.0000
  H   H68       1.0  0.28040  0.13165  0.37875  1.0000
  C   C63       1.0  0.03249  0.23846  0.32655  1.0000
  H   H69       1.0  0.31635  0.18211  0.40761  1.0000
  N   N6        1.0  0.41442  0.25388  0.16781  1.0000
  C   C64       1.0  0.41933  0.24770  0.12948  1.0000
  C   C65       1.0  0.39911  0.23543  0.18333  1.0000
  C   C66       1.0  0.43744  0.25486  0.18748  1.0000
  C   C67       1.0  0.45079  0.23356  0.19562  1.0000
  C   C68       1.0  0.44807  0.27676  0.19685  1.0000
  C   C69       1.0  0.46181  0.99994  0.28730  1.0000
  S   S18       1.0  0.12508  0.30505  0.99500  1.0000
  S   S19       1.0  0.02575  0.32579  0.25999  1.0000
  H   H70       1.0  0.40263  0.24710  0.11313  1.0000
  H   H71       1.0  0.42872  0.23004  0.12668  1.0000
  H   H72       1.0  0.43088  0.26091  0.11674  1.0000
  H   H73       1.0  0.40633  0.21697  0.17871  1.0000
  H   H74       1.0  0.44458  0.21621  0.18769  1.0000
  H   H75       1.0  0.43997  0.29393  0.19029  1.0000
  H   H76       1.0  0.00996  0.29526  0.33266  1.0000
  H   H77       1.0  0.38267  0.27536  0.15542  1.0000
  C   C70       1.0  0.46036  0.00146  0.21202  1.0000
  H   H78       1.0  0.42864  0.05408  0.10612  1.0000
  H   H79       1.0  0.41541  0.10068  0.17699  1.0000
  C   C71       1.0  0.48649  0.32894  0.04315  1.0000
  H   H80       1.0  0.41981  0.29461  0.07208  1.0000
  H   H81       1.0  0.01981  0.22099  0.40064  1.0000
  C   C72       1.0  0.40038  0.27685  0.16885  1.0000
  C   C73       1.0  0.31292  0.13706  0.43187  1.0000
  C   C74       1.0  0.16912  0.28263  0.12165  1.0000
  C   C75       1.0  0.42560  0.30855  0.09007  1.0000
  C   C76       1.0  0.25023  0.30854  0.07587  1.0000
  H   H82       1.0  0.06857  0.30704  0.05417  1.0000
  C   C77       1.0  0.44845  0.30691  0.10571  1.0000
  S   S20       1.0  0.01913  0.16053  0.28357  1.0000
  H   H83       1.0  0.44179  0.07278  0.14067  1.0000
  H   H84       1.0  0.30755  0.18259  0.45400  1.0000
  H   H85       1.0  0.39723  0.28309  0.19718  1.0000
  Fe  Fe9       1.0  0.36204  0.18727  0.48423  1.0000
  C   C78       1.0  0.28735  0.14980  0.38328  1.0000
  H   H86       1.0  0.24427  0.14880  0.40505  1.0000
  H   H87       1.0  0.17307  0.28389  0.03007  1.0000
  C   C79       1.0  0.20941  0.31312  0.05515  1.0000
  H   H88       1.0  0.17396  0.29426  0.14493  1.0000
  H   H89       1.0  0.04420  0.21851  0.43211  1.0000
  H   H90       1.0  0.00948  0.27573  0.41574  1.0000
  Fe  Fe10      1.0  0.09997  0.23127  0.46681  1.0000
  H   H91       1.0  0.05296  0.09126  0.34942  1.0000
  H   H92       1.0  0.06286  0.09135  0.26759  1.0000
  H   H93       1.0  0.20872  0.28506  0.42905  1.0000
  C   C80       1.0  0.41023  0.32796  0.09822  1.0000
  S   S21       1.0  0.34005  0.30416  0.00012  1.0000
  H   H94       1.0  0.25599  0.28666  0.12253  1.0000
  H   H95       1.0  0.01041  0.06212  0.24356  1.0000
  C   C81       1.0  0.38339  0.06165  0.12790  1.0000
  N   N7        1.0  0.17561  0.29349  0.08662  1.0000
  H   H96       1.0  0.04587  0.32777  0.37579  1.0000
  H   H97       1.0  0.47788  0.29418  0.22118  1.0000
  H   H98       1.0  0.21421  0.27853  0.13086  1.0000
  C   C82       1.0  0.15236  0.29172  0.46314  1.0000
  S   S22       1.0  0.48500  0.32090  0.14874  1.0000
  H   H99       1.0  0.28663  0.19192  0.41963  1.0000
  S   S23       1.0  0.38094  0.32980  0.08029  1.0000
  H   H100      1.0  0.00654  0.06250  0.32929  1.0000
  S   S24       1.0  0.13201  0.24613  0.99386  1.0000
  H   H101      1.0  0.05013  0.05969  0.35325  1.0000
  C   C83       1.0  0.00614  0.20993  0.46892  1.0000
  H   H102      1.0  0.21150  0.14573  0.44705  1.0000
  C   C84       1.0  0.05438  0.07407  0.33395  1.0000
  C   C85       1.0  0.21622  0.25934  0.99741  1.0000
  H   H103      1.0  0.01217  0.23632  0.19618  1.0000
  H   H104      1.0  0.07337  0.07197  0.32561  1.0000
  Fe  Fe11      1.0  0.48828  0.13800  0.21504  1.0000
  C   C86       1.0  0.04455  0.09414  0.27866  1.0000
  C   C87       1.0  0.30120  0.17869  0.42603  1.0000
  H   H105      1.0  0.46016  0.29177  0.09924  1.0000
  C   C88       1.0  0.21862  0.28990  0.10865  1.0000
  H   H106      1.0  0.15142  0.27080  0.05843  1.0000
  H   H107      1.0  0.42561  0.04751  0.15309  1.0000
  C   C89       1.0  0.23867  0.25382  0.01326  1.0000
  H   H108      1.0  0.49168  0.22099  0.30118  1.0000
  C   C90       1.0  0.16010  0.31528  0.08207  1.0000
  C   C91       1.0  0.20111  0.29927  0.08422  1.0000
  H   H109      1.0  0.15460  0.24776  0.43476  1.0000
  C   C92       1.0  0.05972  0.31408  0.37923  1.0000
  C   C93       1.0  0.48222  0.25598  0.22350  1.0000
  C   C94       1.0  0.06672  0.31336  0.15908  1.0000
  C   C95       1.0  0.16783  0.26023  0.42394  1.0000
  H   H110      1.0  0.02205  0.29962  0.19032  1.0000
  H   H111      1.0  0.15985  0.26849  0.39930  1.0000
  H   H112      1.0  0.38380  0.05461  0.09961  1.0000
  C   C96       1.0  0.01031  0.27592  0.33032  1.0000
  H   H113      1.0  0.01881  0.27410  0.21789  1.0000
  Fe  Fe12      1.0  0.14690  0.20188  0.47173  1.0000
  H   H114      1.0  0.19750  0.31953  0.03407  1.0000
  C   C97       1.0  0.05057  0.32680  0.13799  1.0000
  H   H115      1.0  0.99865  0.26917  0.99546  1.0000
  C   C98       1.0  0.45633  0.32475  0.12933  1.0000
  H   H116      1.0  0.16084  0.32264  0.05431  1.0000
  C   C99       1.0  0.25604  0.20975  0.48552  1.0000
  H   H117      1.0  0.20326  0.25588  0.47258  1.0000
  C   C100      1.0  0.21263  0.20551  0.48243  1.0000
  H   H118      1.0  0.02847  0.26540  0.47413  1.0000
  C   C101      1.0  0.11846  0.31864  0.44768  1.0000
  C   C102      1.0  0.02312  0.24756  0.48352  1.0000
  C   C103      1.0  0.10928  0.31657  0.48242  1.0000
  C   C104      1.0  0.45579  0.32862  0.99700  1.0000
  H   H119      1.0  0.10861  0.32908  0.42766  1.0000
  C   C105      1.0  0.49326  0.30681  0.98725  1.0000
  Fe  Fe13      1.0  0.09616  0.30047  0.95345  1.0000
  H   H120      1.0  0.26646  0.24698  0.91837  1.0000
  Fe  Fe14      1.0  0.14640  0.27725  0.96326  1.0000
  S   S25       1.0  0.18556  0.28628  0.95245  1.0000
  Fe  Fe15      1.0  0.10266  0.24623  0.95160  1.0000
  S   S26       1.0  0.07837  0.21722  0.93074  1.0000
  S   S27       1.0  0.11835  0.27543  0.91857  1.0000
  Fe  Fe16      1.0  0.05765  0.11686  0.79278  1.0000
  S   S28       1.0  0.03466  0.14179  0.76012  1.0000
  S   S29       1.0  0.09138  0.13289  0.81505  1.0000
  Fe  Fe17      1.0  0.02537  0.07426  0.77764  1.0000
  H   H121      1.0  0.04295  0.22661  0.86573  1.0000
  S   S30       1.0  0.01978  0.03468  0.79135  1.0000
  Fe  Fe18      1.0  0.03263  0.11201  0.71991  1.0000
  S   S31       1.0  0.03771  0.11608  0.65932  1.0000
  C   C106      1.0  0.41951  0.19933  0.67551  1.0000
  S   S32       1.0  0.05808  0.08768  0.75036  1.0000
  S   S33       1.0  0.02727  0.10170  0.82340  1.0000
  S   S34       1.0  0.37291  0.28419  0.90699  1.0000
  H   H122      1.0  0.02242  0.19176  0.84064  1.0000
  Fe  Fe19      1.0  0.37098  0.22873  0.53613  1.0000
  S   S35       1.0  0.34928  0.21300  0.58023  1.0000
  S   S36       1.0  0.39541  0.26007  0.54270  1.0000
  H   H123      1.0  0.45576  0.19225  0.54257  1.0000
  Fe  Fe20      1.0  0.32249  0.20409  0.53647  1.0000
  S   S37       1.0  0.28240  0.20647  0.54979  1.0000
  Fe  Fe21      1.0  0.36840  0.17850  0.56529  1.0000
  S   S38       1.0  0.38166  0.15479  0.61128  1.0000
  H   H124      1.0  0.41963  0.20408  0.70483  1.0000
  S   S39       1.0  0.39163  0.19454  0.52336  1.0000
  H   H125      1.0  0.46215  0.26772  0.53829  1.0000
  Fe  Fe22      1.0  0.10923  0.19733  0.53076  1.0000
  S   S40       1.0  0.10247  0.19495  0.59126  1.0000
  C   C107      1.0  0.25578  0.20700  0.52310  1.0000
  C   C108      1.0  0.23367  0.20424  0.54029  1.0000
  C   C109      1.0  0.23338  0.29247  0.96687  1.0000
  H   H126      1.0  0.23318  0.20230  0.56938  1.0000
  H   H127      1.0  0.49333  0.24563  0.67117  1.0000
  S   S41       1.0  0.12880  0.22868  0.50918  1.0000
  C   C110      1.0  0.37259  0.30004  0.62939  1.0000
  C   C111      1.0  0.37337  0.28328  0.60076  1.0000
  C   C112      1.0  0.39378  0.28065  0.57934  1.0000
  C   C113      1.0  0.41338  0.29490  0.58683  1.0000
  C   C114      1.0  0.05405  0.33019  0.89720  1.0000
  C   C115      1.0  0.42907  0.07126  0.62325  1.0000
  H   H128      1.0  0.35806  0.27265  0.59496  1.0000
  H   H129      1.0  0.42914  0.29315  0.57017  1.0000
  C   C116      1.0  0.43715  0.09777  0.56121  1.0000
  C   C117      1.0  0.46148  0.13962  0.63081  1.0000
  C   C118      1.0  0.44481  0.13359  0.65694  1.0000
  C   C119      1.0  0.42032  0.13806  0.65048  1.0000
  C   C120      1.0  0.41244  0.14890  0.61822  1.0000
  C   C121      1.0  0.42917  0.15502  0.59231  1.0000
  C   C122      1.0  0.45355  0.15033  0.59858  1.0000
  H   H130      1.0  0.45072  0.12545  0.68196  1.0000
  H   H131      1.0  0.40743  0.13322  0.67061  1.0000
  H   H132      1.0  0.42331  0.16293  0.56714  1.0000
  H   H133      1.0  0.46636  0.15463  0.57805  1.0000
  C   C123      1.0  0.38674  0.30861  0.88676  1.0000
  C   C124      1.0  0.39461  0.30633  0.85081  1.0000
  H   H134      1.0  0.42502  0.06142  0.64733  1.0000
  H   H135      1.0  0.39176  0.28996  0.83590  1.0000
  C   C125      1.0  0.41266  0.31158  0.61563  1.0000
  C   C126      1.0  0.08226  0.17429  0.60839  1.0000
  C   C127      1.0  0.07513  0.15471  0.58781  1.0000
  C   C128      1.0  0.06085  0.13739  0.60346  1.0000
  C   C129      1.0  0.05363  0.13944  0.63979  1.0000
  C   C130      1.0  0.06011  0.15943  0.66001  1.0000
  C   C131      1.0  0.07439  0.17676  0.64436  1.0000
  H   H136      1.0  0.08107  0.15260  0.56008  1.0000
  H   H137      1.0  0.05583  0.12203  0.58756  1.0000
  H   H138      1.0  0.05435  0.16138  0.68780  1.0000
  H   H139      1.0  0.07968  0.19198  0.66031  1.0000
  H   H140      1.0  0.49490  0.27913  0.61553  1.0000
  H   H141      1.0  0.43889  0.23237  0.52842  1.0000
  H   H142      1.0  0.03482  0.02358  0.71630  1.0000
  C   C132      1.0  0.41411  0.09629  0.57467  1.0000
  H   H143      1.0  0.47868  0.29343  0.57942  1.0000
  C   C133      1.0  0.04931  0.31732  0.83477  1.0000
  H   H144      1.0  0.41294  0.32275  0.80659  1.0000
  H   H145      1.0  0.43161  0.28793  0.91478  1.0000
  C   C134      1.0  0.08317  0.19357  0.89922  1.0000
  C   C135      1.0  0.06410  0.17872  0.89146  1.0000
  C   C136      1.0  0.06645  0.16018  0.86571  1.0000
  C   C137      1.0  0.08804  0.15614  0.84758  1.0000
  C   C138      1.0  0.10723  0.17088  0.85542  1.0000
  C   C139      1.0  0.10477  0.18966  0.88100  1.0000
  H   H146      1.0  0.04737  0.18158  0.90544  1.0000
  H   H147      1.0  0.05160  0.14888  0.86003  1.0000
  H   H148      1.0  0.12403  0.16780  0.84162  1.0000
  H   H149      1.0  0.11959  0.20098  0.88673  1.0000
  H   H150      1.0  0.06678  0.21892  0.83525  1.0000
  C   C140      1.0  0.25923  0.26001  0.89962  1.0000
  H   H151      1.0  0.45109  0.32355  0.88758  1.0000
  C   C141      1.0  0.02877  0.19666  0.81326  1.0000
  C   C142      1.0  0.47036  0.25061  0.54507  1.0000
  H   H152      1.0  0.45737  0.06648  0.68349  1.0000
  C   C143      1.0  0.43285  0.23919  0.66254  1.0000
  H   H153      1.0  0.40535  0.18612  0.67112  1.0000
  H   H154      1.0  0.02887  0.22298  0.75210  1.0000
  H   H155      1.0  0.11382  0.30042  0.53453  1.0000
  C   C144      1.0  0.00974  0.22379  0.93747  1.0000
  H   H156      1.0  0.35664  0.30213  0.64564  1.0000
  H   H157      1.0  0.29284  0.15426  0.49660  1.0000
  C   C145      1.0  0.39020  0.22905  0.65815  1.0000
  H   H158      1.0  0.02951  0.12767  0.92080  1.0000
  H   H159      1.0  0.02586  0.27159  0.80471  1.0000
  N   N8        1.0  0.29952  0.27841  0.88862  1.0000
  H   H160      1.0  0.38514  0.24383  0.63951  1.0000
  H   H161      1.0  0.23150  0.30749  0.94879  1.0000
  H   H162      1.0  0.39216  0.08247  0.61639  1.0000
  H   H163      1.0  0.19548  0.20108  0.53382  1.0000
  H   H164      1.0  0.49523  0.29833  0.91217  1.0000
  N   N9        1.0  0.41543  0.22088  0.65296  1.0000
  H   H165      1.0  0.20418  0.27676  0.86835  1.0000
  C   C146      1.0  0.12135  0.30242  0.50778  1.0000
  H   H166      1.0  0.02307  0.28787  0.98448  1.0000
  H   H167      1.0  0.03965  0.23822  0.49350  1.0000
  C   C147      1.0  0.06160  0.31592  0.86793  1.0000
  C   C148      1.0  0.46627  0.20783  0.54745  1.0000
  C   C149      1.0  0.02187  0.00772  0.76490  1.0000
  C   C150      1.0  0.00977  0.23727  0.81497  1.0000
  S   S42       1.0  0.49238  0.13399  0.63623  1.0000
  C   C151      1.0  0.14263  0.29020  0.49851  1.0000
  H   H168      1.0  0.48878  0.06108  0.68330  1.0000
  C   C152      1.0  0.47378  0.06968  0.66785  1.0000
  H   H169      1.0  0.05450  0.24868  0.83607  1.0000
  C   C153      1.0  0.47796  0.28993  0.91791  1.0000
  C   C154      1.0  0.45681  0.23043  0.53941  1.0000
  H   H170      1.0  0.32483  0.30346  0.90922  1.0000
  H   H171      1.0  0.01584  0.19015  0.79276  1.0000
  C   C155      1.0  0.31219  0.27415  0.85384  1.0000
  C   C156      1.0  0.03022  0.27022  0.91723  1.0000
  H   H172      1.0  0.39943  0.10598  0.56166  1.0000
  H   H173      1.0  0.48383  0.02457  0.64539  1.0000
  H   H174      1.0  0.27119  0.30716  0.84532  1.0000
  C   C157      1.0  0.01062  0.12143  0.97034  1.0000
  C   C158      1.0  0.41007  0.08308  0.60563  1.0000
  Fe  Fe23      1.0  0.00384  0.12537  0.78845  1.0000
  H   H175      1.0  0.29546  0.30679  0.92794  1.0000
  H   H176      1.0  0.05832  0.21538  0.76844  1.0000
  C   C159      1.0  0.39220  0.31424  0.63701  1.0000
  H   H177      1.0  0.46708  0.02669  0.60370  1.0000
  S   S43       1.0  0.34017  0.16819  0.52525  1.0000
  H   H178      1.0  0.05584  0.30703  0.81173  1.0000
  H   H179      1.0  0.22392  0.24703  0.90797  1.0000
  C   C160      1.0  0.42594  0.26315  0.67136  1.0000
  C   C161      1.0  0.26154  0.29372  0.85937  1.0000
  Fe  Fe24      1.0  0.36541  0.28091  0.96716  1.0000
  H   H180      1.0  0.43657  0.18960  0.66908  1.0000
  H   H181      1.0  0.02618  0.26921  0.88780  1.0000
  C   C162      1.0  0.25644  0.14900  0.50820  1.0000
  H   H182      1.0  0.37760  0.21457  0.65202  1.0000
  H   H183      1.0  0.44024  0.10856  0.53758  1.0000
  C   C163      1.0  0.27347  0.27723  0.88271  1.0000
  H   H184      1.0  0.38679  0.23505  0.68652  1.0000
  C   C164      1.0  0.46704  0.27372  0.68032  1.0000
  H   H185      1.0  0.02811  0.22347  0.94646  1.0000
  C   C165      1.0  0.45770  0.23346  0.66211  1.0000
  H   H186      1.0  0.22802  0.30650  0.83678  1.0000
  N   N10       1.0  0.03209  0.22275  0.81014  1.0000
  N   N11       1.0  0.12043  0.12751  0.70844  1.0000
  C   C166      1.0  0.10671  0.11503  0.67996  1.0000
  C   C167      1.0  0.12577  0.11003  0.73759  1.0000
  C   C168      1.0  0.10517  0.14695  0.72439  1.0000
  C   C169      1.0  0.14191  0.13778  0.69235  1.0000
  C   C170      1.0  0.16541  0.13242  0.70510  1.0000
  C   C171      1.0  0.13964  0.15398  0.66309  1.0000
  C   C172      1.0  0.18524  0.14254  0.68911  1.0000
  C   C173      1.0  0.15952  0.16396  0.64733  1.0000
  C   C174      1.0  0.18230  0.15824  0.66027  1.0000
  H   H187      1.0  0.11761  0.10036  0.66710  1.0000
  H   H188      1.0  0.09025  0.10719  0.69092  1.0000
  H   H189      1.0  0.10056  0.12710  0.65798  1.0000
  H   H190      1.0  0.13691  0.09461  0.72753  1.0000
  H   H191      1.0  0.10916  0.10265  0.74877  1.0000
  H   H192      1.0  0.13476  0.11849  0.76114  1.0000
  H   H193      1.0  0.10019  0.16088  0.70445  1.0000
  H   H194      1.0  0.08824  0.14008  0.73520  1.0000
  H   H195      1.0  0.11439  0.15593  0.74726  1.0000
  H   H196      1.0  0.16895  0.12051  0.72740  1.0000
  H   H197      1.0  0.12241  0.15919  0.65206  1.0000
  H   H198      1.0  0.20302  0.13822  0.69917  1.0000
  H   H199      1.0  0.15710  0.17624  0.62493  1.0000
  H   H200      1.0  0.19769  0.16604  0.64795  1.0000
  H   H201      1.0  0.30602  0.24196  0.90551  1.0000
  H   H202      1.0  0.01107  0.25060  0.50710  1.0000
  H   H203      1.0  0.46431  0.21578  0.65451  1.0000
  C   C175      1.0  0.21223  0.20353  0.52016  1.0000
  C   C176      1.0  0.45284  0.07258  0.61053  1.0000
  C   C177      1.0  0.45634  0.08628  0.57886  1.0000
  H   H204      1.0  0.48140  0.27315  0.93325  1.0000
  C   C178      1.0  0.04978  0.22964  0.83792  1.0000
  S   S44       1.0  0.12909  0.17023  0.49596  1.0000
  C   C179      1.0  0.30901  0.26055  0.91485  1.0000
  H   H205      1.0  0.30782  0.25651  0.84191  1.0000
  H   H206      1.0  0.40756  0.26951  0.67141  1.0000
  C   C180      1.0  0.23461  0.25974  0.89381  1.0000
  H   H207      1.0  0.47642  0.08926  0.66800  1.0000
  H   H208      1.0  0.43704  0.29828  0.68605  1.0000
  H   H209      1.0  0.04574  0.18619  0.80875  1.0000
  C   C181      1.0  0.48922  0.20533  0.56171  1.0000
  C   C182      1.0  0.49406  0.24872  0.55855  1.0000
  H   H210      1.0  0.04369  0.25596  0.92371  1.0000
  H   H211      1.0  0.07747  0.30455  0.87043  1.0000
  H   H212      1.0  0.00935  0.18534  0.93672  1.0000
  H   H213      1.0  0.03934  0.28724  0.92250  1.0000
  C   C183      1.0  0.21334  0.27883  0.97422  1.0000
  C   C184      1.0  0.41847  0.21415  0.61436  1.0000
  H   H214      1.0  0.25932  0.15023  0.53722  1.0000
  H   H215      1.0  0.41672  0.23012  0.59675  1.0000
  H   H216      1.0  0.40482  0.20143  0.60531  1.0000
  H   H217      1.0  0.30150  0.31677  0.88296  1.0000
  C   C185      1.0  0.22341  0.27656  0.87151  1.0000
  H   H218      1.0  0.45242  0.03011  0.64669  1.0000
  H   H219      1.0  0.43617  0.20546  0.60903  1.0000
  S   S45       1.0  0.07903  0.20234  0.49183  1.0000
  H   H220      1.0  0.15076  0.27925  0.51934  1.0000
  C   C186      1.0  0.30549  0.30238  0.90272  1.0000
  N   N12       1.0  0.00821  0.26876  0.93911  1.0000
  C   C187      1.0  0.23346  0.14671  0.49462  1.0000
  H   H221      1.0  0.44013  0.27881  0.95970  1.0000
  H   H222      1.0  0.32861  0.26181  0.91832  1.0000
  C   C188      1.0  0.44285  0.28004  0.67997  1.0000
  C   C189      1.0  0.03001  0.00715  0.72909  1.0000
  H   H223      1.0  0.17543  0.25115  0.49317  1.0000
  H   H224      1.0  0.30763  0.28801  0.83345  1.0000
  C   C190      1.0  0.23686  0.29342  0.85409  1.0000
  H   H225      1.0  0.33194  0.27436  0.85750  1.0000
  H   H226      1.0  0.30094  0.26325  0.94222  1.0000
  N   N13       1.0  0.47269  0.06033  0.63025  1.0000
  C   C191      1.0  0.46878  0.03431  0.63149  1.0000
  H   H227      1.0  0.47050  0.28465  0.89109  1.0000
  H   H228      1.0  0.04763  0.24561  0.77012  1.0000
  H   H229      1.0  0.42779  0.32253  0.62108  1.0000
  H   H230      1.0  0.42395  0.30644  0.95234  1.0000
  C   C192      1.0  0.40659  0.32491  0.83410  1.0000
  S   S46       1.0  0.34288  0.22283  0.49322  1.0000
  C   C193      1.0  0.01225  0.12748  0.93395  1.0000
  H   H231      1.0  0.47999  0.28703  0.68726  1.0000
  C   C194      1.0  0.00970  0.26245  0.81077  1.0000
  C   C195      1.0  0.04213  0.22693  0.77369  1.0000
  C   C196      1.0  0.47448  0.25046  0.67127  1.0000
  C   C197      1.0  0.99914  0.20180  0.93215  1.0000
  H   H232      1.0  0.49295  0.28905  0.51659  1.0000
  S   S47       1.0  0.07920  0.27156  0.98426  1.0000
  H   H233      1.0  0.07204  0.00750  0.82046  1.0000
  H   H234      1.0  0.47376  0.08892  0.56759  1.0000
  H   H235      1.0  0.19163  0.27774  0.50405  1.0000
  H   H236      1.0  0.21851  0.14592  0.51300  1.0000
  H   H237      1.0  0.49655  0.18769  0.56811  1.0000
  S   S48       1.0  0.99955  0.09726  0.74481  1.0000
  C   C198      1.0  0.43837  0.29444  0.94139  1.0000
  H   H238      1.0  0.00227  0.30694  0.93435  1.0000
  H   H239      1.0  0.27094  0.29769  0.97699  1.0000
  C   C199      1.0  0.25590  0.28679  0.98244  1.0000
  C   C200      1.0  0.01466  0.27058  0.97798  1.0000
  N   N14       1.0  0.46137  0.30654  0.93780  1.0000
  C   C201      1.0  0.45762  0.32809  0.91526  1.0000
  S   S49       1.0  0.34981  0.24645  0.98510  1.0000
  C   C202      1.0  0.39040  0.32992  0.90569  1.0000
  C   C203      1.0  0.47021  0.31372  0.97403  1.0000
  C   C204      1.0  0.99676  0.24569  0.93226  1.0000
  H   H240      1.0  0.09244  0.32541  0.48939  1.0000
  C   C205      1.0  0.49643  0.06360  0.61366  1.0000
  H   H241      1.0  0.02674  0.11703  0.98548  1.0000
  H   H242      1.0  0.02770  0.25625  0.98623  1.0000
  C   C206      1.0  0.01159  0.65222  0.04929  1.0000
  C   C207      1.0  0.05945  0.45536  0.33995  1.0000
  S   S50       1.0  0.39234  0.63531  0.41660  1.0000
  C   C208      1.0  0.12004  0.65082  0.28502  1.0000
  S   S51       1.0  0.47848  0.64448  0.30687  1.0000
  C   C209      1.0  0.01149  0.48325  0.27145  1.0000
  H   H243      1.0  0.08262  0.65156  0.21280  1.0000
  C   C210      1.0  0.10219  0.45706  0.33410  1.0000
  Fe  Fe25      1.0  0.02830  0.56722  0.20146  1.0000
  H   H244      1.0  0.48833  0.46546  0.29913  1.0000
  S   S52       1.0  0.02637  0.52738  0.18695  1.0000
  Fe  Fe26      1.0  0.05085  0.61446  0.17751  1.0000
  S   S53       1.0  0.03142  0.63624  0.22003  1.0000
  H   H245      1.0  0.02104  0.62511  0.42697  1.0000
  Fe  Fe27      1.0  0.04086  0.60583  0.25724  1.0000
  S   S54       1.0  0.05769  0.60595  0.31329  1.0000
  H   H246      1.0  0.11433  0.63332  0.29551  1.0000
  S   S55       1.0  0.06238  0.58519  0.21561  1.0000
  S   S56       1.0  0.01884  0.59464  0.15869  1.0000
  Fe  Fe28      1.0  0.02623  0.35417  0.21798  1.0000
  S   S57       1.0  0.05092  0.37748  0.24940  1.0000
  H   H247      1.0  0.14585  0.63492  0.22635  1.0000
  H   H248      1.0  0.45244  0.34726  0.04821  1.0000
  S   S58       1.0  0.01657  0.36866  0.32022  1.0000
  Fe  Fe29      1.0  0.01745  0.39449  0.27304  1.0000
  C   C211      1.0  0.08817  0.65182  0.24173  1.0000
  Fe  Fe30      1.0  0.04799  0.35001  0.29339  1.0000
  H   H249      1.0  0.10351  0.46710  0.36008  1.0000
  H   H250      1.0  0.49079  0.41756  0.37285  1.0000
  C   C212      1.0  0.02193  0.50195  0.21457  1.0000
  C   C213      1.0  0.02514  0.47897  0.19924  1.0000
  C   C214      1.0  0.02183  0.45827  0.21992  1.0000
  C   C215      1.0  0.38766  0.65348  0.29356  1.0000
  C   C216      1.0  0.01501  0.46025  0.25626  1.0000
  H   H251      1.0  0.39622  0.64874  0.31975  1.0000
  H   H252      1.0  0.03044  0.47713  0.17119  1.0000
  H   H253      1.0  0.02466  0.44077  0.20775  1.0000
  H   H254      1.0  0.06894  0.55576  0.28515  1.0000
  C   C217      1.0  0.42438  0.66003  0.37625  1.0000
  H   H255      1.0  0.07761  0.50008  0.36246  1.0000
  C   C218      1.0  0.07678  0.65922  0.12391  1.0000
  H   H256      1.0  0.37995  0.63711  0.28174  1.0000
  H   H257      1.0  0.48379  0.63432  0.45426  1.0000
  H   H258      1.0  0.06132  0.44783  0.26835  1.0000
  H   H259      1.0  0.04188  0.46148  0.32880  1.0000
  H   H260      1.0  0.09332  0.44878  0.26430  1.0000
  C   C219      1.0  0.44118  0.34440  0.13719  1.0000
  C   C220      1.0  0.41816  0.34594  0.12171  1.0000
  H   H261      1.0  0.05860  0.43571  0.34372  1.0000
  H   H262      1.0  0.07983  0.42647  0.29099  1.0000
  H   H263      1.0  0.44706  0.35826  0.15538  1.0000
  H   H264      1.0  0.40640  0.36106  0.12813  1.0000
  C   C221      1.0  0.41726  0.63774  0.38790  1.0000
  C   C222      1.0  0.42958  0.61707  0.37531  1.0000
  C   C223      1.0  0.44878  0.61867  0.35098  1.0000
  C   C224      1.0  0.45536  0.64098  0.33851  1.0000
  H   H265      1.0  0.10484  0.43780  0.34070  1.0000
  C   C225      1.0  0.07131  0.53690  0.29094  1.0000
  H   H266      1.0  0.42417  0.59974  0.38426  1.0000
  H   H267      1.0  0.45815  0.60267  0.34139  1.0000
  C   C226      1.0  0.07664  0.48746  0.30635  1.0000
  H   H268      1.0  0.29613  0.65239  0.38597  1.0000
  N   N15       1.0  0.07910  0.46179  0.31544  1.0000
  S   S59       1.0  0.00733  0.58618  0.24535  1.0000
  C   C227      1.0  0.00772  0.65258  0.48381  1.0000
  C   C228      1.0  0.06710  0.63156  0.33684  1.0000
  C   C229      1.0  0.08184  0.62864  0.36739  1.0000
  H   H269      1.0  0.40256  0.65873  0.27579  1.0000
  H   H270      1.0  0.06986  0.52612  0.23505  1.0000
  H   H271      1.0  0.08724  0.61086  0.37597  1.0000
  H   H272      1.0  0.10158  0.64608  0.40991  1.0000
  C   C230      1.0  0.02191  0.64470  0.42269  1.0000
  H   H273      1.0  0.47255  0.42867  0.31226  1.0000
  S   S60       1.0  0.07861  0.62967  0.14035  1.0000
  C   C231      1.0  0.08992  0.64856  0.38675  1.0000
  H   H274      1.0  0.05242  0.63001  0.47379  1.0000
  C   C232      1.0  0.06021  0.65460  0.32601  1.0000
  N   N16       1.0  0.02667  0.65741  0.45724  1.0000
  H   H275      1.0  0.03894  0.33471  0.08362  1.0000
  C   C233      1.0  0.01494  0.50396  0.25083  1.0000
  H   H276      1.0  0.12186  0.61588  0.23815  1.0000
  C   C234      1.0  0.07843  0.44565  0.28330  1.0000
  H   H277      1.0  0.00624  0.48509  0.29951  1.0000
  H   H278      1.0  0.12028  0.63221  0.19732  1.0000
  H   H279      1.0  0.08165  0.63517  0.25397  1.0000
  H   H280      1.0  0.13954  0.65173  0.29014  1.0000
  C   C235      1.0  0.07616  0.50504  0.33433  1.0000
  C   C236      1.0  0.46388  0.33607  0.03097  1.0000
  C   C237      1.0  0.07194  0.52018  0.26281  1.0000
  H   H281      1.0  0.36457  0.63322  0.34364  1.0000
  C   C238      1.0  0.05085  0.64964  0.46961  1.0000
  H   H282      1.0  0.49156  0.42841  0.27256  1.0000
  H   H283      1.0  0.03619  0.64754  0.40241  1.0000
  H   H284      1.0  0.01297  0.63982  0.07166  1.0000
  H   H285      1.0  0.06488  0.65416  0.44987  1.0000
  H   H286      1.0  0.07411  0.48389  0.24704  1.0000
  H   H287      1.0  0.04851  0.65705  0.30292  1.0000
  S   S61       1.0  0.02856  0.34616  0.15770  1.0000
  C   C239      1.0  0.33033  0.64041  0.36522  1.0000
  H   H288      1.0  0.06105  0.46346  0.36735  1.0000
  C   C240      1.0  0.07448  0.49579  0.27019  1.0000
  C   C241      1.0  0.12614  0.63336  0.22610  1.0000
  H   H289      1.0  0.11736  0.46227  0.31684  1.0000
  C   C242      1.0  0.48424  0.64731  0.43166  1.0000
  C   C243      1.0  0.07346  0.52936  0.32661  1.0000
  H   H290      1.0  0.00488  0.65080  0.40989  1.0000
  H   H291      1.0  0.07283  0.54253  0.34834  1.0000
  H   H292      1.0  0.46986  0.64260  0.41236  1.0000
  H   H293      1.0  0.33164  0.62506  0.38286  1.0000
  C   C244      1.0  0.48867  0.42017  0.29950  1.0000
  N   N17       1.0  0.11429  0.65362  0.24593  1.0000
  H   H294      1.0  0.01238  0.52144  0.26313  1.0000
  S   S62       1.0  0.08109  0.33294  0.31913  1.0000
  H   H295      1.0  0.10803  0.65425  0.09049  1.0000
  C   C245      1.0  0.31032  0.65574  0.36700  1.0000
  H   H296      1.0  0.48448  0.40120  0.29395  1.0000
  C   C246      1.0  0.44292  0.66156  0.35101  1.0000
  S   S63       1.0  0.01207  0.43478  0.28448  1.0000
  C   C247      1.0  0.34930  0.64541  0.34232  1.0000
  Fe  Fe31      1.0  0.99993  0.61462  0.20353  1.0000
  H   H297      1.0  0.49260  0.33468  0.06966  1.0000
  H   H298      1.0  0.43811  0.33472  0.98887  1.0000
  H   H299      1.0  0.99796  0.62770  0.56707  1.0000
  C   C248      1.0  0.40225  0.34858  0.88886  1.0000
  H   H300      1.0  0.38421  0.33197  0.93329  1.0000
  C   C249      1.0  0.41749  0.64425  0.58467  1.0000
  H   H301      1.0  0.42910  0.41498  0.79321  1.0000
  C   C250      1.0  0.03481  0.44298  0.81600  1.0000
  H   H302      1.0  0.05558  0.65874  0.49528  1.0000
  Fe  Fe32      1.0  0.43779  0.36769  0.77456  1.0000
  S   S64       1.0  0.41244  0.38554  0.73570  1.0000
  S   S65       1.0  0.42769  0.36883  0.83435  1.0000
  Fe  Fe33      1.0  0.47394  0.35654  0.71363  1.0000
  S   S66       1.0  0.45084  0.37451  0.67118  1.0000
  H   H303      1.0  0.05687  0.37727  0.80380  1.0000
  Fe  Fe34      1.0  0.44448  0.40372  0.71373  1.0000
  S   S67       1.0  0.43876  0.44403  0.70268  1.0000
  Fe  Fe35      1.0  0.42115  0.35504  0.69759  1.0000
  H   H304      1.0  0.45950  0.66051  0.48948  1.0000
  S   S68       1.0  0.46975  0.38692  0.75432  1.0000
  S   S69       1.0  0.01567  0.33524  0.78786  1.0000
  Fe  Fe36      1.0  0.44494  0.62122  0.70514  1.0000
  S   S70       1.0  0.42120  0.59866  0.73881  1.0000
  S   S71       1.0  0.43855  0.62332  0.64425  1.0000
  Fe  Fe37      1.0  0.47706  0.63274  0.77050  1.0000
  S   S72       1.0  0.45547  0.61116  0.80857  1.0000
  H   H305      1.0  0.02023  0.45243  0.80058  1.0000
  Fe  Fe38      1.0  0.45496  0.58324  0.76353  1.0000
  S   S73       1.0  0.46497  0.54408  0.77698  1.0000
  Fe  Fe39      1.0  0.42371  0.62825  0.78040  1.0000
  H   H306      1.0  0.42847  0.65566  0.85417  1.0000
  S   S74       1.0  0.47871  0.60409  0.72731  1.0000
  S   S75       1.0  0.38992  0.64510  0.80466  1.0000
  S   S76       1.0  0.44523  0.65158  0.74496  1.0000
  C   C251      1.0  0.45876  0.51676  0.75384  1.0000
  C   C252      1.0  0.44160  0.51543  0.72638  1.0000
  C   C253      1.0  0.43619  0.49314  0.71064  1.0000
  C   C254      1.0  0.44787  0.47181  0.72184  1.0000
  C   C255      1.0  0.46559  0.47325  0.74852  1.0000
  C   C256      1.0  0.47081  0.49551  0.76457  1.0000
  H   H307      1.0  0.43217  0.53152  0.71767  1.0000
  H   H308      1.0  0.42261  0.49240  0.68984  1.0000
  H   H309      1.0  0.47512  0.45717  0.75706  1.0000
  C   C257      1.0  0.02271  0.40631  0.78909  1.0000
  H   H310      1.0  0.03795  0.40610  0.76989  1.0000
  H   H311      1.0  0.05132  0.44347  0.79944  1.0000
  H   H312      1.0  0.39009  0.40714  0.81523  1.0000
  H   H313      1.0  0.40525  0.36493  0.90375  1.0000
  H   H314      1.0  0.39826  0.64111  0.68855  1.0000
  H   H315      1.0  0.08819  0.35783  0.83879  1.0000
  C   C258      1.0  0.02914  0.33259  0.83088  1.0000
  H   H316      1.0  0.37495  0.45545  0.77997  1.0000
  C   C259      1.0  0.42486  0.64763  0.62071  1.0000
  C   C260      1.0  0.07935  0.37388  0.84946  1.0000
  H   H317      1.0  0.40348  0.45728  0.75850  1.0000
  H   H318      1.0  0.03774  0.45370  0.84096  1.0000
  H   H319      1.0  0.42096  0.62719  0.57145  1.0000
  H   H320      1.0  0.03011  0.63523  0.52570  1.0000
  H   H321      1.0  0.38851  0.45438  0.88317  1.0000
  H   H322      1.0  0.36494  0.61833  0.74208  1.0000
  C   C261      1.0  0.04682  0.63028  0.60192  1.0000
  C   C262      1.0  0.03247  0.63142  0.63312  1.0000
  H   H323      1.0  0.39890  0.65950  0.53847  1.0000
  H   H324      1.0  0.39986  0.41849  0.85744  1.0000
  S   S77       1.0  0.44434  0.33597  0.73831  1.0000
  H   H325      1.0  0.04554  0.61525  0.58351  1.0000
  H   H326      1.0  0.02025  0.61738  0.63858  1.0000
  H   H327      1.0  0.41036  0.52651  0.88430  1.0000
  C   C263      1.0  0.41069  0.34603  0.85318  1.0000
  H   H328      1.0  0.01714  0.38765  0.79320  1.0000
  H   H329      1.0  0.37227  0.43006  0.83717  1.0000
  C   C264      1.0  0.02087  0.34594  0.86066  1.0000
  C   C265      1.0  0.40494  0.66253  0.56593  1.0000
  C   C266      1.0  0.06117  0.38535  0.82957  1.0000
  H   H330      1.0  0.04722  0.42990  0.89049  1.0000
  H   H331      1.0  0.09886  0.37264  0.89965  1.0000
  H   H332      1.0  0.39023  0.42932  0.76188  1.0000
  N   N18       1.0  0.02868  0.41805  0.82401  1.0000
  H   H333      1.0  0.48417  0.49621  0.78568  1.0000
  H   H334      1.0  0.43953  0.44435  0.78946  1.0000
  H   H335      1.0  0.43869  0.43038  0.83296  1.0000
  C   C267      1.0  0.04863  0.40588  0.84358  1.0000
  N   N19       1.0  0.36050  0.64404  0.69916  1.0000
  C   C268      1.0  0.39669  0.46853  0.86858  1.0000
  H   H336      1.0  0.44422  0.34089  0.92714  1.0000
  H   H337      1.0  0.02754  0.35599  0.91626  1.0000
  C   C269      1.0  0.40898  0.50959  0.87012  1.0000
  H   H338      1.0  0.39158  0.49256  0.91411  1.0000
  C   C270      1.0  0.03349  0.34497  0.89362  1.0000
  H   H339      1.0  0.37003  0.62013  0.57848  1.0000
  C   C271      1.0  0.41794  0.50695  0.83517  1.0000
  C   C272      1.0  0.39840  0.49043  0.88680  1.0000
  H   H340      1.0  0.35034  0.65741  0.75218  1.0000
  S   S78       1.0  0.08098  0.64560  0.55544  1.0000
  H   H341      1.0  0.32596  0.65334  0.72154  1.0000
  S   S79       1.0  0.01859  0.65128  0.69905  1.0000
  C   C273      1.0  0.41624  0.48520  0.81673  1.0000
  H   H342      1.0  0.37357  0.60721  0.69878  1.0000
  H   H343      1.0  0.00878  0.42938  0.87176  1.0000
  H   H344      1.0  0.00768  0.41586  0.77507  1.0000
  H   H345      1.0  0.34245  0.61147  0.70891  1.0000
  H   H346      1.0  0.42361  0.48403  0.78981  1.0000
  C   C274      1.0  0.03482  0.65012  0.65804  1.0000
  C   C275      1.0  0.06312  0.64813  0.59479  1.0000
  S   S80       1.0  0.39026  0.33483  0.67360  1.0000
  H   H347      1.0  0.42638  0.52180  0.82221  1.0000
  N   N20       1.0  0.40439  0.44241  0.81262  1.0000
  C   C276      1.0  0.42897  0.43270  0.80685  1.0000
  C   C277      1.0  0.39096  0.42391  0.83166  1.0000
  C   C278      1.0  0.39274  0.44634  0.77689  1.0000
  C   C279      1.0  0.40548  0.46533  0.83272  1.0000
  C   C280      1.0  0.05579  0.41432  0.87819  1.0000
  H   H348      1.0  0.07848  0.40877  0.92488  1.0000
  C   C281      1.0  0.08544  0.38224  0.88376  1.0000
  C   C282      1.0  0.07379  0.40250  0.89802  1.0000
  C   C283      1.0  0.36030  0.61920  0.71270  1.0000
  H   H349      1.0  0.00247  0.40011  0.85505  1.0000
  C   C284      1.0  0.01239  0.64106  0.51741  1.0000
  C   C285      1.0  0.34193  0.64663  0.58563  1.0000
  H   H350      1.0  0.33791  0.64770  0.55696  1.0000
  C   C286      1.0  0.35339  0.64473  0.66051  1.0000
  C   C287      1.0  0.38494  0.65290  0.70273  1.0000
  C   C288      1.0  0.33499  0.66040  0.64717  1.0000
  C   C289      1.0  0.35994  0.63104  0.59782  1.0000
  H   H351      1.0  0.38077  0.61867  0.64232  1.0000
  C   C290      1.0  0.32950  0.66128  0.61021  1.0000
  C   C291      1.0  0.36582  0.63022  0.63459  1.0000
  C   C292      1.0  0.00692  0.41845  0.84677  1.0000
  H   H352      1.0  0.00514  0.35744  0.85803  1.0000
  H   H353      1.0  0.39080  0.65387  0.73141  1.0000
  C   C293      1.0  0.34477  0.65894  0.72322  1.0000
  H   H354      1.0  0.47443  0.33786  0.91212  1.0000
  S   S81       1.0  0.07032  0.33067  0.93810  1.0000
  Fe  Fe40      1.0  0.48179  0.86219  0.27331  1.0000
  S   S82       1.0  0.46397  0.88351  0.31761  1.0000
  S   S83       1.0  0.28792  0.70003  0.43732  1.0000
  Fe  Fe41      1.0  0.44139  0.87357  0.21957  1.0000
  S   S84       1.0  0.42048  0.89532  0.26105  1.0000
  S   S85       1.0  0.42829  0.87317  0.16102  1.0000
  Fe  Fe42      1.0  0.45554  0.91151  0.27520  1.0000
  S   S86       1.0  0.46043  0.95080  0.29195  1.0000
  Fe  Fe43      1.0  0.43065  0.86555  0.29945  1.0000
  S   S87       1.0  0.40625  0.85154  0.34313  1.0000
  S   S88       1.0  0.47616  0.89120  0.23198  1.0000
  S   S89       1.0  0.44888  0.84273  0.25696  1.0000
  S   S90       1.0  0.39799  0.69814  0.45918  1.0000
  Fe  Fe44      1.0  0.32807  0.69974  0.45199  1.0000
  S   S91       1.0  0.09305  0.69718  0.39900  1.0000
  Fe  Fe45      1.0  0.37493  0.72340  0.42635  1.0000
  S   S92       1.0  0.39476  0.74182  0.38099  1.0000
  S   S93       1.0  0.35263  0.69426  0.40414  1.0000
  Fe  Fe46      1.0  0.37336  0.78465  0.01904  1.0000
  H   H355      1.0  0.47868  0.84923  0.42843  1.0000
  Fe  Fe47      1.0  0.10085  0.75752  0.05189  1.0000
  S   S94       1.0  0.12642  0.78051  0.08249  1.0000
  S   S95       1.0  0.07279  0.73581  0.08048  1.0000
  Fe  Fe48      1.0  0.10907  0.81085  0.05182  1.0000
  S   S96       1.0  0.09427  0.84604  0.07414  1.0000
  Fe  Fe49      1.0  0.15112  0.77616  0.03395  1.0000
  C   C294      1.0  0.26072  0.69935  0.46258  1.0000
  S   S97       1.0  0.08250  0.78835  0.02347  1.0000
  H   H356      1.0  0.04487  0.71169  0.13199  1.0000
  H   H357      1.0  0.43465  0.82677  0.40626  1.0000
  S   S98       1.0  0.38355  0.78498  0.07856  1.0000
  H   H358      1.0  0.99891  0.76497  0.99524  1.0000
  C   C295      1.0  0.08313  0.67160  0.37585  1.0000
  H   H359      1.0  0.03045  0.79214  0.07522  1.0000
  H   H360      1.0  0.44599  0.70759  0.42529  1.0000
  S   S99       1.0  0.02462  0.84869  0.20966  1.0000
  C   C296      1.0  0.43141  0.83066  0.99921  1.0000
  H   H361      1.0  0.12127  0.70649  0.14988  1.0000
  C   C297      1.0  0.07555  0.70650  0.09771  1.0000
  C   C298      1.0  0.09349  0.69027  0.08634  1.0000
  H   H362      1.0  0.45765  0.84463  0.05449  1.0000
  C   C299      1.0  0.05843  0.69904  0.12249  1.0000
  H   H363      1.0  0.10674  0.69577  0.06720  1.0000
  H   H364      1.0  0.13831  0.73785  0.18861  1.0000
  C   C300      1.0  0.31793  0.79046  0.06753  1.0000
  C   C301      1.0  0.07540  0.84657  0.11234  1.0000
  C   C302      1.0  0.05942  0.86607  0.11759  1.0000
  C   C303      1.0  0.04372  0.86684  0.14721  1.0000
  C   C304      1.0  0.04422  0.84829  0.17227  1.0000
  C   C305      1.0  0.06050  0.82897  0.16743  1.0000
  C   C306      1.0  0.07581  0.82792  0.13726  1.0000
  H   H365      1.0  0.05911  0.88062  0.09852  1.0000
  H   H366      1.0  0.03152  0.88198  0.15091  1.0000
  H   H367      1.0  0.06112  0.81461  0.18679  1.0000
  H   H368      1.0  0.08814  0.81285  0.13353  1.0000
  C   C307      1.0  0.41593  0.84837  0.13874  1.0000
  C   C308      1.0  0.40579  0.85151  0.10419  1.0000
  C   C309      1.0  0.39591  0.83224  0.08534  1.0000
  C   C310      1.0  0.39614  0.80962  0.10093  1.0000
  C   C311      1.0  0.40608  0.80651  0.13560  1.0000
  C   C312      1.0  0.41596  0.82579  0.15447  1.0000
  H   H369      1.0  0.40516  0.86908  0.09233  1.0000
  H   H370      1.0  0.38755  0.83498  0.05926  1.0000
  H   H371      1.0  0.40615  0.78909  0.14794  1.0000
  H   H372      1.0  0.42363  0.82317  0.18110  1.0000
  C   C313      1.0  0.46021  0.97833  0.26772  1.0000
  C   C314      1.0  0.26196  0.76646  0.01207  1.0000
  N   N21       1.0  0.30566  0.81191  0.08346  1.0000
  C   C315      1.0  0.45950  0.97927  0.22986  1.0000
  C   C316      1.0  0.34473  0.85850  0.12864  1.0000
  H   H373      1.0  0.45837  0.96290  0.21429  1.0000
  C   C317      1.0  0.40149  0.82093  0.35155  1.0000
  C   C318      1.0  0.38827  0.81466  0.38214  1.0000
  C   C319      1.0  0.38573  0.79054  0.39143  1.0000
  C   C320      1.0  0.39634  0.77244  0.37007  1.0000
  C   C321      1.0  0.40926  0.77870  0.33922  1.0000
  C   C322      1.0  0.41172  0.80278  0.32987  1.0000
  H   H374      1.0  0.38024  0.82857  0.39907  1.0000
  H   H375      1.0  0.37571  0.78597  0.41522  1.0000
  H   H376      1.0  0.41740  0.76482  0.32238  1.0000
  H   H377      1.0  0.42165  0.80729  0.30600  1.0000
  H   H378      1.0  0.06299  0.69233  0.33677  1.0000
  C   C323      1.0  0.26311  0.78480  0.98670  1.0000
  H   H379      1.0  0.32172  0.77627  0.08771  1.0000
  H   H380      1.0  0.14474  0.73073  0.25401  1.0000
  H   H381      1.0  0.44290  0.66889  0.45013  1.0000
  C   C324      1.0  0.49202  0.80458  0.40327  1.0000
  C   C325      1.0  0.48033  0.72035  0.35375  1.0000
  C   C326      1.0  0.35429  0.84557  0.15754  1.0000
  H   H382      1.0  0.02660  0.80434  0.32625  1.0000
  H   H383      1.0  0.22841  0.75526  0.43310  1.0000
  C   C327      1.0  0.13379  0.72092  0.20030  1.0000
  H   H384      1.0  0.20024  0.69879  0.44731  1.0000
  H   H385      1.0  0.38683  0.68931  0.34309  1.0000
  C   C328      1.0  0.30911  0.67611  0.34573  1.0000
  H   H386      1.0  0.28716  0.84341  0.06294  1.0000
  H   H387      1.0  0.44775  0.67882  0.34114  1.0000
  N   N22       1.0  0.47163  0.82014  0.39174  1.0000
  H   H388      1.0  0.01069  0.69032  0.43661  1.0000
  C   C329      1.0  0.33212  0.81131  0.13861  1.0000
  H   H389      1.0  0.35601  0.81186  0.18450  1.0000
  C   C330      1.0  0.36115  0.67983  0.26099  1.0000
  H   H390      1.0  0.41523  0.67608  0.38601  1.0000
  H   H391      1.0  0.48979  0.85294  0.38285  1.0000
  H   H392      1.0  0.47394  0.77114  0.39442  1.0000
  H   H393      1.0  0.27785  0.75591  0.01850  1.0000
  H   H394      1.0  0.13442  0.69328  0.28110  1.0000
  C   C331      1.0  0.23883  0.69912  0.44373  1.0000
  H   H395      1.0  0.00142  0.81338  0.25264  1.0000
  C   C332      1.0  0.21681  0.69887  0.46232  1.0000
  C   C333      1.0  0.12425  0.70322  0.17850  1.0000
  C   C334      1.0  0.34801  0.82203  0.16251  1.0000
  C   C335      1.0  0.32205  0.82392  0.10879  1.0000
  H   H396      1.0  0.31242  0.83279  0.03601  1.0000
  S   S100      1.0  0.35023  0.75509  0.99926  1.0000
  H   H397      1.0  0.03055  0.82772  0.29389  1.0000
  C   C336      1.0  0.13739  0.71685  0.23711  1.0000
  H   H398      1.0  0.27483  0.81990  0.11635  1.0000
  C   C337      1.0  0.02926  0.68228  0.01273  1.0000
  C   C338      1.0  0.45302  0.85903  0.03494  1.0000
  C   C339      1.0  0.46138  0.70601  0.40786  1.0000
  H   H399      1.0  0.04429  0.69332  0.00690  1.0000
  H   H400      1.0  0.03989  0.82269  0.07575  1.0000
  H   H401      1.0  0.46767  0.87195  0.03548  1.0000
  H   H402      1.0  0.32824  0.79284  0.14318  1.0000
  H   H403      1.0  0.27133  0.79565  0.08466  1.0000
  C   C340      1.0  0.28425  0.80434  0.10320  1.0000
  H   H404      1.0  0.44645  0.73372  0.37380  1.0000
  H   H405      1.0  0.99811  0.78810  0.28089  1.0000
  C   C341      1.0  0.46822  0.81714  0.35221  1.0000
  N   N23       1.0  0.44891  0.84982  0.99766  1.0000
  H   H406      1.0  0.01603  0.71791  0.08189  1.0000
  H   H407      1.0  0.41363  0.83753  0.00853  1.0000
  S   S101      1.0  0.12650  0.75064  0.00574  1.0000
  C   C342      1.0  0.29730  0.82727  0.05307  1.0000
  S   S102      1.0  0.19115  0.76529  0.03923  1.0000
  Fe  Fe50      1.0  0.10773  0.69696  0.45660  1.0000
  H   H408      1.0  0.03261  0.81187  0.01841  1.0000
  H   H409      1.0  0.00235  0.70824  0.13776  1.0000
  H   H410      1.0  0.03894  0.99171  0.22479  1.0000
  H   H411      1.0  0.46344  0.79865  0.34474  1.0000
  H   H412      1.0  0.28505  0.81773  0.03453  1.0000
  C   C343      1.0  0.23994  0.76110  0.02821  1.0000
  H   H413      1.0  0.35013  0.87668  0.12461  1.0000
  C   C344      1.0  0.22000  0.79273  0.99489  1.0000
  C   C345      1.0  0.02652  0.81034  0.08648  1.0000
  C   C346      1.0  0.32884  0.84797  0.10450  1.0000
  C   C347      1.0  0.00960  0.74129  0.03827  1.0000
  C   C348      1.0  0.45875  0.67346  0.46677  1.0000
  H   H414      1.0  0.23926  0.74655  0.04716  1.0000
  H   H415      1.0  0.00214  0.84379  0.12295  1.0000
  H   H416      1.0  0.23889  0.69914  0.41446  1.0000
  H   H417      1.0  0.36708  0.85364  0.17563  1.0000
  C   C349      1.0  0.44954  0.81350  0.41077  1.0000
  C   C350      1.0  0.99837  0.84324  0.09334  1.0000
  C   C351      1.0  0.21869  0.77395  0.01945  1.0000
  C   C352      1.0  0.00217  0.72773  0.06750  1.0000
  H   H418      1.0  0.33537  0.79510  0.05595  1.0000
  H   H419      1.0  0.32244  0.85894  0.08246  1.0000
  C   C353      1.0  0.09410  0.66673  0.09945  1.0000
  N   N24       1.0  0.00174  0.81879  0.07821  1.0000
  H   H420      1.0  0.30731  0.78228  0.04544  1.0000
  H   H421      1.0  0.02985  0.80945  0.11615  1.0000
  H   H422      1.0  0.43702  0.81608  0.01794  1.0000
  S   S103      1.0  0.12993  0.72696  0.47767  1.0000
  C   C354      1.0  0.12167  0.67660  0.23077  1.0000
  H   H423      1.0  0.45374  0.82929  0.34188  1.0000
  C   C355      1.0  0.11834  0.68138  0.19339  1.0000
  C   C356      1.0  0.01981  0.82230  0.31767  1.0000
  C   C357      1.0  0.48029  0.68892  0.41367  1.0000
  H   H424      1.0  0.02844  0.74155  0.03151  1.0000
  H   H425      1.0  0.45250  0.81241  0.44053  1.0000
  C   C358      1.0  0.46145  0.72135  0.37819  1.0000
  H   H426      1.0  0.36824  0.70945  0.31794  1.0000
  H   H427      1.0  0.44263  0.79617  0.40122  1.0000
  C   C359      1.0  0.01405  0.81526  0.01190  1.0000
  S   S104      1.0  0.13564  0.80871  0.00602  1.0000
  C   C360      1.0  0.13140  0.69508  0.25235  1.0000
  H   H428      1.0  0.43682  0.86832  0.04624  1.0000
  C   C361      1.0  0.06830  0.67454  0.34536  1.0000
  H   H429      1.0  0.28875  0.79120  0.12469  1.0000
  H   H430      1.0  0.48014  0.73201  0.33052  1.0000
  H   H431      1.0  0.48473  0.82124  0.33716  1.0000
  C   C362      1.0  0.47505  0.84591  0.39921  1.0000
  H   H432      1.0  0.45891  0.85699  0.39177  1.0000
  H   H433      1.0  0.37646  0.68306  0.24276  1.0000
  H   H434      1.0  0.04678  0.66533  0.05799  1.0000
  Fe  Fe51      1.0  0.37474  0.66953  0.43842  1.0000
  S   S105      1.0  0.34905  0.73103  0.47228  1.0000
  H   H435      1.0  0.04574  0.67006  0.15468  1.0000
  S   S106      1.0  0.35293  0.81356  0.98962  1.0000
  H   H436      1.0  0.02923  0.69368  0.47595  1.0000
  C   C363      1.0  0.19312  0.76707  0.44958  1.0000
  C   C364      1.0  0.38067  0.69365  0.31521  1.0000
  H   H437      1.0  0.35044  0.66556  0.24844  1.0000
  H   H438      1.0  0.32674  0.69810  0.30865  1.0000
  N   N25       1.0  0.48089  0.67233  0.44472  1.0000
  H   H439      1.0  0.15971  0.77732  0.47205  1.0000
  C   C365      1.0  0.02715  0.68342  0.45021  1.0000
  H   H440      1.0  0.02370  0.83514  0.33984  1.0000
  H   H441      1.0  0.01045  0.85588  0.08009  1.0000
  H   H442      1.0  0.29396  0.68851  0.34862  1.0000
  H   H443      1.0  0.18643  0.76814  0.42207  1.0000
  C   C366      1.0  0.05897  0.67552  0.13551  1.0000
  C   C367      1.0  0.32800  0.68136  0.32282  1.0000
  H   H444      1.0  0.35019  0.69669  0.26093  1.0000
  H   H445      1.0  0.39649  0.69936  0.29984  1.0000
  C   C368      1.0  0.34872  0.66613  0.32031  1.0000
  S   S107      1.0  0.34864  0.67207  0.48470  1.0000
  N   N26       1.0  0.36923  0.67296  0.29790  1.0000
  H   H446      1.0  0.04229  0.68792  0.43224  1.0000
  C   C369      1.0  0.17791  0.77232  0.47875  1.0000
  H   H447      1.0  0.47905  0.81529  0.02639  1.0000
  H   H448      1.0  0.07856  0.66724  0.25492  1.0000
  C   C370      1.0  0.21678  0.75988  0.45566  1.0000
  H   H449      1.0  0.20412  0.80327  0.98850  1.0000
  H   H450      1.0  0.45555  0.69136  0.47946  1.0000
  C   C371      1.0  0.48512  0.82220  0.00091  1.0000
  C   C372      1.0  0.49020  0.77936  0.40288  1.0000
  C   C373      1.0  0.00875  0.68361  0.99110  1.0000
  H   H451      1.0  0.11085  0.66830  0.17541  1.0000
  C   C374      1.0  0.03069  0.66658  0.04168  1.0000
  H   H452      1.0  0.11055  0.66463  0.30195  1.0000
  H   H453      1.0  0.42129  0.87705  0.98895  1.0000
  H   H454      1.0  0.06750  0.99631  0.27537  1.0000
  C   C375      1.0  0.16569  0.77341  0.87344  1.0000
  H   H455      1.0  0.17336  0.79108  0.86815  1.0000
  C   C376      1.0  0.03454  0.72460  0.56891  1.0000
  C   C377      1.0  0.46477  0.70531  0.79439  1.0000
  Fe  Fe52      1.0  0.10359  0.73003  0.52343  1.0000
  S   S108      1.0  0.08336  0.76477  0.53666  1.0000
  H   H456      1.0  0.34558  0.67822  0.71659  1.0000
  S   S109      1.0  0.12355  0.70392  0.55905  1.0000
  Fe  Fe53      1.0  0.03004  0.89653  0.71568  1.0000
  C   C378      1.0  0.23820  0.69912  0.51907  1.0000
  S   S110      1.0  0.03010  0.93630  0.70055  1.0000
  Fe  Fe54      1.0  0.05632  0.84779  0.70372  1.0000
  S   S111      1.0  0.03053  0.82869  0.73825  1.0000
  S   S112      1.0  0.08749  0.82494  0.68273  1.0000
  C   C379      1.0  0.16711  0.75289  0.56648  1.0000
  Fe  Fe55      1.0  0.03280  0.85981  0.77629  1.0000
  S   S113      1.0  0.03530  0.85858  0.83774  1.0000
  S   S114      1.0  0.02824  0.86790  0.67172  1.0000
  S   S115      1.0  0.06080  0.87778  0.74410  1.0000
  C   C380      1.0  0.26021  0.69932  0.50049  1.0000
  H   H457      1.0  0.47116  0.86006  0.93113  1.0000
  S   S116      1.0  0.10263  0.78264  0.91962  1.0000
  Fe  Fe56      1.0  0.37556  0.75193  0.95187  1.0000
  S   S117      1.0  0.35458  0.77845  0.91794  1.0000
  S   S118      1.0  0.39886  0.71999  0.93408  1.0000
  H   H458      1.0  0.20990  0.77509  0.85814  1.0000
  S   S119      1.0  0.12843  0.66850  0.48704  1.0000
  C   C381      1.0  0.24064  0.76004  0.88333  1.0000
  Fe  Fe57      1.0  0.37815  0.80566  0.94341  1.0000
  S   S120      1.0  0.39494  0.83560  0.91223  1.0000
  H   H459      1.0  0.15518  0.75551  0.59030  1.0000
  H   H460      1.0  0.13547  0.78977  0.56129  1.0000
  C   C382      1.0  0.39553  0.69955  0.89780  1.0000
  C   C383      1.0  0.41485  0.68396  0.88926  1.0000
  C   C384      1.0  0.07966  0.98262  0.77724  1.0000
  S   S121      1.0  0.38266  0.70734  0.56136  1.0000
  H   H461      1.0  0.00925  0.98618  0.80841  1.0000
  C   C385      1.0  0.37462  0.69855  0.87722  1.0000
  H   H462      1.0  0.02219  0.81328  0.95485  1.0000
  C   C386      1.0  0.03020  0.76153  0.66986  1.0000
  H   H463      1.0  0.35958  0.71037  0.88371  1.0000
  C   C387      1.0  0.42302  0.83248  0.89065  1.0000
  C   C388      1.0  0.43815  0.81258  0.89645  1.0000
  C   C389      1.0  0.46037  0.81069  0.87896  1.0000
  C   C390      1.0  0.46770  0.82855  0.85545  1.0000
  C   C391      1.0  0.45287  0.84876  0.85031  1.0000
  C   C392      1.0  0.43062  0.85070  0.86791  1.0000
  H   H464      1.0  0.43275  0.79865  0.91437  1.0000
  H   H465      1.0  0.47187  0.79517  0.88334  1.0000
  H   H466      1.0  0.45833  0.86265  0.83228  1.0000
  H   H467      1.0  0.41911  0.86627  0.86349  1.0000
  C   C393      1.0  0.39249  0.66631  0.84008  1.0000
  Fe  Fe58      1.0  0.00243  0.85025  0.70834  1.0000
  H   H468      1.0  0.43096  0.68433  0.90533  1.0000
  S   S122      1.0  0.08020  0.70239  0.49973  1.0000
  C   C394      1.0  0.05429  0.83751  0.86010  1.0000
  C   C395      1.0  0.06723  0.81982  0.84092  1.0000
  C   C396      1.0  0.08195  0.80319  0.85956  1.0000
  C   C397      1.0  0.08406  0.80418  0.89747  1.0000
  C   C398      1.0  0.07130  0.82202  0.91667  1.0000
  C   C399      1.0  0.05641  0.83855  0.89804  1.0000
  H   H469      1.0  0.06575  0.81881  0.81173  1.0000
  H   H470      1.0  0.09169  0.78944  0.84447  1.0000
  H   H471      1.0  0.07284  0.82301  0.94585  1.0000
  H   H472      1.0  0.04648  0.85218  0.91310  1.0000
  H   H473      1.0  0.45580  0.77277  0.77502  1.0000
  H   H474      1.0  0.16303  0.73482  0.94320  1.0000
  C   C400      1.0  0.47929  0.71663  0.76990  1.0000
  C   C401      1.0  0.06498  0.66722  0.61918  1.0000
  H   H475      1.0  0.03362  0.76244  0.56821  1.0000
  C   C402      1.0  0.08327  0.77966  0.57902  1.0000
  C   C403      1.0  0.06751  0.79936  0.58429  1.0000
  C   C404      1.0  0.06785  0.81269  0.61672  1.0000
  C   C405      1.0  0.08448  0.80682  0.64372  1.0000
  C   C406      1.0  0.09996  0.78684  0.63871  1.0000
  C   C407      1.0  0.09909  0.77303  0.60671  1.0000
  H   H476      1.0  0.05533  0.80469  0.56288  1.0000
  H   H477      1.0  0.05599  0.82813  0.62021  1.0000
  H   H478      1.0  0.11275  0.78213  0.65965  1.0000
  H   H479      1.0  0.11106  0.75769  0.60313  1.0000
  H   H480      1.0  0.01295  0.94772  0.77419  1.0000
  C   C408      1.0  0.02650  0.96351  0.72608  1.0000
  C   C409      1.0  0.01787  0.96412  0.76158  1.0000
  C   C410      1.0  0.14649  0.78542  0.53694  1.0000
  H   H481      1.0  0.21749  0.75968  0.54700  1.0000
  C   C411      1.0  0.16038  0.74170  0.91533  1.0000
  H   H482      1.0  0.03087  0.68655  0.56903  1.0000
  H   H483      1.0  0.03877  0.98511  0.68235  1.0000
  H   H484      1.0  0.04738  0.72932  0.64975  1.0000
  H   H485      1.0  0.40570  0.79094  0.83188  1.0000
  C   C412      1.0  0.21077  0.74418  0.93764  1.0000
  C   C413      1.0  0.25024  0.74730  0.91239  1.0000
  C   C414      1.0  0.47153  0.84000  0.98214  1.0000
  C   C415      1.0  0.45751  0.75401  0.78131  1.0000
  Fe  Fe59      1.0  0.33075  0.78384  0.96738  1.0000
  Fe  Fe60      1.0  0.10998  0.78364  0.98019  1.0000
  C   C416      1.0  0.05107  0.66803  0.65088  1.0000
  H   H486      1.0  0.38607  0.67111  0.69128  1.0000
  H   H487      1.0  0.41570  0.78386  0.78691  1.0000
  C   C417      1.0  0.47878  0.74455  0.93023  1.0000
  C   C418      1.0  0.40778  0.68807  0.61873  1.0000
  H   H488      1.0  0.46760  0.68641  0.79948  1.0000
  H   H489      1.0  0.18034  0.79713  0.93349  1.0000
  C   C419      1.0  0.99695  0.70531  0.56429  1.0000
  C   C420      1.0  0.03083  0.73757  0.65951  1.0000
  C   C421      1.0  0.00830  0.81607  0.97503  1.0000
  H   H490      1.0  0.06060  0.97750  0.86312  1.0000
  C   C422      1.0  0.01565  0.98602  0.78083  1.0000
  H   H491      1.0  0.26938  0.74428  0.91465  1.0000
  H   H492      1.0  0.44464  0.76194  0.87239  1.0000
  H   H493      1.0  0.45035  0.88475  0.97382  1.0000
  C   C423      1.0  0.37304  0.68180  0.84865  1.0000
  C   C424      1.0  0.43801  0.86973  0.97630  1.0000
  S   S123      1.0  0.49498  0.82388  0.83220  1.0000
  Fe  Fe61      1.0  0.37069  0.70280  0.50294  1.0000
  H   H494      1.0  0.23814  0.69914  0.54835  1.0000
  S   S124      1.0  0.29014  0.79200  0.96406  1.0000
  H   H495      1.0  0.43570  0.70841  0.83077  1.0000
  H   H496      1.0  0.01233  0.70551  0.65410  1.0000
  N   N27       1.0  0.05756  0.92793  0.85037  1.0000
  C   C425      1.0  0.03369  0.92081  0.83792  1.0000
  C   C426      1.0  0.07408  0.90663  0.84935  1.0000
  C   C427      1.0  0.05548  0.93575  0.88884  1.0000
  C   C428      1.0  0.06602  0.94678  0.82618  1.0000
  C   C429      1.0  0.06621  0.97127  0.83669  1.0000
  C   C430      1.0  0.07265  0.94120  0.78994  1.0000
  H   H497      1.0  0.45623  0.71435  0.93264  1.0000
  C   C431      1.0  0.21605  0.76480  0.88106  1.0000
  C   C432      1.0  0.99759  0.74914  0.56312  1.0000
  H   H498      1.0  0.03429  0.91279  0.81023  1.0000
  H   H499      1.0  0.02611  0.90720  0.85598  1.0000
  H   H500      1.0  0.02091  0.93641  0.83725  1.0000
  H   H501      1.0  0.07365  0.89690  0.82302  1.0000
  H   H502      1.0  0.06918  0.89302  0.86960  1.0000
  H   H503      1.0  0.09278  0.91162  0.85484  1.0000
  H   H504      1.0  0.07267  0.94254  0.89914  1.0000
  H   H505      1.0  0.04120  0.94979  0.89263  1.0000
  H   H506      1.0  0.05053  0.92080  0.90671  1.0000
  Fe  Fe62      1.0  0.10181  0.67590  0.53191  1.0000
  H   H507      1.0  0.31582  0.67372  0.60034  1.0000
  C   C433      1.0  0.47569  0.74094  0.76340  1.0000
  H   H508      1.0  0.48699  0.74969  0.74417  1.0000
  H   H509      1.0  0.14596  0.77676  0.87373  1.0000
  N   N28       1.0  0.17048  0.77540  0.54678  1.0000
  C   C434      1.0  0.07295  0.98882  0.81243  1.0000
  C   C435      1.0  0.21630  0.69891  0.50022  1.0000
  H   H510      1.0  0.15050  0.78708  0.93727  1.0000
  S   S125      1.0  0.00202  0.88008  0.74997  1.0000
  H   H511      1.0  0.41303  0.76439  0.88108  1.0000
  H   H512      1.0  0.00872  0.69571  0.96850  1.0000
  H   H513      1.0  0.07170  0.92330  0.77926  1.0000
  H   H514      1.0  0.39592  0.74472  0.78787  1.0000
  H   H515      1.0  0.40412  0.70508  0.63198  1.0000
  S   S126      1.0  0.18907  0.69942  0.52551  1.0000
  H   H516      1.0  0.16970  0.76111  0.85027  1.0000
  C   C436      1.0  0.39965  0.68440  0.58313  1.0000
  H   H517      1.0  0.14083  0.74567  0.91303  1.0000
  H   H518      1.0  0.25245  0.76669  0.86286  1.0000
  H   H519      1.0  0.00934  0.78978  0.59834  1.0000
  H   H520      1.0  0.24354  0.75135  0.49547  1.0000
  H   H521      1.0  0.13604  0.77247  0.52092  1.0000
  H   H522      1.0  0.00872  0.79066  0.69147  1.0000
  C   C437      1.0  0.42056  0.66988  0.63729  1.0000
  C   C438      1.0  0.23530  0.73917  0.93927  1.0000
  C   C439      1.0  0.03224  0.98523  0.70987  1.0000
  H   H523      1.0  0.05383  0.72349  0.57147  1.0000
  C   C440      1.0  0.16954  0.78104  0.93712  1.0000
  H   H524      1.0  0.38446  0.75440  0.83137  1.0000
  N   N29       1.0  0.17446  0.76314  0.90818  1.0000
  C   C441      1.0  0.44220  0.74285  0.80620  1.0000
  H   H525      1.0  0.15914  0.73936  0.54837  1.0000
  H   H526      1.0  0.16505  0.72703  0.89586  1.0000
  H   H527      1.0  0.17368  0.77384  0.96448  1.0000
  H   H528      1.0  0.49328  0.70643  0.75589  1.0000
  H   H529      1.0  0.42732  0.73592  0.87516  1.0000
  C   C442      1.0  0.18613  0.77047  0.51514  1.0000
  C   C443      1.0  0.41348  0.66764  0.86028  1.0000
  C   C444      1.0  0.44649  0.71812  0.81220  1.0000
  C   C445      1.0  0.48216  0.71058  0.88986  1.0000
  H   H530      1.0  0.27679  0.69949  0.51550  1.0000
  H   H531      1.0  0.42690  0.67301  0.66454  1.0000
  Fe  Fe63      1.0  0.14899  0.69887  0.51139  1.0000
  H   H532      1.0  0.18594  0.80939  0.55712  1.0000
  H   H533      1.0  0.07764  0.68094  0.61418  1.0000
  H   H534      1.0  0.16962  0.79789  0.59466  1.0000
  H   H535      1.0  0.43670  0.79118  0.82206  1.0000
  C   C446      1.0  0.20031  0.75694  0.90828  1.0000
  H   H536      1.0  0.04615  0.77190  0.66809  1.0000
  C   C447      1.0  0.02167  0.70383  0.56754  1.0000
  H   H537      1.0  0.39919  0.72601  0.82673  1.0000
  C   C448      1.0  0.24196  0.79794  0.97847  1.0000
  N   N30       1.0  0.42267  0.75589  0.82569  1.0000
  C   C449      1.0  0.42014  0.78153  0.81607  1.0000
  C   C450      1.0  0.39960  0.74479  0.81750  1.0000
  C   C451      1.0  0.42712  0.75453  0.86521  1.0000
  H   H538      1.0  0.01485  0.78925  0.53174  1.0000
  C   C452      1.0  0.02275  0.74691  0.56695  1.0000
  H   H539      1.0  0.43273  0.86370  0.94870  1.0000
  H   H540      1.0  0.20025  0.73881  0.96046  1.0000
  C   C453      1.0  0.18162  0.79278  0.57167  1.0000
  C   C454      1.0  0.00913  0.77206  0.68307  1.0000
  H   H541      1.0  0.14772  0.80221  0.52135  1.0000
  H   H542      1.0  0.47003  0.75358  0.95290  1.0000
  H   H543      1.0  0.32487  0.67249  0.66453  1.0000
  H   H544      1.0  0.19833  0.78552  0.58414  1.0000
  H   H545      1.0  0.05323  0.68237  0.67029  1.0000
  C   C455      1.0  0.21025  0.76274  0.52026  1.0000
  H   H546      1.0  0.42878  0.82257  0.97197  1.0000
  H   H547      1.0  0.24253  0.81226  0.95911  1.0000
  H   H548      1.0  0.24289  0.72978  0.96233  1.0000
  H   H549      1.0  0.47621  0.69319  0.88123  1.0000
  C   C456      1.0  0.01039  0.72405  0.66214  1.0000
  C   C457      1.0  0.07956  0.95885  0.76605  1.0000
  C   C458      1.0  0.47097  0.72239  0.91883  1.0000
  H   H550      1.0  0.18421  0.74471  0.57641  1.0000
  H   H551      1.0  0.35667  0.68074  0.83327  1.0000
  H   H552      1.0  0.08375  0.95418  0.73815  1.0000
  C   C459      1.0  0.48054  0.84728  0.94815  1.0000
  S   S127      1.0  0.40015  0.77914  0.97479  1.0000
  H   H553      1.0  0.99727  0.92996  0.64210  1.0000
  H   H554      1.0  0.08402  0.99639  0.75821  1.0000
  C   C460      1.0  0.22533  0.75778  0.49091  1.0000
  C   C461      1.0  0.85131  0.16224  0.41341  1.0000
  S   S128      1.0  0.87169  0.20256  0.06780  1.0000
  C   C462      1.0  0.75333  0.27556  0.99087  1.0000
  H   H555      1.0  0.64069  0.29873  0.36821  1.0000
  H   H556      1.0  0.86159  0.13971  0.32878  1.0000
  Fe  Fe64      1.0  0.65807  0.19873  0.01977  1.0000
  C   C463      1.0  0.85275  0.14965  0.35052  1.0000
  S   S129      1.0  0.69788  0.19681  0.03430  1.0000
  Fe  Fe65      1.0  0.60925  0.17754  0.03879  1.0000
  H   H557      1.0  0.97705  0.19263  0.34193  1.0000
  S   S130      1.0  0.58792  0.14865  0.06555  1.0000
  C   C464      1.0  0.66429  0.28650  0.42887  1.0000
  Fe  Fe66      1.0  0.61237  0.22938  0.01761  1.0000
  S   S131      1.0  0.59394  0.26570  0.02584  1.0000
  H   H558      1.0  0.95720  0.29815  0.20167  1.0000
  S   S132      1.0  0.62984  0.20794  0.06201  1.0000
  S   S133      1.0  0.60046  0.27513  0.40207  1.0000
  Fe  Fe67      1.0  0.86953  0.25350  0.45860  1.0000
  S   S134      1.0  0.84775  0.27316  0.41667  1.0000
  S   S135      1.0  0.89150  0.21921  0.44865  1.0000
  Fe  Fe68      1.0  0.81963  0.27755  0.46061  1.0000
  S   S136      1.0  0.78090  0.26830  0.44703  1.0000
  Fe  Fe69      1.0  0.86423  0.30587  0.44024  1.0000
  C   C465      1.0  0.56569  0.31196  0.32245  1.0000
  Fe  Fe70      1.0  0.95500  0.13310  0.20071  1.0000
  S   S137      1.0  0.92682  0.11453  0.23207  1.0000
  S   S138      1.0  0.95610  0.14163  0.14078  1.0000
  Fe  Fe71      1.0  0.98601  0.14059  0.26831  1.0000
  S   S139      1.0  0.96035  0.12276  0.30481  1.0000
  Fe  Fe72      1.0  0.95766  0.09509  0.25963  1.0000
  S   S140      1.0  0.96060  0.05570  0.27626  1.0000
  Fe  Fe73      1.0  0.93197  0.14345  0.27426  1.0000
  S   S141      1.0  0.90161  0.16735  0.29548  1.0000
  Fe  Fe74      1.0  0.86805  0.20692  0.00703  1.0000
  S   S142      1.0  0.95784  0.16301  0.24060  1.0000
  C   C466      1.0  0.89575  0.20639  0.40507  1.0000
  C   C467      1.0  0.88253  0.21437  0.37516  1.0000
  C   C468      1.0  0.88490  0.20246  0.34163  1.0000
  C   C469      1.0  0.90094  0.18288  0.33735  1.0000
  C   C470      1.0  0.91498  0.17553  0.36682  1.0000
  C   C471      1.0  0.91220  0.18712  0.40065  1.0000
  H   H559      1.0  0.87005  0.22935  0.37792  1.0000
  H   H560      1.0  0.87396  0.20822  0.31895  1.0000
  H   H561      1.0  0.92725  0.16034  0.36392  1.0000
  H   H562      1.0  0.92249  0.18081  0.42367  1.0000
  H   H563      1.0  0.89621  0.29570  0.36819  1.0000
  C   C472      1.0  0.96224  0.02907  0.24934  1.0000
  C   C473      1.0  0.95809  0.02909  0.21195  1.0000
  H   H564      1.0  0.95413  0.04577  0.19837  1.0000
  H   H565      1.0  0.95100  0.19152  0.31398  1.0000
  C   C474      1.0  0.73337  0.26054  0.46062  1.0000
  C   C475      1.0  0.53805  0.15806  0.16384  1.0000
  C   C476      1.0  0.55684  0.17369  0.15878  1.0000
  C   C477      1.0  0.57169  0.17161  0.12814  1.0000
  C   C478      1.0  0.56840  0.15331  0.10281  1.0000
  C   C479      1.0  0.54986  0.13744  0.10813  1.0000
  C   C480      1.0  0.53457  0.13996  0.13825  1.0000
  H   H566      1.0  0.56027  0.18724  0.17892  1.0000
  H   H567      1.0  0.58626  0.18354  0.12484  1.0000
  H   H568      1.0  0.54733  0.12306  0.08893  1.0000
  H   H569      1.0  0.52033  0.12768  0.14191  1.0000
  C   C481      1.0  0.52485  0.27232  0.13359  1.0000
  C   C482      1.0  0.90352  0.01192  0.23537  1.0000
  C   C483      1.0  0.58067  0.29524  0.37944  1.0000
  C   C484      1.0  0.95834  0.00734  0.19219  1.0000
  C   C485      1.0  0.66014  0.30225  0.36905  1.0000
  C   C486      1.0  0.59354  0.31084  0.13047  1.0000
  C   C487      1.0  0.61114  0.29273  0.12519  1.0000
  C   C488      1.0  0.61120  0.27833  0.09370  1.0000
  C   C489      1.0  0.59402  0.28242  0.06673  1.0000
  C   C490      1.0  0.57643  0.30051  0.07205  1.0000
  C   C491      1.0  0.94991  0.23250  0.35029  1.0000
  H   H570      1.0  0.62469  0.28974  0.14572  1.0000
  H   H571      1.0  0.62454  0.26418  0.09035  1.0000
  H   H572      1.0  0.78472  0.19758  0.46035  1.0000
  H   H573      1.0  0.56377  0.24701  0.28220  1.0000
  C   C492      1.0  0.89547  0.18596  0.08783  1.0000
  C   C493      1.0  0.91690  0.18139  0.06947  1.0000
  C   C494      1.0  0.93558  0.16830  0.08636  1.0000
  C   C495      1.0  0.93281  0.15928  0.12139  1.0000
  C   C496      1.0  0.91159  0.16433  0.14008  1.0000
  C   C497      1.0  0.89306  0.17774  0.12340  1.0000
  H   H574      1.0  0.91919  0.18848  0.04266  1.0000
  H   H575      1.0  0.95236  0.16548  0.07252  1.0000
  H   H576      1.0  0.90934  0.15769  0.16722  1.0000
  H   H577      1.0  0.87662  0.18148  0.13792  1.0000
  H   H578      1.0  0.87796  0.13787  0.39079  1.0000
  C   C498      1.0  0.53732  0.22934  0.20366  1.0000
  C   C499      1.0  0.57596  0.31443  0.10399  1.0000
  C   C500      1.0  0.86195  0.14864  0.38554  1.0000
  N   N31       1.0  0.98959  0.28097  0.18073  1.0000
  C   C501      1.0  0.98403  0.21312  0.18548  1.0000
  H   H579      1.0  0.90628  0.01901  0.20854  1.0000
  C   C502      1.0  0.74324  0.32177  0.41661  1.0000
  C   C503      1.0  0.54379  0.24801  0.18023  1.0000
  H   H580      1.0  0.94393  0.26857  0.16318  1.0000
  H   H581      1.0  0.64551  0.28105  0.42763  1.0000
  C   C504      1.0  0.75414  0.27146  0.47318  1.0000
  C   C505      1.0  0.98836  0.12084  0.98730  1.0000
  H   H582      1.0  0.84907  0.19423  0.47239  1.0000
  H   H583      1.0  0.68771  0.31160  0.06560  1.0000
  S   S143      1.0  0.59012  0.19949  0.99651  1.0000
  H   H584      1.0  0.81336  0.22962  0.44703  1.0000
  H   H585      1.0  0.56657  0.31293  0.29325  1.0000
  H   H586      1.0  0.52808  0.21186  0.13358  1.0000
  C   C506      1.0  0.94625  0.23076  0.16692  1.0000
  C   C507      1.0  0.66370  0.28941  0.01192  1.0000
  H   H587      1.0  0.66305  0.31742  0.35055  1.0000
  H   H588      1.0  0.51804  0.27328  0.10530  1.0000
  H   H589      1.0  0.66833  0.28978  0.45795  1.0000
  C   C508      1.0  0.51020  0.24997  0.32337  1.0000
  H   H590      1.0  0.50471  0.18350  0.27520  1.0000
  C   C509      1.0  0.50666  0.22558  0.31798  1.0000
  S   S144      1.0  0.63907  0.16615  0.00105  1.0000
  C   C510      1.0  0.95567  0.25351  0.16958  1.0000
  H   H591      1.0  0.97260  0.27456  0.32724  1.0000
  H   H592      1.0  0.65668  0.25328  0.05250  1.0000
  H   H593      1.0  0.96781  0.29517  0.13679  1.0000
  H   H594      1.0  0.73417  0.24982  0.43615  1.0000
  Fe  Fe75      1.0  0.60453  0.27476  0.46357  1.0000
  H   H595      1.0  0.90104  0.04661  0.26060  1.0000
  C   C511      1.0  0.50029  0.17624  0.30221  1.0000
  C   C512      1.0  0.58162  0.29667  0.34148  1.0000
  S   S145      1.0  0.96494  0.32037  0.29771  1.0000
  C   C513      1.0  0.76641  0.20656  0.00180  1.0000
  H   H596      1.0  0.63375  0.32437  0.41728  1.0000
  H   H597      1.0  0.67823  0.24259  0.01991  1.0000
  H   H598      1.0  0.66921  0.28582  0.35797  1.0000
  C   C514      1.0  0.89783  0.01847  0.29934  1.0000
  C   C515      1.0  0.96851  0.20015  0.31712  1.0000
  H   H599      1.0  0.69602  0.25424  0.46999  1.0000
  C   C516      1.0  0.96751  0.00712  0.26631  1.0000
  H   H600      1.0  0.95407  0.12984  0.04063  1.0000
  H   H601      1.0  0.93420  0.28850  0.41771  1.0000
  H   H602      1.0  0.79119  0.16771  0.44373  1.0000
  H   H603      1.0  0.52680  0.21463  0.19459  1.0000
  H   H604      1.0  0.97937  0.19435  0.29329  1.0000
  C   C517      1.0  0.83009  0.18895  0.47190  1.0000
  H   H605      1.0  0.80681  0.18921  0.36354  1.0000
  H   H606      1.0  0.49920  0.25659  0.23743  1.0000
  C   C518      1.0  0.56362  0.30919  0.39824  1.0000
  H   H607      1.0  0.82618  0.16544  0.31559  1.0000
  H   H608      1.0  0.98846  0.11590  0.01549  1.0000
  C   C519      1.0  0.54385  0.24080  0.36209  1.0000
  H   H609      1.0  0.72367  0.25982  0.06590  1.0000
  C   C520      1.0  0.74603  0.20068  0.02178  1.0000
  C   C521      1.0  0.83283  0.16424  0.34313  1.0000
  H   H610      1.0  0.67562  0.27097  0.41966  1.0000
  C   C522      1.0  0.94959  0.27707  0.42395  1.0000
  N   N32       1.0  0.96576  0.22656  0.31918  1.0000
  H   H611      1.0  0.84039  0.22217  0.42307  1.0000
  C   C523      1.0  0.96045  0.21063  0.17463  1.0000
  H   H612      1.0  0.91420  0.15134  0.99771  1.0000
  H   H613      1.0  0.94929  0.25415  0.28589  1.0000
  H   H614      1.0  0.53973  0.21439  0.25701  1.0000
  H   H615      1.0  0.57136  0.25967  0.12472  1.0000
  H   H616      1.0  0.51875  0.30894  0.03099  1.0000
  H   H617      1.0  0.56745  0.22818  0.12354  1.0000
  S   S146      1.0  0.98558  0.11186  0.22547  1.0000
  C   C524      1.0  0.69383  0.31351  0.40889  1.0000
  H   H618      1.0  0.69417  0.28513  0.09121  1.0000
  C   C525      1.0  0.72612  0.26774  0.03968  1.0000
  S   S147      1.0  0.51935  0.16193  0.20230  1.0000
  H   H619      1.0  0.66389  0.29415  0.08256  1.0000
  H   H620      1.0  0.55399  0.24699  0.08936  1.0000
  H   H621      1.0  0.74825  0.19252  0.04806  1.0000
  H   H622      1.0  0.93669  0.22543  0.28077  1.0000
  H   H623      1.0  0.85993  0.16123  0.43953  1.0000
  C   C526      1.0  0.97228  0.28361  0.41371  1.0000
  H   H624      1.0  0.89599  0.03074  0.32209  1.0000
  H   H625      1.0  0.95841  0.22707  0.37629  1.0000
  C   C527      1.0  0.79361  0.18696  0.43823  1.0000
  H   H626      1.0  0.56921  0.10763  0.01894  1.0000
  C   C528      1.0  0.54119  0.16968  0.31848  1.0000
  S   S148      1.0  0.59436  0.32892  0.16996  1.0000
  S   S149      1.0  0.83410  0.31241  0.47984  1.0000
  H   H627      1.0  0.56266  0.30819  0.42744  1.0000
  H   H628      1.0  0.92516  0.11843  0.03507  1.0000
  H   H629      1.0  0.53699  0.28748  0.13665  1.0000
  C   C529      1.0  0.54461  0.22900  0.23991  1.0000
  H   H630      1.0  0.55812  0.24682  0.37955  1.0000
  C   C530      1.0  0.55820  0.26597  0.19532  1.0000
  C   C531      1.0  0.96647  0.24142  0.45193  1.0000
  C   C532      1.0  0.82193  0.17779  0.37081  1.0000
  C   C533      1.0  0.56507  0.26566  0.23172  1.0000
  H   H631      1.0  0.92900  0.25115  0.45103  1.0000
  N   N33       1.0  0.53668  0.24887  0.14159  1.0000
  H   H632      1.0  0.56239  0.32840  0.10767  1.0000
  C   C534      1.0  0.54046  0.21639  0.35699  1.0000
  H   H633      1.0  0.76349  0.25734  0.03962  1.0000
  N   N34       1.0  0.68238  0.27893  0.03620  1.0000
  C   C535      1.0  0.74905  0.26630  0.02497  1.0000
  C   C536      1.0  0.55826  0.24723  0.25403  1.0000
  C   C537      1.0  0.56635  0.10180  0.99031  1.0000
  H   H634      1.0  0.59470  0.28586  0.32672  1.0000
  N   N35       1.0  0.51855  0.18202  0.32983  1.0000
  C   C538      1.0  0.68205  0.29305  0.07036  1.0000
  H   H635      1.0  0.96529  0.23091  0.26138  1.0000
  H   H636      1.0  0.98348  0.31432  0.20956  1.0000
  H   H637      1.0  0.92873  0.29004  0.32324  1.0000
  C   C539      1.0  0.90822  0.30998  0.36316  1.0000
  H   H638      1.0  0.94510  0.25183  0.35225  1.0000
  C   C540      1.0  0.92673  0.30680  0.33776  1.0000
  C   C541      1.0  0.98678  0.29226  0.14470  1.0000
  H   H639      1.0  0.81212  0.22240  0.40018  1.0000
  H   H640      1.0  0.60828  0.11830  0.00779  1.0000
  H   H641      1.0  0.53870  0.15033  0.31297  1.0000
  C   C542      1.0  0.52193  0.20798  0.33441  1.0000
  H   H642      1.0  0.56314  0.30387  0.05130  1.0000
  H   H643      1.0  0.97114  0.00688  0.29507  1.0000
  C   C543      1.0  0.55825  0.24578  0.11879  1.0000
  C   C544      1.0  0.97651  0.29594  0.20794  1.0000
  C   C545      1.0  0.73413  0.31467  0.38324  1.0000
  H   H644      1.0  0.56439  0.28048  0.17907  1.0000
  C   C546      1.0  0.72289  0.20512  0.00805  1.0000
  C   C547      1.0  0.98996  0.24767  0.44229  1.0000
  C   C548      1.0  0.70376  0.32084  0.44246  1.0000
  H   H645      1.0  0.50947  0.27592  0.15202  1.0000
  H   H646      1.0  0.70403  0.30482  0.35276  1.0000
  H   H647      1.0  0.93270  0.22328  0.34811  1.0000
  H   H648      1.0  0.52422  0.17452  0.38667  1.0000
  H   H649      1.0  0.54814  0.17745  0.29313  1.0000
  H   H650      1.0  0.99573  0.28117  0.12324  1.0000
  H   H651      1.0  0.55532  0.17046  0.33950  1.0000
  C   C549      1.0  0.94224  0.32532  0.33042  1.0000
  C   C550      1.0  0.99371  0.23578  0.18804  1.0000
  C   C551      1.0  0.94671  0.25602  0.44284  1.0000
  C   C552      1.0  0.51989  0.23011  0.13077  1.0000
  H   H652      1.0  0.95318  0.19300  0.17198  1.0000
  H   H653      1.0  0.78404  0.20294  0.01281  1.0000
  C   C553      1.0  0.71154  0.26334  0.47944  1.0000
  H   H654      1.0  0.97442  0.30013  0.39912  1.0000
  H   H655      1.0  0.69303  0.32238  0.46672  1.0000
  H   H656      1.0  0.50793  0.15246  0.36247  1.0000
  C   C554      1.0  0.98869  0.23870  0.32342  1.0000
  S   S150      1.0  0.53456  0.32441  0.21394  1.0000
  H   H657      1.0  0.78351  0.19157  0.41321  1.0000
  C   C555      1.0  0.95377  0.23468  0.28539  1.0000
  C   C556      1.0  0.98896  0.26389  0.32712  1.0000
  C   C557      1.0  0.83078  0.17717  0.40687  1.0000
  C   C558      1.0  0.90055  0.02750  0.26467  1.0000
  C   C559      1.0  0.82137  0.21766  0.42589  1.0000
  H   H658      1.0  0.74616  0.31180  0.36060  1.0000
  H   H659      1.0  0.57587  0.27980  0.24252  1.0000
  H   H660      1.0  0.64561  0.28912  0.02439  1.0000
  N   N36       1.0  0.81928  0.19225  0.43541  1.0000
  C   C560      1.0  0.70666  0.27848  0.02047  1.0000
  H   H661      1.0  0.55227  0.20419  0.37146  1.0000
  C   C561      1.0  0.97982  0.25673  0.17966  1.0000
  C   C562      1.0  0.67562  0.25422  0.04420  1.0000
  C   C563      1.0  0.70978  0.31064  0.37919  1.0000
  H   H662      1.0  0.49884  0.15660  0.29849  1.0000
  C   C564      1.0  0.99222  0.26929  0.42297  1.0000
  C   C565      1.0  0.72803  0.32511  0.44602  1.0000
  H   H663      1.0  0.66698  0.30842  0.00586  1.0000
  H   H664      1.0  0.92790  0.22862  0.15835  1.0000
  C   C566      1.0  0.54843  0.32569  0.34123  1.0000
  H   H665      1.0  0.97815  0.28815  0.23550  1.0000
  N   N37       1.0  0.66832  0.30772  0.40644  1.0000
  H   H666      1.0  0.49830  0.26317  0.31093  1.0000
  H   H667      1.0  0.95454  0.00757  0.16346  1.0000
  H   H668      1.0  0.99626  0.19912  0.44878  1.0000
  H   H669      1.0  0.57583  0.14748  0.99320  1.0000
  H   H670      1.0  0.73526  0.33005  0.47220  1.0000
  C   C567      1.0  0.51090  0.17199  0.36476  1.0000
  C   C568      1.0  0.65311  0.32798  0.42023  1.0000
  H   H671      1.0  0.95068  0.09945  0.02535  1.0000
  H   H672      1.0  0.51454  0.23168  0.10181  1.0000
  C   C569      1.0  0.50113  0.31435  0.02137  1.0000
  H   H673      1.0  0.76223  0.32409  0.41996  1.0000
  H   H674      1.0  0.99494  0.19727  0.19145  1.0000
  H   H675      1.0  0.94342  0.16360  0.99808  1.0000
  C   C570      1.0  0.52876  0.25754  0.34531  1.0000
  H   H676      1.0  0.82910  0.17015  0.48097  1.0000
  H   H677      1.0  0.53128  0.27644  0.34970  1.0000
  S   S151      1.0  0.88773  0.28602  0.47972  1.0000
  H   H678      1.0  0.68641  0.24594  0.06633  1.0000
  C   C571      1.0  0.94337  0.11807  0.02302  1.0000
  H   H679      1.0  0.50325  0.23137  0.14707  1.0000
  C   C572      1.0  0.54748  0.32423  0.37916  1.0000
  H   H680      1.0  0.99478  0.31019  0.14414  1.0000
  H   H681      1.0  0.96282  0.22558  0.46709  1.0000
  H   H682      1.0  0.56952  0.08210  0.98896  1.0000
  C   C573      1.0  0.72235  0.16113  0.88048  1.0000
  Fe  Fe76      1.0  0.87924  0.23589  0.93924  1.0000
  S   S152      1.0  0.85510  0.21412  0.90429  1.0000
  S   S153      1.0  0.90743  0.26048  0.91780  1.0000
  H   H683      1.0  0.89106  0.27967  0.80234  1.0000
  Fe  Fe77      1.0  0.87165  0.18259  0.93304  1.0000
  S   S154      1.0  0.88508  0.14856  0.90498  1.0000
  Fe  Fe78      1.0  0.82897  0.21651  0.95119  1.0000
  S   S155      1.0  0.78902  0.22420  0.94074  1.0000
  C   C574      1.0  0.87861  0.31435  0.85627  1.0000
  S   S156      1.0  0.62190  0.17542  0.90229  1.0000
  Fe  Fe79      1.0  0.64261  0.27662  0.52281  1.0000
  H   H684      1.0  0.53599  0.09546  0.86388  1.0000
  S   S157      1.0  0.68229  0.28377  0.53376  1.0000
  Fe  Fe80      1.0  0.59208  0.29881  0.53660  1.0000
  H   H685      1.0  0.54719  0.10571  0.98459  1.0000
  Fe  Fe81      1.0  0.59959  0.24483  0.53281  1.0000
  S   S158      1.0  0.57752  0.21443  0.55355  1.0000
  C   C575      1.0  0.96199  0.22201  0.91688  1.0000
  S   S159      1.0  0.61549  0.27315  0.56814  1.0000
  C   C576      1.0  0.69806  0.16241  0.88902  1.0000
  Fe  Fe82      1.0  0.53735  0.11878  0.75812  1.0000
  S   S160      1.0  0.56722  0.09299  0.74232  1.0000
  S   S161      1.0  0.53334  0.13807  0.81223  1.0000
  Fe  Fe83      1.0  0.51444  0.11813  0.68228  1.0000
  S   S162      1.0  0.54300  0.09258  0.66186  1.0000
  Fe  Fe84      1.0  0.53841  0.07230  0.71381  1.0000
  S   S163      1.0  0.53138  0.03234  0.70419  1.0000
  Fe  Fe85      1.0  0.56847  0.11542  0.69181  1.0000
  S   S164      1.0  0.60088  0.13231  0.66782  1.0000
  C   C577      1.0  0.70988  0.27777  0.51055  1.0000
  S   S165      1.0  0.54033  0.14193  0.70951  1.0000
  Fe  Fe86      1.0  0.85698  0.29045  0.51801  1.0000
  S   S166      1.0  0.85810  0.30340  0.57651  1.0000
  H   H686      1.0  0.76658  0.11990  0.88949  1.0000
  H   H687      1.0  0.77958  0.14022  0.94583  1.0000
  H   H688      1.0  0.86110  0.32109  0.84829  1.0000
  H   H689      1.0  0.55459  0.02198  0.77457  1.0000
  C   C578      1.0  0.77103  0.13653  0.87507  1.0000
  C   C579      1.0  0.73078  0.28827  0.52351  1.0000
  C   C580      1.0  0.96669  0.24131  0.82642  1.0000
  C   C581      1.0  0.57313  0.08675  0.85622  1.0000
  H   H690      1.0  0.72989  0.29923  0.54777  1.0000
  H   H691      1.0  0.77943  0.17243  0.94782  1.0000
  C   C582      1.0  0.73200  0.15738  0.94419  1.0000
  H   H692      1.0  0.90960  0.10869  0.97681  1.0000
  H   H693      1.0  0.79025  0.13512  0.86760  1.0000
  H   H694      1.0  0.57088  0.30152  0.62341  1.0000
  C   C583      1.0  0.58487  0.19205  0.58565  1.0000
  C   C584      1.0  0.60784  0.18878  0.60007  1.0000
  C   C585      1.0  0.61268  0.17037  0.62514  1.0000
  C   C586      1.0  0.59458  0.15532  0.63622  1.0000
  C   C587      1.0  0.57155  0.15898  0.62233  1.0000
  C   C588      1.0  0.56679  0.17715  0.59709  1.0000
  H   H695      1.0  0.62190  0.20019  0.59157  1.0000
  H   H696      1.0  0.63052  0.16773  0.63584  1.0000
  H   H697      1.0  0.55745  0.14749  0.63042  1.0000
  H   H698      1.0  0.54898  0.17949  0.58610  1.0000
  C   C589      1.0  0.59699  0.16565  0.87723  1.0000
  C   C590      1.0  0.60087  0.15134  0.84622  1.0000
  C   C591      1.0  0.58156  0.14294  0.82584  1.0000
  C   C592      1.0  0.55816  0.14879  0.83635  1.0000
  C   C593      1.0  0.55428  0.16333  0.86710  1.0000
  C   C594      1.0  0.57359  0.17188  0.88731  1.0000
  H   H699      1.0  0.61891  0.14647  0.83814  1.0000
  H   H700      1.0  0.58479  0.13160  0.80239  1.0000
  H   H701      1.0  0.53623  0.16801  0.87530  1.0000
  H   H702      1.0  0.57035  0.18326  0.91071  1.0000
  C   C595      1.0  0.51044  0.28222  0.52699  1.0000
  C   C596      1.0  0.55072  0.32990  0.59773  1.0000
  H   H703      1.0  0.90902  0.29958  0.56041  1.0000
  H   H704      1.0  0.88412  0.29259  0.68017  1.0000
  N   N38       1.0  0.58230  0.11408  0.96503  1.0000
  C   C597      1.0  0.75277  0.28503  0.50517  1.0000
  C   C598      1.0  0.96936  0.13282  0.93115  1.0000
  H   H705      1.0  0.90871  0.30908  0.76869  1.0000
  C   C599      1.0  0.90333  0.28570  0.88976  1.0000
  C   C600      1.0  0.92361  0.29716  0.87745  1.0000
  H   H706      1.0  0.89638  0.32005  0.72726  1.0000
  C   C601      1.0  0.89736  0.26308  0.79016  1.0000
  S   S167      1.0  0.84358  0.18282  0.97655  1.0000
  C   C602      1.0  0.88076  0.29433  0.87904  1.0000
  H   H707      1.0  0.94109  0.29083  0.88592  1.0000
  H   H708      1.0  0.54097  0.11092  0.92522  1.0000
  S   S168      1.0  0.85210  0.24095  0.98390  1.0000
  H   H709      1.0  0.86499  0.28573  0.88847  1.0000
  C   C603      1.0  0.95267  0.15267  0.83580  1.0000
  C   C604      1.0  0.94235  0.17331  0.85187  1.0000
  C   C605      1.0  0.92153  0.17223  0.87273  1.0000
  C   C606      1.0  0.91050  0.15049  0.87717  1.0000
  C   C607      1.0  0.92047  0.12985  0.86047  1.0000
  C   C608      1.0  0.94163  0.13088  0.84007  1.0000
  H   H710      1.0  0.95063  0.19022  0.84856  1.0000
  H   H711      1.0  0.91399  0.18824  0.88537  1.0000
  H   H712      1.0  0.91200  0.11295  0.86368  1.0000
  H   H713      1.0  0.94935  0.11486  0.82769  1.0000
  H   H714      1.0  0.90573  0.20545  0.81674  1.0000
  C   C609      1.0  0.55357  0.09511  0.87622  1.0000
  C   C610      1.0  0.96694  0.12644  0.96799  1.0000
  H   H715      1.0  0.50093  0.08282  0.61314  1.0000
  H   H716      1.0  0.51096  0.05431  0.62935  1.0000
  H   H717      1.0  0.70187  0.15783  0.98032  1.0000
  C   C611      1.0  0.59590  0.08727  0.87125  1.0000
  H   H718      1.0  0.57805  0.22235  0.79643  1.0000
  H   H719      1.0  0.89230  0.24494  0.84070  1.0000
  C   C612      1.0  0.89795  0.24314  0.81267  1.0000
  C   C613      1.0  0.90447  0.26125  0.75325  1.0000
  N   N39       1.0  0.50843  0.27030  0.56252  1.0000
  C   C614      1.0  0.92751  0.10989  0.96415  1.0000
  H   H720      1.0  0.98585  0.20823  0.82764  1.0000
  H   H721      1.0  0.54279  0.25231  0.55749  1.0000
  N   N40       1.0  0.94299  0.12616  0.98480  1.0000
  H   H722      1.0  0.59797  0.24715  0.76029  1.0000
  C   C615      1.0  0.91295  0.21850  0.76343  1.0000
  H   H723      1.0  0.92746  0.30140  0.69484  1.0000
  H   H724      1.0  0.79086  0.18150  0.87369  1.0000
  H   H725      1.0  0.98717  0.28960  0.90110  1.0000
  H   H726      1.0  0.70277  0.21920  0.96293  1.0000
  C   C616      1.0  0.88050  0.32891  0.62955  1.0000
  C   C617      1.0  0.92151  0.31679  0.85415  1.0000
  C   C618      1.0  0.97533  0.20093  0.92178  1.0000
  H   H727      1.0  0.91779  0.23547  0.71285  1.0000
  H   H728      1.0  0.99577  0.21124  0.49452  1.0000
  N   N41       1.0  0.76571  0.15789  0.89799  1.0000
  S   S169      1.0  0.64167  0.22218  0.97678  1.0000
  H   H729      1.0  0.94996  0.23325  0.83281  1.0000
  C   C619      1.0  0.76392  0.21708  0.96774  1.0000
  H   H730      1.0  0.93239  0.27000  0.69293  1.0000
  H   H731      1.0  0.58100  0.00070  0.66069  1.0000
  H   H732      1.0  0.95081  0.27656  0.82226  1.0000
  H   H733      1.0  0.92399  0.11605  0.93609  1.0000
  H   H734      1.0  0.53318  0.25768  0.60364  1.0000
  H   H735      1.0  0.76450  0.19597  0.89155  1.0000
  C   C620      1.0  0.74011  0.15874  0.90784  1.0000
  C   C621      1.0  0.69075  0.16114  0.92489  1.0000
  H   H736      1.0  0.74403  0.15606  0.96701  1.0000
  C   C622      1.0  0.98760  0.22713  0.82351  1.0000
  H   H737      1.0  0.61111  0.08119  0.85523  1.0000
  H   H738      1.0  0.73820  0.29335  0.94470  1.0000
  H   H739      1.0  0.94328  0.22131  0.90953  1.0000
  S   S170      1.0  0.50825  0.09708  0.73284  1.0000
  C   C623      1.0  0.91232  0.23831  0.74062  1.0000
  H   H740      1.0  0.96080  0.25961  0.91847  1.0000
  C   C624      1.0  0.89627  0.30474  0.74628  1.0000
  H   H741      1.0  0.61737  0.09630  0.91608  1.0000
  H   H742      1.0  0.76850  0.29350  0.51538  1.0000
  C   C625      1.0  0.97241  0.24410  0.92205  1.0000
  C   C626      1.0  0.92615  0.32069  0.60163  1.0000
  H   H743      1.0  0.95395  0.13758  0.91498  1.0000
  C   C627      1.0  0.72038  0.21573  0.97403  1.0000
  C   C628      1.0  0.92710  0.28492  0.71151  1.0000
  H   H744      1.0  0.94123  0.28632  0.73258  1.0000
  H   H745      1.0  0.67192  0.16248  0.93142  1.0000
  C   C629      1.0  0.89898  0.32557  0.84363  1.0000
  H   H746      1.0  0.50561  0.29564  0.97181  1.0000
  H   H747      1.0  0.73854  0.22978  0.92780  1.0000
  H   H748      1.0  0.76075  0.13682  0.84929  1.0000
  H   H749      1.0  0.58361  0.19131  0.80239  1.0000
  C   C630      1.0  0.90558  0.22089  0.79928  1.0000
  C   C631      1.0  0.77131  0.17957  0.87727  1.0000
  C   C632      1.0  0.59921  0.09604  0.90645  1.0000
  H   H750      1.0  0.52085  0.22198  0.57758  1.0000
  H   H751      1.0  0.96709  0.18390  0.91799  1.0000
  H   H752      1.0  0.60698  0.20883  0.78521  1.0000
  S   S171      1.0  0.97957  0.15527  0.81151  1.0000
  S   S172      1.0  0.57506  0.27057  0.50308  1.0000
  H   H753      1.0  0.92868  0.15695  0.95607  1.0000
  H   H754      1.0  0.72713  0.16229  0.85227  1.0000
  H   H755      1.0  0.93729  0.32539  0.84476  1.0000
  H   H756      1.0  0.54381  0.28132  0.57658  1.0000
  N   N42       1.0  0.57909  0.20181  0.74657  1.0000
  C   C633      1.0  0.59098  0.17916  0.73411  1.0000
  C   C634      1.0  0.55301  0.19850  0.74790  1.0000
  C   C635      1.0  0.58416  0.22123  0.72104  1.0000
  C   C636      1.0  0.57911  0.21857  0.68351  1.0000
  C   C637      1.0  0.59375  0.24328  0.73238  1.0000
  C   C638      1.0  0.58390  0.23656  0.65886  1.0000
  C   C639      1.0  0.59834  0.26120  0.70745  1.0000
  C   C640      1.0  0.59360  0.25777  0.67078  1.0000
  H   H757      1.0  0.58868  0.16439  0.75359  1.0000
  H   H758      1.0  0.58361  0.17264  0.70810  1.0000
  H   H759      1.0  0.61044  0.18127  0.73003  1.0000
  H   H760      1.0  0.54561  0.19377  0.72091  1.0000
  H   H761      1.0  0.54841  0.18383  0.76664  1.0000
  H   H762      1.0  0.54338  0.21508  0.75728  1.0000
  H   H763      1.0  0.57160  0.20244  0.67275  1.0000
  Fe  Fe87      1.0  0.62102  0.19003  0.96013  1.0000
  H   H764      1.0  0.58035  0.23393  0.63022  1.0000
  H   H765      1.0  0.60575  0.27786  0.71653  1.0000
  H   H766      1.0  0.59756  0.27154  0.65151  1.0000
  C   C641      1.0  0.58737  0.20643  0.78417  1.0000
  C   C642      1.0  0.98866  0.27639  0.81357  1.0000
  H   H767      1.0  0.86777  0.27451  0.71064  1.0000
  C   C643      1.0  0.54277  0.31558  0.65837  1.0000
  H   H768      1.0  0.89074  0.26136  0.68242  1.0000
  H   H769      1.0  0.51829  0.26974  0.50628  1.0000
  H   H770      1.0  0.76329  0.17971  0.84977  1.0000
  H   H771      1.0  0.80115  0.15645  0.92155  1.0000
  C   C644      1.0  0.88578  0.27732  0.69917  1.0000
  N   N43       1.0  0.90339  0.28180  0.72825  1.0000
  H   H772      1.0  0.93571  0.09157  0.96231  1.0000
  H   H773      1.0  0.98895  0.29552  0.80951  1.0000
  H   H774      1.0  0.52210  0.29797  0.52870  1.0000
  H   H775      1.0  0.57065  0.08041  0.82868  1.0000
  C   C645      1.0  0.90646  0.31059  0.58438  1.0000
  C   C646      1.0  0.57956  0.10447  0.92778  1.0000
  H   H776      1.0  0.91899  0.20112  0.75323  1.0000
  H   H777      1.0  0.87789  0.30449  0.75750  1.0000
  C   C647      1.0  0.55666  0.10396  0.91136  1.0000
  C   C648      1.0  0.53564  0.00582  0.73051  1.0000
  C   C649      1.0  0.57577  0.13989  0.96534  1.0000
  C   C650      1.0  0.74076  0.22163  0.95406  1.0000
  H   H778      1.0  0.61979  0.12159  0.96343  1.0000
  C   C651      1.0  0.55620  0.31435  0.62619  1.0000
  C   C652      1.0  0.53303  0.26506  0.57580  1.0000
  S   S173      1.0  0.89708  0.20391  0.96570  1.0000
  C   C653      1.0  0.54777  0.00558  0.76371  1.0000
  C   C654      1.0  0.96716  0.26580  0.82094  1.0000
  H   H779      1.0  0.54725  0.30360  0.68033  1.0000
  H   H780      1.0  0.55773  0.14376  0.95396  1.0000
  S   S174      1.0  0.84081  0.25580  0.50114  1.0000
  C   C655      1.0  0.99278  0.28995  0.93005  1.0000
  C   C656      1.0  0.88350  0.31493  0.59801  1.0000
  H   H781      1.0  0.97656  0.29122  0.94737  1.0000
  H   H782      1.0  0.68475  0.16463  0.86784  1.0000
  H   H783      1.0  0.58868  0.15001  0.94933  1.0000
  H   H784      1.0  0.50722  0.30363  0.59217  1.0000
  C   C657      1.0  0.78205  0.15663  0.92974  1.0000
  H   H785      1.0  0.94383  0.31755  0.59064  1.0000
  C   C658      1.0  0.93193  0.15055  0.98413  1.0000
  C   C659      1.0  0.50304  0.22538  0.56717  1.0000
  H   H786      1.0  0.99290  0.13771  0.88594  1.0000
  H   H787      1.0  0.82085  0.20038  0.49273  1.0000
  C   C660      1.0  0.70765  0.15845  0.95234  1.0000
  H   H788      1.0  0.69812  0.29640  0.96910  1.0000
  C   C661      1.0  0.71169  0.28799  0.98584  1.0000
  S   S175      1.0  0.62023  0.30506  0.49461  1.0000
  C   C662      1.0  0.60696  0.11130  0.97951  1.0000
  C   C663      1.0  0.73473  0.28644  0.97142  1.0000
  S   S176      1.0  0.62807  0.24631  0.48974  1.0000
  H   H789      1.0  0.61304  0.09222  0.98005  1.0000
  H   H790      1.0  0.49729  0.05627  0.58560  1.0000
  C   C664      1.0  0.99164  0.13317  0.91438  1.0000
  S   S177      1.0  0.56649  0.32855  0.55616  1.0000
  C   C665      1.0  0.49675  0.28728  0.58846  1.0000
  H   H791      1.0  0.77103  0.27376  0.97916  1.0000
  H   H792      1.0  0.66251  0.27912  0.98606  1.0000
  Fe  Fe88      1.0  0.56259  0.62244  0.29192  1.0000
  S   S178      1.0  0.53458  0.64231  0.26031  1.0000
  S   S179      1.0  0.59398  0.64345  0.31277  1.0000
  Fe  Fe89      1.0  0.53994  0.57374  0.27446  1.0000
  H   H793      1.0  0.97656  0.52205  0.14266  1.0000
  S   S180      1.0  0.54908  0.53331  0.27867  1.0000
  Fe  Fe90      1.0  0.53840  0.61349  0.21865  1.0000
  S   S181      1.0  0.53873  0.61951  0.15800  1.0000
  H   H794      1.0  0.95188  0.63719  0.98714  1.0000
  S   S182      1.0  0.56848  0.59484  0.24785  1.0000
  S   S183      1.0  0.53675  0.60004  0.32192  1.0000
  Fe  Fe91      1.0  0.52929  0.39369  0.20637  1.0000
  H   H795      1.0  0.95111  0.50404  0.15289  1.0000
  S   S184      1.0  0.51975  0.43408  0.20401  1.0000
  Fe  Fe92      1.0  0.56082  0.34871  0.18973  1.0000
  C   C666      1.0  0.57705  0.65343  0.08217  1.0000
  H   H796      1.0  0.57828  0.53731  0.20861  1.0000
  Fe  Fe93      1.0  0.53080  0.35161  0.25821  1.0000
  S   S185      1.0  0.52722  0.34412  0.31826  1.0000
  S   S186      1.0  0.53370  0.36952  0.15682  1.0000
  S   S187      1.0  0.55925  0.37490  0.23678  1.0000
  S   S188      1.0  0.96349  0.63288  0.19739  1.0000
  H   H797      1.0  0.65665  0.34466  0.40539  1.0000
  C   C667      1.0  0.55926  0.47549  0.15478  1.0000
  H   H798      1.0  0.49964  0.50555  0.31478  1.0000
  H   H799      1.0  0.98022  0.56142  0.17101  1.0000
  H   H800      1.0  0.50028  0.39004  0.35071  1.0000
  C   C668      1.0  0.90766  0.58471  0.13545  1.0000
  H   H801      1.0  0.68086  0.62392  0.05939  1.0000
  C   C669      1.0  0.76616  0.65214  0.05187  1.0000
  H   H802      1.0  0.52294  0.55686  0.16121  1.0000
  C   C670      1.0  0.92606  0.64827  0.15491  1.0000
  C   C671      1.0  0.53037  0.41033  0.30404  1.0000
  C   C672      1.0  0.56413  0.55735  0.12467  1.0000
  H   H803      1.0  0.53543  0.54593  0.20299  1.0000
  H   H804      1.0  0.95085  0.36155  0.34327  1.0000
  H   H805      1.0  0.91776  0.36748  0.38742  1.0000
  H   H806      1.0  0.57952  0.64474  0.18651  1.0000
  C   C673      1.0  0.53392  0.51446  0.12569  1.0000
  H   H807      1.0  0.50848  0.51989  0.23201  1.0000
  C   C674      1.0  0.57870  0.64721  0.15752  1.0000
  S   S189      1.0  0.50976  0.59147  0.24304  1.0000
  C   C675      1.0  0.92046  0.63797  0.09146  1.0000
  S   S190      1.0  0.50052  0.37119  0.22987  1.0000
  C   C676      1.0  0.50925  0.49044  0.32668  1.0000
  C   C677      1.0  0.94763  0.63484  0.15597  1.0000
  C   C678      1.0  0.95572  0.62316  0.12446  1.0000
  C   C679      1.0  0.94203  0.62452  0.09245  1.0000
  H   H808      1.0  0.89638  0.58699  0.07990  1.0000
  C   C680      1.0  0.53540  0.45186  0.35537  1.0000
  H   H809      1.0  0.96033  0.57140  0.20628  1.0000
  H   H810      1.0  0.94792  0.61471  0.06859  1.0000
  H   H811      1.0  0.50150  0.64393  0.41762  1.0000
  C   C681      1.0  0.92183  0.57241  0.16074  1.0000
  S   S191      1.0  0.99271  0.37280  0.23870  1.0000
  H   H812      1.0  0.54364  0.57407  0.18565  1.0000
  H   H813      1.0  0.54624  0.43753  0.36682  1.0000
  C   C682      1.0  0.50539  0.40873  0.35679  1.0000
  C   C683      1.0  0.56059  0.63679  0.13732  1.0000
  H   H814      1.0  0.58050  0.50015  0.18247  1.0000
  N   N44       1.0  0.55966  0.54374  0.15814  1.0000
  C   C684      1.0  0.98363  0.65947  0.47640  1.0000
  S   S192      1.0  0.90281  0.63787  0.05173  1.0000
  C   C685      1.0  0.94743  0.65668  0.98783  1.0000
  H   H815      1.0  0.58572  0.56427  0.18691  1.0000
  H   H816      1.0  0.54681  0.40926  0.32084  1.0000
  C   C686      1.0  0.71627  0.65673  0.06411  1.0000
  C   C687      1.0  0.54071  0.50606  0.25695  1.0000
  C   C688      1.0  0.52005  0.50431  0.23584  1.0000
  C   C689      1.0  0.51397  0.48219  0.22022  1.0000
  C   C690      1.0  0.52824  0.46135  0.22554  1.0000
  C   C691      1.0  0.54892  0.46309  0.24664  1.0000
  C   C692      1.0  0.55500  0.48522  0.26227  1.0000
  C   C693      1.0  0.59590  0.66071  0.14003  1.0000
  H   H817      1.0  0.53424  0.45375  0.12669  1.0000
  H   H818      1.0  0.56045  0.44750  0.25056  1.0000
  H   H819      1.0  0.57092  0.48619  0.27872  1.0000
  H   H820      1.0  0.57842  0.54846  0.10810  1.0000
  Fe  Fe94      1.0  0.50710  0.34602  0.18287  1.0000
  H   H821      1.0  0.49801  0.48122  0.20383  1.0000
  H   H822      1.0  0.67743  0.64365  0.02100  1.0000
  H   H823      1.0  0.71496  0.62978  0.02053  1.0000
  H   H824      1.0  0.94473  0.52898  0.10368  1.0000
  H   H825      1.0  0.55515  0.66291  0.35803  1.0000
  C   C694      1.0  0.96844  0.55523  0.19295  1.0000
  H   H826      1.0  0.88961  0.39344  0.47509  1.0000
  H   H827      1.0  0.92069  0.51986  0.19825  1.0000
  N   N45       1.0  0.50999  0.42214  0.32319  1.0000
  H   H828      1.0  0.97426  0.50819  0.18540  1.0000
  H   H829      1.0  0.89758  0.60074  0.14347  1.0000
  H   H830      1.0  0.53456  0.41991  0.27877  1.0000
  H   H831      1.0  0.86220  0.37859  0.46791  1.0000
  H   H832      1.0  0.98008  0.54619  0.21348  1.0000
  C   C695      1.0  0.53986  0.47177  0.13209  1.0000
  C   C696      1.0  0.96350  0.51739  0.16393  1.0000
  H   H833      1.0  0.66488  0.66012  0.11385  1.0000
  H   H834      1.0  0.65593  0.33156  0.44954  1.0000
  C   C697      1.0  0.53949  0.55555  0.17773  1.0000
  C   C698      1.0  0.55350  0.51893  0.14895  1.0000
  H   H835      1.0  0.52138  0.40706  0.37451  1.0000
  H   H836      1.0  0.52641  0.39171  0.29625  1.0000
  N   N46       1.0  0.69029  0.66032  0.06998  1.0000
  Fe  Fe95      1.0  0.50853  0.61905  0.28813  1.0000
  N   N47       1.0  0.95045  0.53896  0.17828  1.0000
  C   C699      1.0  0.90700  0.57700  0.09955  1.0000
  H   H837      1.0  0.94568  0.52072  0.22886  1.0000
  H   H838      1.0  0.56851  0.46025  0.16692  1.0000
  C   C700      1.0  0.93565  0.55169  0.15085  1.0000
  H   H839      1.0  0.59706  0.53658  0.16860  1.0000
  C   C701      1.0  0.93463  0.54429  0.11393  1.0000
  C   C702      1.0  0.55985  0.63995  0.09965  1.0000
  C   C703      1.0  0.92047  0.55687  0.08880  1.0000
  H   H840      1.0  0.69164  0.64213  0.12102  1.0000
  H   H841      1.0  0.54796  0.55954  0.10745  1.0000
  C   C704      1.0  0.58116  0.54538  0.18152  1.0000
  H   H842      1.0  0.89594  0.66025  0.12240  1.0000
  H   H843      1.0  0.92007  0.55113  0.06070  1.0000
  H   H844      1.0  0.65634  0.64522  0.05676  1.0000
  C   C705      1.0  0.56595  0.49866  0.16350  1.0000
  C   C706      1.0  0.91265  0.65004  0.12272  1.0000
  H   H845      1.0  0.54586  0.63199  0.08386  1.0000
  S   S193      1.0  0.88102  0.33694  0.41196  1.0000
  C   C707      1.0  0.54166  0.47523  0.36364  1.0000
  H   H846      1.0  0.92215  0.57955  0.18802  1.0000
  H   H847      1.0  0.52330  0.52897  0.11428  1.0000
  H   H848      1.0  0.78513  0.65110  0.04634  1.0000
  H   H849      1.0  0.51190  0.48821  0.10034  1.0000
  C   C708      1.0  0.50297  0.46716  0.31788  1.0000
  H   H850      1.0  0.97213  0.61255  0.12500  1.0000
  H   H851      1.0  0.56960  0.57591  0.13096  1.0000
  C   C709      1.0  0.93520  0.53124  0.20845  1.0000
  H   H852      1.0  0.92677  0.54658  0.22342  1.0000
  H   H853      1.0  0.53389  0.51260  0.35482  1.0000
  C   C710      1.0  0.99090  0.65354  0.02803  1.0000
  C   C711      1.0  0.51585  0.44707  0.33219  1.0000
  H   H854      1.0  0.57627  0.65575  0.05313  1.0000
  H   H855      1.0  0.94212  0.66190  0.01586  1.0000
  C   C712      1.0  0.68454  0.65910  0.10914  1.0000
  C   C713      1.0  0.90485  0.33189  0.38117  1.0000
  C   C714      1.0  0.52723  0.49121  0.11752  1.0000
  Fe  Fe96      1.0  0.99417  0.34601  0.28375  1.0000
  H   H856      1.0  0.53415  0.33473  0.39391  1.0000
  C   C715      1.0  0.93912  0.34711  0.34882  1.0000
  C   C716      1.0  0.92035  0.35042  0.37384  1.0000
  C   C717      1.0  0.52863  0.49447  0.34926  1.0000
  H   H857      1.0  0.75758  0.62633  0.01106  1.0000
  H   H858      1.0  0.55691  0.47849  0.38086  1.0000
  C   C718      1.0  0.72598  0.64052  0.03774  1.0000
  H   H859      1.0  0.91962  0.65728  0.17918  1.0000
  C   C719      1.0  0.67574  0.64238  0.05096  1.0000
  C   C720      1.0  0.75058  0.63829  0.03196  1.0000
  H   H860      1.0  0.97691  0.64175  0.03533  1.0000
  Fe  Fe97      1.0  0.94898  0.36322  0.70968  1.0000
  S   S194      1.0  0.92389  0.38909  0.73868  1.0000
  H   H861      1.0  0.57098  0.59887  0.76656  1.0000
  Fe  Fe98      1.0  0.98204  0.35727  0.77528  1.0000
  S   S195      1.0  0.95942  0.38215  0.80980  1.0000
  H   H862      1.0  0.89770  0.34994  0.67091  1.0000
  Fe  Fe99      1.0  0.92831  0.36347  0.78528  1.0000
  H   H863      1.0  0.89624  0.65943  0.93184  1.0000
  Fe  Fe100     1.0  0.95703  0.40613  0.76058  1.0000
  S   S196      1.0  0.96525  0.44552  0.77229  1.0000
  C   C721      1.0  0.90024  0.33882  0.64704  1.0000
  S   S197      1.0  0.98181  0.38202  0.72781  1.0000
  Fe  Fe101     1.0  0.95514  0.58542  0.70706  1.0000
  H   H864      1.0  0.50138  0.52844  0.69955  1.0000
  S   S198      1.0  0.95031  0.54591  0.69101  1.0000
  Fe  Fe102     1.0  0.93298  0.63596  0.69276  1.0000
  S   S199      1.0  0.95625  0.65290  0.73441  1.0000
  H   H865      1.0  0.94709  0.66045  0.49473  1.0000
  H   H866      1.0  0.93657  0.55608  0.76457  1.0000
  Fe  Fe103     1.0  0.94895  0.62176  0.76951  1.0000
  S   S200      1.0  0.93876  0.62180  0.82934  1.0000
  S   S201      1.0  0.96246  0.61430  0.66592  1.0000
  S   S202      1.0  0.92334  0.60609  0.72972  1.0000
  H   H867      1.0  0.87635  0.56417  0.80321  1.0000
  C   C722      1.0  0.53178  0.34674  0.60192  1.0000
  C   C723      1.0  0.90805  0.51019  0.83112  1.0000
  C   C724      1.0  0.52042  0.55016  0.73758  1.0000
  H   H868      1.0  0.94796  0.37993  0.59059  1.0000
  H   H869      1.0  0.54733  0.54132  0.79884  1.0000
  C   C725      1.0  0.54093  0.63482  0.87874  1.0000
  C   C726      1.0  0.52430  0.63707  0.85020  1.0000
  C   C727      1.0  0.97054  0.64338  0.53332  1.0000
  C   C728      1.0  0.97360  0.66235  0.93769  1.0000
  C   C729      1.0  0.53775  0.58554  0.71307  1.0000
  H   H870      1.0  0.53896  0.62104  0.89872  1.0000
  H   H871      1.0  0.52747  0.35893  0.58014  1.0000
  S   S203      1.0  0.94829  0.34796  0.65264  1.0000
  C   C730      1.0  0.85593  0.36718  0.53882  1.0000
  C   C731      1.0  0.90834  0.52753  0.80324  1.0000
  C   C732      1.0  0.87295  0.38810  0.48868  1.0000
  C   C733      1.0  0.51827  0.34790  0.63402  1.0000
  C   C734      1.0  0.90087  0.41930  0.58682  1.0000
  H   H872      1.0  0.91057  0.51473  0.85928  1.0000
  S   S204      1.0  0.89582  0.35015  0.81419  1.0000
  H   H873      1.0  0.86278  0.33234  0.64027  1.0000
  C   C735      1.0  0.92601  0.64674  0.85288  1.0000
  C   C736      1.0  0.89440  0.56859  0.79345  1.0000
  H   H874      1.0  0.92912  0.54999  0.86347  1.0000
  H   H875      1.0  0.89717  0.58783  0.79964  1.0000
  H   H876      1.0  0.90007  0.48904  0.73173  1.0000
  H   H877      1.0  0.50942  0.62535  0.84862  1.0000
  H   H878      1.0  0.89269  0.33698  0.52805  1.0000
  H   H879      1.0  0.89467  0.43613  0.59873  1.0000
  C   C737      1.0  0.90188  0.49503  0.75957  1.0000
  S   S205      1.0  0.95115  0.33686  0.75467  1.0000
  C   C738      1.0  0.91478  0.64311  0.88624  1.0000
  H   H880      1.0  0.94138  0.57708  0.79983  1.0000
  H   H881      1.0  0.98025  0.49284  0.78909  1.0000
  H   H882      1.0  0.91334  0.62518  0.89636  1.0000
  C   C739      1.0  0.90202  0.47847  0.78738  1.0000
  C   C740      1.0  0.93648  0.55838  0.79447  1.0000
  H   H883      1.0  0.90533  0.47297  0.84453  1.0000
  C   C741      1.0  0.96193  0.47290  0.74796  1.0000
  C   C742      1.0  0.95036  0.47454  0.71439  1.0000
  C   C743      1.0  0.94736  0.49690  0.69716  1.0000
  C   C744      1.0  0.95600  0.51792  0.71298  1.0000
  C   C745      1.0  0.96835  0.51607  0.74587  1.0000
  C   C746      1.0  0.97102  0.49383  0.76339  1.0000
  H   H884      1.0  0.94337  0.45868  0.70196  1.0000
  H   H885      1.0  0.93801  0.49797  0.67154  1.0000
  H   H886      1.0  0.97600  0.53178  0.75770  1.0000
  H   H887      1.0  0.94071  0.66123  0.61122  1.0000
  C   C747      1.0  0.52724  0.65419  0.82348  1.0000
  N   N48       1.0  0.91312  0.55297  0.81036  1.0000
  C   C748      1.0  0.99399  0.63659  0.54165  1.0000
  N   N49       1.0  0.87848  0.37274  0.52032  1.0000
  H   H888      1.0  0.86964  0.41575  0.55474  1.0000
  C   C749      1.0  0.53328  0.57122  0.74378  1.0000
  H   H889      1.0  0.89699  0.55534  0.86323  1.0000
  C   C750      1.0  0.51995  0.58073  0.80474  1.0000
  H   H890      1.0  0.99116  0.42620  0.83210  1.0000
  H   H891      1.0  0.54716  0.60198  0.71497  1.0000
  C   C751      1.0  0.89422  0.38526  0.54597  1.0000
  C   C752      1.0  0.55684  0.55824  0.79553  1.0000
  C   C753      1.0  0.90525  0.51914  0.76719  1.0000
  H   H892      1.0  0.91680  0.57880  0.85368  1.0000
  C   C754      1.0  0.88909  0.34995  0.50610  1.0000
  H   H893      1.0  0.90030  0.45966  0.78116  1.0000
  S   S206      1.0  0.98056  0.59975  0.74871  1.0000
  H   H894      1.0  0.51610  0.53846  0.75952  1.0000
  C   C755      1.0  0.88670  0.40749  0.56159  1.0000
  S   S207      1.0  0.63386  0.66067  0.98184  1.0000
  H   H895      1.0  0.90632  0.53102  0.74436  1.0000
  Fe  Fe104     1.0  0.98555  0.62991  0.70937  1.0000
  C   C756      1.0  0.91398  0.55936  0.84948  1.0000
  H   H896      1.0  0.52512  0.58523  0.83304  1.0000
  H   H897      1.0  0.89430  0.56714  0.76343  1.0000
  C   C757      1.0  0.93092  0.38776  0.58206  1.0000
  H   H898      1.0  0.56400  0.56297  0.82275  1.0000
  C   C758      1.0  0.56015  0.65022  0.88165  1.0000
  H   H899      1.0  0.85951  0.35620  0.56337  1.0000
  H   H900      1.0  0.55968  0.60462  0.81114  1.0000
  C   C759      1.0  0.52934  0.57926  0.67867  1.0000
  H   H901      1.0  0.54318  0.61562  0.77328  1.0000
  H   H902      1.0  0.90578  0.35274  0.49071  1.0000
  C   C760      1.0  0.55434  0.60011  0.78284  1.0000
  H   H903      1.0  0.95094  0.54660  0.80574  1.0000
  C   C761      1.0  0.90499  0.48603  0.82308  1.0000
  H   H904      1.0  0.50933  0.55426  0.64728  1.0000
  H   H905      1.0  0.87679  0.34104  0.48712  1.0000
  S   S208      1.0  0.50862  0.65587  0.78463  1.0000
  N   N50       1.0  0.54107  0.57762  0.78090  1.0000
  H   H906      1.0  0.50928  0.56441  0.80616  1.0000
  C   C762      1.0  0.52376  0.33237  0.66248  1.0000
  H   H907      1.0  0.93373  0.41832  0.61715  1.0000
  C   C763      1.0  0.51633  0.55873  0.67378  1.0000
  S   S209      1.0  0.58207  0.64493  0.91563  1.0000
  C   C764      1.0  0.91691  0.37576  0.55687  1.0000
  H   H908      1.0  0.92415  0.35889  0.54689  1.0000
  C   C765      1.0  0.92289  0.40938  0.59716  1.0000
  H   H909      1.0  0.95632  0.63973  0.55212  1.0000
  H   H910      1.0  0.57227  0.55446  0.77724  1.0000
  S   S210      1.0  0.90448  0.66047  0.66776  1.0000
  H   H911      1.0  0.84564  0.38345  0.54760  1.0000
  C   C766      1.0  0.90521  0.66251  0.90653  1.0000
  H   H912      1.0  0.50377  0.36098  0.63688  1.0000
  S   S211      1.0  0.50748  0.33326  0.70357  1.0000
  H   H913      1.0  0.53241  0.59071  0.65576  1.0000
  H   H914      1.0  0.84392  0.35688  0.52097  1.0000
  H   H915      1.0  0.98041  0.64347  0.93802  1.0000
  H   H916      1.0  0.50782  0.59536  0.79484  1.0000
  C   C767      1.0  0.51193  0.54418  0.70318  1.0000
  H   H917      1.0  0.93114  0.65918  0.97086  1.0000
  C   C768      1.0  0.92312  0.33490  0.63291  1.0000
  C   C769      1.0  0.96538  0.65496  0.50088  1.0000
  H   H918      1.0  0.86257  0.40459  0.49618  1.0000
  H   H919      1.0  0.95783  0.66320  0.91922  1.0000
  S   S212      1.0  0.88925  0.78847  0.38693  1.0000
  C   C770      1.0  0.98052  0.82742  0.37334  1.0000
  Fe  Fe105     1.0  0.61263  0.76017  0.44218  1.0000
  S   S213      1.0  0.63034  0.78641  0.40580  1.0000
  S   S214      1.0  0.58744  0.73065  0.42519  1.0000
  Fe  Fe106     1.0  0.65850  0.78915  0.45028  1.0000
  S   S215      1.0  0.69848  0.79530  0.43878  1.0000
  Fe  Fe107     1.0  0.60921  0.81444  0.43701  1.0000
  S   S216      1.0  0.58697  0.84604  0.41523  1.0000
  S   S217      1.0  0.64059  0.71715  0.00205  1.0000
  Fe  Fe108     1.0  0.94357  0.87930  0.24649  1.0000
  S   S218      1.0  0.92663  0.89924  0.19975  1.0000
  S   S219      1.0  0.92633  0.87850  0.30227  1.0000
  H   H920      1.0  0.50507  0.95271  0.33027  1.0000
  S   S220      1.0  0.97705  0.89073  0.15694  1.0000
  H   H921      1.0  0.55684  0.96034  0.33019  1.0000
  Fe  Fe109     1.0  0.96141  0.91817  0.19629  1.0000
  S   S221      1.0  0.96135  0.95833  0.18333  1.0000
  Fe  Fe110     1.0  0.94366  0.87029  0.16454  1.0000
  S   S222      1.0  0.92860  0.85367  0.11317  1.0000
  S   S223      1.0  0.97754  0.89965  0.24469  1.0000
  S   S224      1.0  0.95763  0.84900  0.21156  1.0000
  Fe  Fe111     1.0  0.87992  0.72504  0.05356  1.0000
  S   S225      1.0  0.85703  0.69526  0.07193  1.0000
  S   S226      1.0  0.89705  0.74580  0.09973  1.0000
  Fe  Fe112     1.0  0.83503  0.70200  0.02115  1.0000
  H   H922      1.0  0.94476  0.74147  0.12694  1.0000
  H   H923      1.0  0.68501  0.68511  0.02667  1.0000
  H   H924      1.0  0.94273  0.79559  0.42433  1.0000
  Fe  Fe113     1.0  0.61760  0.68749  0.02071  1.0000
  S   S227      1.0  0.51563  0.83929  0.28120  1.0000
  C   C771      1.0  0.68273  0.68417  0.05650  1.0000
  C   C772      1.0  0.96293  0.98532  0.20935  1.0000
  C   C773      1.0  0.96817  0.98546  0.24642  1.0000
  H   H925      1.0  0.57781  0.67786  0.23984  1.0000
  S   S228      1.0  0.85688  0.67483  0.98845  1.0000
  H   H926      1.0  0.97282  0.96888  0.25975  1.0000
  C   C774      1.0  0.58137  0.89161  0.31793  1.0000
  C   C775      1.0  0.54819  0.96066  0.30313  1.0000
  C   C776      1.0  0.91932  0.82383  0.10994  1.0000
  C   C777      1.0  0.92100  0.80842  0.13942  1.0000
  C   C778      1.0  0.91394  0.78467  0.13571  1.0000
  C   C779      1.0  0.90513  0.77604  0.10257  1.0000
  C   C780      1.0  0.90373  0.79133  0.07291  1.0000
  C   C781      1.0  0.91079  0.81514  0.07663  1.0000
  H   H927      1.0  0.92749  0.81487  0.16517  1.0000
  H   H928      1.0  0.91498  0.77300  0.15885  1.0000
  H   H929      1.0  0.89700  0.78490  0.04726  1.0000
  H   H930      1.0  0.90942  0.82695  0.05367  1.0000
  H   H931      1.0  0.50900  0.96156  0.26505  1.0000
  C   C782      1.0  0.58987  0.70666  0.39357  1.0000
  C   C783      1.0  0.61087  0.70113  0.37460  1.0000
  H   H932      1.0  0.97870  0.66834  0.45151  1.0000
  H   H933      1.0  0.98981  0.80170  0.12674  1.0000
  C   C784      1.0  0.56979  0.69278  0.38731  1.0000
  H   H934      1.0  0.62644  0.71164  0.37917  1.0000
  C   C785      1.0  0.95371  0.80035  0.40161  1.0000
  H   H935      1.0  0.55348  0.69701  0.40183  1.0000
  C   C786      1.0  0.53462  0.84112  0.31949  1.0000
  C   C787      1.0  0.55292  0.82369  0.32397  1.0000
  C   C788      1.0  0.56858  0.82454  0.35377  1.0000
  C   C789      1.0  0.56659  0.84335  0.37880  1.0000
  C   C790      1.0  0.54847  0.86101  0.37408  1.0000
  C   C791      1.0  0.53239  0.85979  0.34476  1.0000
  H   H936      1.0  0.55524  0.80960  0.30400  1.0000
  H   H937      1.0  0.58260  0.81098  0.35687  1.0000
  H   H938      1.0  0.54698  0.87576  0.39312  1.0000
  C   C792      1.0  0.72377  0.70867  0.99847  1.0000
  C   C793      1.0  0.89973  0.81360  0.36381  1.0000
  C   C794      1.0  0.90220  0.83559  0.38132  1.0000
  C   C795      1.0  0.91051  0.85520  0.36208  1.0000
  C   C796      1.0  0.91668  0.85298  0.32532  1.0000
  C   C797      1.0  0.91453  0.83090  0.30788  1.0000
  C   C798      1.0  0.90591  0.81135  0.32702  1.0000
  H   H939      1.0  0.89758  0.83754  0.40964  1.0000
  H   H940      1.0  0.91212  0.87220  0.37580  1.0000
  H   H941      1.0  0.91905  0.82900  0.27954  1.0000
  H   H942      1.0  0.90407  0.79439  0.31328  1.0000
  H   H943      1.0  0.90819  0.97607  0.21726  1.0000
  H   H944      1.0  0.97405  0.74237  0.14620  1.0000
  S   S229      1.0  0.59047  0.78844  0.47159  1.0000
  H   H945      1.0  0.56218  0.73702  0.20126  1.0000
  H   H946      1.0  0.54583  0.76229  0.43171  1.0000
  H   H947      1.0  0.70772  0.71822  0.00709  1.0000
  H   H948      1.0  0.49948  0.69698  0.47864  1.0000
  Fe  Fe114     1.0  0.99024  0.87083  0.20568  1.0000
  C   C799      1.0  0.72699  0.79004  0.46006  1.0000
  H   H949      1.0  0.52647  0.93344  0.35272  1.0000
  H   H950      1.0  0.56878  0.92359  0.34349  1.0000
  N   N51       1.0  0.53372  0.93937  0.29610  1.0000
  C   C800      1.0  0.97771  0.72718  0.07736  1.0000
  C   C801      1.0  0.98047  0.81400  0.34052  1.0000
  H   H951      1.0  0.56234  0.96216  0.28229  1.0000
  C   C802      1.0  0.54926  0.91756  0.29305  1.0000
  C   C803      1.0  0.59515  0.66386  0.10231  1.0000
  C   C804      1.0  0.54677  0.90045  0.26472  1.0000
  C   C805      1.0  0.53490  0.76561  0.32245  1.0000
  C   C806      1.0  0.56148  0.87984  0.26300  1.0000
  H   H952      1.0  0.69306  0.69871  0.06894  1.0000
  C   C807      1.0  0.94960  0.69789  0.09698  1.0000
  H   H953      1.0  0.78417  0.80985  0.45518  1.0000
  C   C808      1.0  0.51702  0.93659  0.32663  1.0000
  C   C809      1.0  0.61186  0.68164  0.35014  1.0000
  H   H954      1.0  0.96679  0.83170  0.42761  1.0000
  H   H955      1.0  0.96638  0.84711  0.29290  1.0000
  H   H956      1.0  0.62830  0.67729  0.33597  1.0000
  C   C810      1.0  0.90144  0.97739  0.27559  1.0000
  H   H957      1.0  0.56334  0.68294  0.28227  1.0000
  H   H958      1.0  0.74626  0.72651  0.03707  1.0000
  H   H959      1.0  0.53323  0.90221  0.24401  1.0000
  H   H960      1.0  0.52665  0.71396  0.21041  1.0000
  H   H961      1.0  0.55874  0.86663  0.24187  1.0000
  C   C811      1.0  0.51439  0.81371  0.41347  1.0000
  N   N52       1.0  0.90361  0.95124  0.28072  1.0000
  C   C812      1.0  0.89742  0.94351  0.31782  1.0000
  C   C813      1.0  0.88777  0.93869  0.25505  1.0000
  C   C814      1.0  0.98883  0.66939  0.99818  1.0000
  C   C815      1.0  0.98581  0.84650  0.29888  1.0000
  H   H962      1.0  0.51876  0.87364  0.34112  1.0000
  C   C816      1.0  0.53463  0.74921  0.26159  1.0000
  H   H963      1.0  0.53086  0.94531  0.23851  1.0000
  H   H964      1.0  0.76944  0.67984  0.09175  1.0000
  H   H965      1.0  0.59413  0.88753  0.33933  1.0000
  H   H966      1.0  0.87897  0.94954  0.32521  1.0000
  H   H967      1.0  0.89838  0.92367  0.32021  1.0000
  N   N53       1.0  0.55821  0.71176  0.24455  1.0000
  H   H968      1.0  0.86897  0.94539  0.25773  1.0000
  H   H969      1.0  0.88824  0.91904  0.25973  1.0000
  H   H970      1.0  0.51392  0.70318  0.33985  1.0000
  H   H971      1.0  0.98068  0.68675  0.14757  1.0000
  C   C817      1.0  0.74665  0.80298  0.44843  1.0000
  H   H972      1.0  0.57111  0.71654  0.31826  1.0000
  H   H973      1.0  0.55739  0.74692  0.36076  1.0000
  C   C818      1.0  0.57256  0.72301  0.21617  1.0000
  C   C819      1.0  0.96900  0.75466  0.02714  1.0000
  C   C820      1.0  0.55852  0.72986  0.30820  1.0000
  H   H974      1.0  0.93331  0.70821  0.08857  1.0000
  N   N54       1.0  0.81717  0.77041  0.37857  1.0000
  C   C821      1.0  0.82205  0.78735  0.40848  1.0000
  C   C822      1.0  0.83232  0.74844  0.38350  1.0000
  C   C823      1.0  0.82467  0.78156  0.34426  1.0000
  C   C824      1.0  0.79161  0.76464  0.37936  1.0000
  C   C825      1.0  0.77504  0.77261  0.35246  1.0000
  C   C826      1.0  0.78232  0.75178  0.40879  1.0000
  C   C827      1.0  0.75077  0.76794  0.35519  1.0000
  C   C828      1.0  0.75811  0.74691  0.41090  1.0000
  C   C829      1.0  0.74233  0.75518  0.38436  1.0000
  H   H975      1.0  0.84102  0.79244  0.40885  1.0000
  H   H976      1.0  0.81096  0.80405  0.40582  1.0000
  H   H977      1.0  0.81821  0.77972  0.43546  1.0000
  H   H978      1.0  0.82808  0.73465  0.36281  1.0000
  H   H979      1.0  0.83017  0.74043  0.41063  1.0000
  H   H980      1.0  0.85166  0.75213  0.38129  1.0000
  H   H981      1.0  0.81572  0.79935  0.34027  1.0000
  H   H982      1.0  0.84418  0.78483  0.34419  1.0000
  H   H983      1.0  0.82101  0.76989  0.32048  1.0000
  H   H984      1.0  0.78026  0.78285  0.32940  1.0000
  H   H985      1.0  0.79349  0.74617  0.43127  1.0000
  H   H986      1.0  0.73827  0.77463  0.33496  1.0000
  H   H987      1.0  0.75137  0.73755  0.43409  1.0000
  H   H988      1.0  0.72340  0.75226  0.38700  1.0000
  N   N55       1.0  0.96920  0.71340  0.10854  1.0000
  H   H989      1.0  0.93404  0.94708  0.24547  1.0000
  C   C830      1.0  0.98796  0.69772  0.12534  1.0000
  C   C831      1.0  0.53710  0.70106  0.22725  1.0000
  C   C832      1.0  0.92858  0.94333  0.27367  1.0000
  C   C833      1.0  0.57068  0.67349  0.36252  1.0000
  H   H990      1.0  0.51707  0.79970  0.00237  1.0000
  H   H991      1.0  0.94366  0.68659  0.11954  1.0000
  S   S230      1.0  0.85895  0.81558  0.47881  1.0000
  H   H992      1.0  0.95534  0.70404  0.99968  1.0000
  C   C834      1.0  0.99125  0.80665  0.27612  1.0000
  H   H993      1.0  0.98890  0.85988  0.32058  1.0000
  H   H994      1.0  0.51533  0.78145  0.27827  1.0000
  S   S231      1.0  0.90449  0.70055  0.02203  1.0000
  H   H995      1.0  0.97978  0.85041  0.08976  1.0000
  C   C835      1.0  0.96001  0.73017  0.13686  1.0000
  C   C836      1.0  0.50935  0.76432  0.41332  1.0000
  C   C837      1.0  0.53094  0.77392  0.42366  1.0000
  H   H996      1.0  0.91014  0.95020  0.33841  1.0000
  C   C838      1.0  0.51939  0.94432  0.26291  1.0000
  H   H997      1.0  0.94106  0.95246  0.29222  1.0000
  H   H998      1.0  0.55039  0.80602  0.43075  1.0000
  C   C839      1.0  0.53348  0.79852  0.42337  1.0000
  C   C840      1.0  0.96717  0.82074  0.40326  1.0000
  H   H999      1.0  0.89314  0.94077  0.22636  1.0000
  H   H1000     1.0  0.97227  0.80628  0.26726  1.0000
  N   N56       1.0  0.99403  0.82202  0.30877  1.0000
  H   H1001     1.0  0.95842  0.82865  0.04555  1.0000
  C   C841      1.0  0.76960  0.79922  0.46381  1.0000
  H   H1002     1.0  0.54226  0.68592  0.20873  1.0000
  S   S232      1.0  0.85694  0.73334  0.00481  1.0000
  C   C842      1.0  0.95365  0.78649  0.37016  1.0000
  C   C843      1.0  0.96672  0.79312  0.33992  1.0000
  H   H1003     1.0  0.94261  0.74243  0.06298  1.0000
  C   C844      1.0  0.55043  0.73006  0.27165  1.0000
  H   H1004     1.0  0.58957  0.85908  0.28863  1.0000
  C   C845      1.0  0.57880  0.87549  0.28941  1.0000
  H   H1005     1.0  0.52931  0.77939  0.34168  1.0000
  Fe  Fe115     1.0  0.88074  0.67129  0.03771  1.0000
  C   C846      1.0  0.97270  0.82442  0.02667  1.0000
  H   H1006     1.0  0.51776  0.83253  0.41396  1.0000
  H   H1007     1.0  0.58842  0.73156  0.22819  1.0000
  S   S233      1.0  0.61728  0.68072  0.08143  1.0000
  H   H1008     1.0  0.98661  0.78446  0.08574  1.0000
  C   C847      1.0  0.98548  0.80281  0.09735  1.0000
  S   S234      1.0  0.86372  0.75686  0.47007  1.0000
  H   H1009     1.0  0.57907  0.70966  0.19558  1.0000
  C   C848      1.0  0.96141  0.74135  0.05653  1.0000
  C   C849      1.0  0.56672  0.91224  0.32000  1.0000
  Fe  Fe116     1.0  0.88168  0.78881  0.44753  1.0000
  C   C850      1.0  0.50681  0.81302  0.98727  1.0000
  S   S235      1.0  0.79430  0.70860  0.02713  1.0000
  H   H1010     1.0  0.99052  0.84349  0.37587  1.0000
  C   C851      1.0  0.76724  0.70215  0.00368  1.0000
  H   H1011     1.0  0.50530  0.92120  0.32182  1.0000
  C   C852      1.0  0.74579  0.71359  0.01517  1.0000
  H   H1012     1.0  0.96525  0.78187  0.31623  1.0000
  C   C853      1.0  0.90431  0.98727  0.24066  1.0000
  C   C854      1.0  0.50110  0.67814  0.46883  1.0000
  C   C855      1.0  0.55072  0.74734  0.33311  1.0000
  H   H1013     1.0  0.52829  0.75102  0.23406  1.0000
  H   H1014     1.0  0.96658  0.80925  0.09607  1.0000
  H   H1015     1.0  0.93134  0.92386  0.27749  1.0000
  H   H1016     1.0  0.95612  0.76531  0.01169  1.0000
  H   H1017     1.0  0.53703  0.97749  0.30269  1.0000
  H   H1018     1.0  0.74406  0.81611  0.42740  1.0000
  H   H1019     1.0  0.95332  0.72052  0.16083  1.0000
  C   C856      1.0  0.57300  0.69195  0.26027  1.0000
  H   H1020     1.0  0.50576  0.93067  0.25824  1.0000
  H   H1021     1.0  0.94252  0.77103  0.36883  1.0000
  H   H1022     1.0  0.59018  0.69817  0.27146  1.0000
  S   S236      1.0  0.63842  0.81954  0.47824  1.0000
  H   H1023     1.0  0.52485  0.69406  0.24802  1.0000
  H   H1024     1.0  0.51447  0.67636  0.39121  1.0000
  C   C857      1.0  0.52700  0.76667  0.28671  1.0000
  H   H1025     1.0  0.95516  0.68584  0.07425  1.0000
  H   H1026     1.0  0.69175  0.67417  0.12496  1.0000
  C   C858      1.0  0.59185  0.66767  0.34407  1.0000
  H   H1027     1.0  0.50757  0.74513  0.41329  1.0000
  H   H1028     1.0  0.99527  0.85289  0.27456  1.0000
  H   H1029     1.0  0.51860  0.67589  0.45493  1.0000
  H   H1030     1.0  0.72670  0.68423  0.10284  1.0000
  H   H1031     1.0  0.66365  0.68834  0.06231  1.0000
  C   C859      1.0  0.96713  0.82504  0.98975  1.0000
  H   H1032     1.0  0.60991  0.66865  0.15576  1.0000
  C   C860      1.0  0.49931  0.70412  0.35901  1.0000
  H   H1033     1.0  0.99596  0.68494  0.10524  1.0000
  C   C861      1.0  0.73271  0.67071  0.08365  1.0000
  S   S237      1.0  0.64204  0.76077  0.48438  1.0000
  C   C862      1.0  0.49939  0.68869  0.38851  1.0000
  C   C863      1.0  0.99305  0.75455  0.01794  1.0000
  H   H1034     1.0  0.89633  0.98809  0.33254  1.0000
  C   C864      1.0  0.75724  0.66833  0.07762  1.0000
  C   C865      1.0  0.89817  0.99380  0.30493  1.0000
  C   C866      1.0  0.99628  0.81914  0.03895  1.0000
  S   S238      1.0  0.97100  0.82841  0.68992  1.0000
  C   C867      1.0  0.90814  0.67863  0.62940  1.0000
  H   H1035     1.0  0.76945  0.80214  0.61095  1.0000
  Fe  Fe117     1.0  0.89107  0.75731  0.51472  1.0000
  S   S239      1.0  0.86867  0.78160  0.55058  1.0000
  S   S240      1.0  0.91666  0.72676  0.53056  1.0000
  Fe  Fe118     1.0  0.84213  0.78353  0.50368  1.0000
  N   N57       1.0  0.96666  0.72046  0.67945  1.0000
  Fe  Fe119     1.0  0.88719  0.81124  0.52260  1.0000
  S   S241      1.0  0.90734  0.84164  0.54838  1.0000
  H   H1036     1.0  0.95110  0.79053  0.55187  1.0000
  C   C868      1.0  0.59146  0.95599  0.72031  1.0000
  C   C869      1.0  0.75377  0.76930  0.50259  1.0000
  S   S242      1.0  0.61891  0.79442  0.57189  1.0000
  S   S243      1.0  0.89699  0.71077  0.92018  1.0000
  C   C870      1.0  0.89106  0.69689  0.62222  1.0000
  Fe  Fe120     1.0  0.61173  0.72486  0.96092  1.0000
  S   S244      1.0  0.62790  0.70062  0.91813  1.0000
  S   S245      1.0  0.59656  0.76243  0.95304  1.0000
  H   H1037     1.0  0.94203  0.75014  0.66836  1.0000
  H   H1038     1.0  0.93677  0.95781  0.64118  1.0000
  H   H1039     1.0  0.67237  0.76667  0.95969  1.0000
  Fe  Fe121     1.0  0.54189  0.85589  0.72521  1.0000
  S   S246      1.0  0.57270  0.87475  0.74974  1.0000
  S   S247      1.0  0.53912  0.85109  0.66412  1.0000
  Fe  Fe122     1.0  0.51793  0.84896  0.79963  1.0000
  S   S248      1.0  0.54710  0.86825  0.82847  1.0000
  Fe  Fe123     1.0  0.54477  0.89502  0.78257  1.0000
  S   S249      1.0  0.54898  0.93529  0.79370  1.0000
  Fe  Fe124     1.0  0.57199  0.84662  0.79283  1.0000
  S   S250      1.0  0.60397  0.82361  0.81003  1.0000
  H   H1040     1.0  0.51745  0.98401  0.69154  1.0000
  S   S251      1.0  0.54325  0.82643  0.76552  1.0000
  C   C871      1.0  0.60100  0.80617  0.84917  1.0000
  C   C872      1.0  0.61185  0.78324  0.85059  1.0000
  C   C873      1.0  0.61033  0.76938  0.88205  1.0000
  C   C874      1.0  0.59855  0.77871  0.91261  1.0000
  C   C875      1.0  0.58789  0.80168  0.91124  1.0000
  C   C876      1.0  0.58882  0.81525  0.87951  1.0000
  H   H1041     1.0  0.62126  0.77616  0.82712  1.0000
  H   H1042     1.0  0.61829  0.75158  0.88267  1.0000
  H   H1043     1.0  0.57891  0.80907  0.93488  1.0000
  H   H1044     1.0  0.58067  0.83300  0.87881  1.0000
  C   C877      1.0  0.52692  0.98415  0.71705  1.0000
  H   H1045     1.0  0.75481  0.83887  0.51198  1.0000
  C   C878      1.0  0.98860  0.75874  0.68594  1.0000
  C   C879      1.0  0.76629  0.68566  0.97504  1.0000
  C   C880      1.0  0.98495  0.72755  0.56201  1.0000
  H   H1046     1.0  0.98167  0.80564  0.59108  1.0000
  C   C881      1.0  0.53041  0.96257  0.73624  1.0000
  C   C882      1.0  0.54293  0.96222  0.76907  1.0000
  C   C883      1.0  0.55137  0.98396  0.78275  1.0000
  C   C884      1.0  0.50221  0.83792  0.93471  1.0000
  H   H1047     1.0  0.52338  0.94620  0.72579  1.0000
  C   C885      1.0  0.72029  0.77042  0.94511  1.0000
  C   C886      1.0  0.59658  0.81051  0.59679  1.0000
  C   C887      1.0  0.59872  0.81204  0.63469  1.0000
  C   C888      1.0  0.58130  0.82441  0.65563  1.0000
  C   C889      1.0  0.56143  0.83525  0.63884  1.0000
  C   C890      1.0  0.55939  0.83394  0.60091  1.0000
  C   C891      1.0  0.57691  0.82169  0.57993  1.0000
  H   H1048     1.0  0.61382  0.80340  0.64801  1.0000
  H   H1049     1.0  0.58311  0.82530  0.68479  1.0000
  H   H1050     1.0  0.54408  0.84227  0.58769  1.0000
  H   H1051     1.0  0.57503  0.82062  0.55081  1.0000
  C   C892      1.0  0.96557  0.94063  0.69503  1.0000
  Fe  Fe125     1.0  0.60491  0.67288  0.94292  1.0000
  H   H1052     1.0  0.95339  0.94256  0.60527  1.0000
  Fe  Fe126     1.0  0.65545  0.69085  0.96117  1.0000
  C   C893      1.0  0.75165  0.73459  0.91932  1.0000
  H   H1053     1.0  0.56514  0.96829  0.62512  1.0000
  C   C894      1.0  0.91279  0.70853  0.56879  1.0000
  C   C895      1.0  0.89343  0.71190  0.59216  1.0000
  C   C896      1.0  0.98854  0.73429  0.67544  1.0000
  C   C897      1.0  0.72271  0.69174  0.97043  1.0000
  C   C898      1.0  0.91850  0.68948  0.86072  1.0000
  C   C899      1.0  0.92985  0.69027  0.57594  1.0000
  H   H1054     1.0  0.88012  0.72585  0.58690  1.0000
  H   H1055     1.0  0.97805  0.95562  0.69275  1.0000
  H   H1056     1.0  0.94464  0.68743  0.55770  1.0000
  C   C900      1.0  0.95521  0.83126  0.64857  1.0000
  C   C901      1.0  0.93770  0.81470  0.64023  1.0000
  C   C902      1.0  0.92358  0.81714  0.60884  1.0000
  C   C903      1.0  0.92658  0.83644  0.58577  1.0000
  C   C904      1.0  0.94457  0.85262  0.59354  1.0000
  C   C905      1.0  0.95902  0.84991  0.62461  1.0000
  H   H1057     1.0  0.93461  0.80025  0.65865  1.0000
  H   H1058     1.0  0.90973  0.80464  0.60325  1.0000
  H   H1059     1.0  0.94699  0.86759  0.57583  1.0000
  H   H1060     1.0  0.97249  0.86268  0.63073  1.0000
  N   N58       1.0  0.68953  0.80893  0.57268  1.0000
  C   C906      1.0  0.68363  0.79075  0.54507  1.0000
  C   C907      1.0  0.68253  0.79982  0.60866  1.0000
  C   C908      1.0  0.67485  0.83100  0.56587  1.0000
  C   C909      1.0  0.71524  0.81377  0.56997  1.0000
  C   C910      1.0  0.73229  0.80539  0.59587  1.0000
  C   C911      1.0  0.72414  0.82585  0.53949  1.0000
  C   C912      1.0  0.75662  0.80922  0.59150  1.0000
  C   C913      1.0  0.74841  0.83000  0.53582  1.0000
  C   C914      1.0  0.76465  0.82153  0.56160  1.0000
  H   H1061     1.0  0.69449  0.77401  0.54889  1.0000
  H   H1062     1.0  0.66461  0.78600  0.54646  1.0000
  H   H1063     1.0  0.68680  0.79704  0.51707  1.0000
  H   H1064     1.0  0.69056  0.78178  0.61394  1.0000
  H   H1065     1.0  0.66289  0.79764  0.61052  1.0000
  H   H1066     1.0  0.68752  0.81229  0.63082  1.0000
  H   H1067     1.0  0.67583  0.83697  0.53734  1.0000
  H   H1068     1.0  0.65554  0.82828  0.57066  1.0000
  H   H1069     1.0  0.68037  0.84587  0.58383  1.0000
  H   H1070     1.0  0.72739  0.79538  0.61933  1.0000
  H   H1071     1.0  0.71254  0.83137  0.51747  1.0000
  C   C915      1.0  0.90728  0.68583  0.89409  1.0000
  H   H1072     1.0  0.95050  0.76395  0.57773  1.0000
  H   H1073     1.0  0.78359  0.82376  0.55773  1.0000
  H   H1074     1.0  0.66125  0.73864  0.87150  1.0000
  H   H1075     1.0  0.92163  0.92082  0.61299  1.0000
  H   H1076     1.0  0.78253  0.67667  0.96582  1.0000
  C   C916      1.0  0.74381  0.76887  0.95778  1.0000
  C   C917      1.0  0.59129  0.97879  0.70572  1.0000
  S   S252      1.0  0.80203  0.77661  0.51176  1.0000
  H   H1077     1.0  0.92010  0.70745  0.85081  1.0000
  H   H1078     1.0  0.55106  0.78543  0.86241  1.0000
  S   S253      1.0  0.58732  0.69775  0.98357  1.0000
  H   H1079     1.0  0.71626  0.76231  0.49567  1.0000
  H   H1080     1.0  0.77747  0.74934  0.95558  1.0000
  C   C918      1.0  0.55124  0.73797  0.86642  1.0000
  Fe  Fe127     1.0  0.62082  0.79132  0.51034  1.0000
  H   H1081     1.0  0.67547  0.73502  0.95289  1.0000
  H   H1082     1.0  0.95482  0.76232  0.52934  1.0000
  H   H1083     1.0  0.75636  0.75609  0.52352  1.0000
  C   C919      1.0  0.98489  0.82084  0.96398  1.0000
  H   H1084     1.0  0.54862  0.72034  0.85333  1.0000
  Fe  Fe128     1.0  0.87978  0.70560  0.97500  1.0000
  H   H1085     1.0  0.53789  0.76608  0.80987  1.0000
  H   H1086     1.0  0.50872  0.84375  0.90866  1.0000
  N   N59       1.0  0.98571  0.77304  0.55977  1.0000
  H   H1087     1.0  0.98334  0.68535  0.68225  1.0000
  C   C920      1.0  0.68078  0.77905  0.89138  1.0000
  C   C921      1.0  0.95947  0.77231  0.55446  1.0000
  H   H1088     1.0  0.66208  0.78043  0.88110  1.0000
  C   C922      1.0  0.94674  0.73180  0.65861  1.0000
  H   H1089     1.0  0.50930  0.71096  0.84991  1.0000
  H   H1090     1.0  0.74374  0.66752  0.93681  1.0000
  H   H1091     1.0  0.56099  0.98401  0.80818  1.0000
  H   H1092     1.0  0.98947  0.90356  0.66537  1.0000
  H   H1093     1.0  0.89350  0.88913  0.61735  1.0000
  H   H1094     1.0  0.76375  0.72032  0.91014  1.0000
  C   C923      1.0  0.98269  0.91721  0.64593  1.0000
  N   N60       1.0  0.68638  0.75534  0.90745  1.0000
  C   C924      1.0  0.95850  0.69619  0.97230  1.0000
  C   C925      1.0  0.49790  0.75500  0.91287  1.0000
  H   H1095     1.0  0.95117  0.73271  0.62934  1.0000
  H   H1096     1.0  0.72315  0.72192  0.88797  1.0000
  H   H1097     1.0  0.97467  0.92813  0.71416  1.0000
  H   H1098     1.0  0.93015  0.72149  0.66079  1.0000
  H   H1099     1.0  0.50314  0.77207  0.92338  1.0000
  H   H1100     1.0  0.87589  0.69943  0.64001  1.0000
  H   H1101     1.0  0.98633  0.80321  0.52389  1.0000
  H   H1102     1.0  0.54868  0.68310  0.80601  1.0000
  H   H1103     1.0  0.65158  0.75200  0.93150  1.0000
  H   H1104     1.0  0.97462  0.71173  0.73484  1.0000
  N   N61       1.0  0.52979  0.75407  0.86375  1.0000
  H   H1105     1.0  0.93634  0.67306  0.81445  1.0000
  C   C926      1.0  0.54619  0.66987  0.82668  1.0000
  H   H1106     1.0  0.98707  0.68905  0.56333  1.0000
  C   C927      1.0  0.58183  0.98272  0.67130  1.0000
  H   H1107     1.0  0.94384  0.70896  0.72245  1.0000
  H   H1108     1.0  0.68277  0.71855  0.89109  1.0000
  H   H1109     1.0  0.68247  0.79389  0.91126  1.0000
  H   H1110     1.0  0.98747  0.67314  0.92488  1.0000
  H   H1111     1.0  0.52124  0.79098  0.87676  1.0000
  C   C928      1.0  0.74418  0.68046  0.95870  1.0000
  S   S254      1.0  0.69535  0.68452  0.94833  1.0000
  C   C929      1.0  0.94186  0.91151  0.66227  1.0000
  C   C930      1.0  0.94291  0.89429  0.69023  1.0000
  C   C931      1.0  0.92341  0.90923  0.63604  1.0000
  C   C932      1.0  0.92621  0.87642  0.69240  1.0000
  C   C933      1.0  0.90694  0.89111  0.63827  1.0000
  C   C934      1.0  0.90831  0.87478  0.66642  1.0000
  H   H1112     1.0  0.54285  0.77644  0.90679  1.0000
  H   H1113     1.0  0.50704  0.76884  0.82209  1.0000
  H   H1114     1.0  0.97968  0.90792  0.61962  1.0000
  C   C935      1.0  0.71166  0.75386  0.91926  1.0000
  C   C936      1.0  0.95988  0.71982  0.71821  1.0000
  C   C937      1.0  0.67079  0.75216  0.93923  1.0000
  C   C938      1.0  0.50964  0.74350  0.88305  1.0000
  C   C939      1.0  0.96945  0.69537  0.66652  1.0000
  C   C940      1.0  0.75943  0.75095  0.94497  1.0000
  H   H1115     1.0  0.52045  0.74008  0.81090  1.0000
  H   H1116     1.0  0.94890  0.94776  0.70796  1.0000
  H   H1117     1.0  0.92787  0.86304  0.71339  1.0000
  C   C941      1.0  0.53639  0.77773  0.87832  1.0000
  H   H1118     1.0  0.89600  0.86029  0.66736  1.0000
  N   N62       1.0  0.56171  0.92013  0.64583  1.0000
  C   C942      1.0  0.55572  0.92545  0.60747  1.0000
  C   C943      1.0  0.57830  0.89889  0.64577  1.0000
  C   C944      1.0  0.53939  0.91402  0.66440  1.0000
  C   C945      1.0  0.57250  0.94031  0.66537  1.0000
  C   C946      1.0  0.58203  0.93707  0.70068  1.0000
  C   C947      1.0  0.57258  0.96384  0.65123  1.0000
  H   H1119     1.0  0.69284  0.78252  0.86829  1.0000
  H   H1120     1.0  0.56698  0.74571  0.85311  1.0000
  H   H1121     1.0  0.96776  0.96309  0.63403  1.0000
  H   H1122     1.0  0.54143  0.93960  0.60528  1.0000
  H   H1123     1.0  0.57173  0.93095  0.59234  1.0000
  H   H1124     1.0  0.54872  0.90952  0.59314  1.0000
  H   H1125     1.0  0.59626  0.90341  0.63584  1.0000
  H   H1126     1.0  0.57166  0.88421  0.62831  1.0000
  H   H1127     1.0  0.58042  0.89079  0.67297  1.0000
  H   H1128     1.0  0.52674  0.92968  0.66598  1.0000
  H   H1129     1.0  0.53013  0.89941  0.65006  1.0000
  H   H1130     1.0  0.54273  0.90780  0.69256  1.0000
  H   H1131     1.0  0.58143  0.92009  0.71409  1.0000
  H   H1132     1.0  0.69120  0.73836  0.85517  1.0000
  H   H1133     1.0  0.95275  0.68547  0.67000  1.0000
  C   C948      1.0  0.52348  0.75729  0.82501  1.0000
  C   C949      1.0  0.68026  0.73691  0.88007  1.0000
  C   C950      1.0  0.56245  0.66808  0.85580  1.0000
  H   H1134     1.0  0.96582  0.72734  0.55903  1.0000
  H   H1135     1.0  0.95712  0.89387  0.70995  1.0000
  H   H1136     1.0  0.97283  0.76780  0.69679  1.0000
  S   S255      1.0  0.51355  0.87716  0.75620  1.0000
  H   H1137     1.0  0.55619  0.73466  0.89526  1.0000
  N   N63       1.0  0.96058  0.92941  0.65924  1.0000
  C   C951      1.0  0.92761  0.67539  0.60614  1.0000
  H   H1138     1.0  0.95556  0.73787  0.72953  1.0000
  H   H1139     1.0  0.70877  0.78443  0.95626  1.0000
  H   H1140     1.0  0.74991  0.78135  0.97812  1.0000
  H   H1141     1.0  0.97093  0.70774  0.95779  1.0000
  H   H1142     1.0  0.94137  0.69777  0.95696  1.0000
  C   C952      1.0  0.72812  0.73581  0.90669  1.0000
  C   C953      1.0  0.50116  0.72093  0.87212  1.0000
  C   C954      1.0  0.95417  0.94901  0.63381  1.0000
  H   H1143     1.0  0.59780  0.95315  0.74778  1.0000
  H   H1144     1.0  0.57735  0.67979  0.85742  1.0000
  C   C955      1.0  0.51544  0.82105  0.95440  1.0000
  N   N64       1.0  0.96740  0.67101  0.97465  1.0000
  H   H1145     1.0  0.98061  0.82167  0.93535  1.0000
  H   H1146     1.0  0.53240  0.81418  0.94410  1.0000
  H   H1147     1.0  0.97409  0.69430  0.63730  1.0000
  C   C956      1.0  0.77343  0.78220  0.49093  1.0000
  C   C957      1.0  0.92768  0.67002  0.84004  1.0000
  C   C958      1.0  0.99005  0.78740  0.59294  1.0000
  H   H1148     1.0  0.98241  0.77889  0.61712  1.0000
  H   H1149     1.0  0.99376  0.77479  0.50302  1.0000
  H   H1150     1.0  0.59769  0.99361  0.72164  1.0000
  C   C959      1.0  0.99561  0.78559  0.52827  1.0000
  H   H1151     1.0  0.50191  0.66645  0.49306  1.0000
  H   H1152     1.0  0.94898  0.82922  0.98112  1.0000
  S   S256      1.0  0.91071  0.78693  0.48903  1.0000
  C   C960      1.0  0.73082  0.77304  0.48718  1.0000
