data_image0
_chemical_formula_structural       FeS2FeS2FeSFeS3FeS2FeSHFeSFeS3CFeHSNHSC3HC6H4CH2C2HCSH2C6H4C6H4C2HC3HCH3CHNFeCH2NC9H11CH2NH2CH2CH2CH2CHC2H4FeCHC2NHC2H3CH2SH2C2S2HC2HC3H2C2H2C2SH2CHCH3CH2CHC4H2CH6SH4SFeS2FeS2FeSFeS3FeS2FeS2FeHFeS3C6HCH2C6H4CH3C7H7C2FeH3C2H2CHNH3CH4NH3CH2CH2CNC8H6CNCHC2H3C4H2CH2C3H2CH2CH3CH2CHCHNCHC2SH4CH4CNH3C2HCHCH6CHC2HC2HC5H5C3H4CFeS2FeS2FeSFeS3FeS2FeSCFeSFeS3CFeCSH2SNC2HC6H4CH2CH2C2H2C6H4C7H3C2HC3H8CNCHCSH8CHC4HC2HCHC2H3CH2NC2HC2NC3H3CSCHCH2CH5C7H5CH7FeH2C4HCHCHCH5C2H5NH3SC3H3NHC2H2CHC2H3CHSHCSH2C2HC2H2CHCHCSFeS2FeS2FeSFeS3FeS2FeS2FeHFeS3C6H4C6H4CH4C6H4CH2C2HCH2C2NH3C4HCHCH2SCH2C2NC3HC3HC3HCHC2HCH2CHCH3CHCH2NC8H5CH9CH7C2HC2HC4HNH3CNHNCH2CHCHCH11C2H2CHCH4CHCH2CH2FeS2FeS2FeSFeCS3HFeSCHCNH3C6H5C2H2C3H3C2HSHFeS2FeS2FeSFeS3H3C2H2CH3C7H5SCH3C2H3C3HC2HCH2CH2N2C2HCHC3H5C2H7CNCHC5H3CH3NH7CH4SCHCFeCH3C2H5CH2CH5CH2C4H3CHCHFeCSFeSFeS2HFeS2FeSCFeSFeS3C2FeH2C2HC3H3C6H2CHC2HC2H3SFeS2C2FeSCSFeHCFeS2FeCFeS3C3NCH4C4H4C3HCH2C3HCHC2H3CH2NC7H12C2H2C4N2C9H14C3H3CH2C4H11NC3S2H3NH2C2HSCSCHCH3C2H4SHC3H2FeS2FeS2FeSFeHS3HFeSH2CH2SHC6H5CH2C4H3CH2SCFeS2FeS2FeSFeCS2C2H2CHCH2SCHC6H12NCHCH4C4HC2H2C3HNHCH2CH2CHCHC2HCHC2NH2CHCHCH2FeH3C2H2CHCHCH2C3H2CH2CH3SH2NC5HCH2C2HNC6HC3H4CHCFeCSFeS2FeSFeS3FeS2FeSHFeSFeS3C3HC7H3C6H4CHC4H3FeS2FeSFeSH2FeH2FeS2FeCFeS3C4HCHFeC7H3SCHCHNSC3H2CH2CH2C3NC9H11C2H7NC2H6CSHC2HCH10CH6C2SC2H2C2NCHC2HCH3C2SHCH2CSH4SHC4HSHCH2FeS2HFeS2FeSCFeS2FeSFeHS2FeS2FeS2FeSFeS3C2HCHC2HC4HCH2SHC5H4C2H2CSHFeH2CHC6H4C6H3C3H6CHCH3CH2CHCH2C3HC2H3CHC4H2NC6H2CH11C2NCH2CSNH2C7HCHCH10C2H2C2H2CH3C2HCHCHC3NHC3FeS2FeS2FeSFeS3FeS2FeSCFeHFeS3FeSHSHCHC7H4C6H4C6H4CH2C4HCNH2SH2CH4CHCHNHC2HNHSHC2HNCHC2HCHSC3H15CH6CHCH6CHC2H2CHNH2C6HCH2CH4CH2C3H2CHCHC2NCH5CHCH3CH2SHCHCH2C5H2C3HSCH2CH2CH3FeS2HFeS2FeSCFeS2FeSFeHS2FeS2FeS2FeSFeS3C6HC6H5C5H3C3H4CH3CHC6H4C6H3CH3CH3NC6SC2H2CH3CH2NHCHFeCH3CH2CNH2CH5C2HC2NH5CHSH2CHCHCH3CSCH5C2H4CNCHC3H3CHCHCH5CHCHCH3NH3CFeS2FeS2FeSFeS3FeS2FeSHFeNFeS3FeSCHCH3C6H4C6H4C6H4CHCHC3H4CH11CH4C2H4NHSHCH2C2H2CHCNC4HC2H6CH8NC9HCH7C2HC2HCHNC3H2CH5C2HC2H2C2HCH2CHC4H3SH2C5H
_chemical_formula_sum              "Fe128 S256 H1152 C960 N64"
_cell_length_a       46.8607
_cell_length_b       47.0271
_cell_length_c       38.7896
_cell_angle_alpha    89.9238
_cell_angle_beta     89.9424
_cell_angle_gamma    89.9084

_space_group_name_H-M_alt    "P 1"
_space_group_IT_number       1

loop_
  _space_group_symop_operation_xyz
  'x, y, z'

loop_
  _atom_site_type_symbol
  _atom_site_label
  _atom_site_symmetry_multiplicity
  _atom_site_fract_x
  _atom_site_fract_y
  _atom_site_fract_z
  _atom_site_occupancy
  Fe  Fe1       1.0  0.20996  0.37874  0.21751  1.0000
  S   S1        1.0  0.17821  0.35463  0.24957  1.0000
  S   S2        1.0  0.24453  0.40533  0.24383  1.0000
  Fe  Fe2       1.0  0.17587  0.36779  0.14987  1.0000
  S   S3        1.0  0.14125  0.34372  0.17767  1.0000
  S   S4        1.0  0.17784  0.37966  0.09263  1.0000
  Fe  Fe3       1.0  0.14416  0.37709  0.21920  1.0000
  S   S5        1.0  0.11032  0.40219  0.24875  1.0000
  Fe  Fe4       1.0  0.17814  0.32349  0.20585  1.0000
  S   S6        1.0  0.17843  0.27627  0.21504  1.0000
  S   S7        1.0  0.17588  0.40308  0.18906  1.0000
  S   S8        1.0  0.21275  0.34556  0.17582  1.0000
  Fe  Fe5       1.0  0.06222  0.10006  0.39251  1.0000
  S   S9        1.0  0.09775  0.07450  0.36880  1.0000
  S   S10       1.0  0.05185  0.10646  0.44980  1.0000
  Fe  Fe6       1.0  0.03739  0.11687  0.32087  1.0000
  S   S11       1.0  0.07136  0.09259  0.29210  1.0000
  H   H1        1.0  0.05598  0.43018  0.21128  1.0000
  Fe  Fe7       1.0  0.06381  0.05901  0.33236  1.0000
  S   S12       1.0  0.06112  0.01228  0.32006  1.0000
  Fe  Fe8       1.0  0.10260  0.11030  0.33041  1.0000
  S   S13       1.0  0.14457  0.13264  0.31713  1.0000
  S   S14       1.0  0.02778  0.08195  0.35858  1.0000
  S   S15       1.0  0.06916  0.13729  0.35668  1.0000
  C   C1        1.0  0.32175  0.39872  0.29186  1.0000
  Fe  Fe9       1.0  0.28281  0.12696  0.20270  1.0000
  H   H2        1.0  0.28721  0.26916  0.05378  1.0000
  S   S16       1.0  0.24661  0.09659  0.21649  1.0000
  N   N1        1.0  0.05693  0.48628  0.23308  1.0000
  H   H3        1.0  0.10826  0.03613  0.51621  1.0000
  S   S17       1.0  0.27570  0.16793  0.17463  1.0000
  C   C2        1.0  0.02580  0.00003  0.31752  1.0000
  C   C3        1.0  0.06695  0.09110  0.48764  1.0000
  C   C4        1.0  0.08451  0.06703  0.48651  1.0000
  H   H4        1.0  0.09018  0.05785  0.46189  1.0000
  C   C5        1.0  0.17227  0.12221  0.28836  1.0000
  C   C6        1.0  0.19656  0.13960  0.28533  1.0000
  C   C7        1.0  0.21912  0.13233  0.26293  1.0000
  C   C8        1.0  0.21788  0.10728  0.24359  1.0000
  C   C9        1.0  0.19355  0.08989  0.24650  1.0000
  C   C10       1.0  0.17074  0.09742  0.26853  1.0000
  H   H5        1.0  0.19812  0.15872  0.30069  1.0000
  H   H6        1.0  0.23770  0.14588  0.26110  1.0000
  H   H7        1.0  0.19231  0.07052  0.23157  1.0000
  H   H8        1.0  0.15208  0.08400  0.27029  1.0000
  C   C11       1.0  0.14232  0.00382  0.29627  1.0000
  H   H9        1.0  0.30258  0.29658  0.14089  1.0000
  H   H10       1.0  0.04314  0.47056  0.34327  1.0000
  C   C12       1.0  0.16575  0.35946  0.05682  1.0000
  C   C13       1.0  0.23661  0.29335  0.11045  1.0000
  H   H11       1.0  0.17901  0.41577  0.26123  1.0000
  C   C14       1.0  0.14866  0.33533  0.06089  1.0000
  S   S18       1.0  0.00496  0.14460  0.29225  1.0000
  H   H12       1.0  0.21840  0.32667  0.03582  1.0000
  H   H13       1.0  0.14268  0.32838  0.08650  1.0000
  C   C15       1.0  0.21269  0.26326  0.22430  1.0000
  C   C16       1.0  0.23535  0.28196  0.23023  1.0000
  C   C17       1.0  0.26306  0.27132  0.23500  1.0000
  C   C18       1.0  0.26825  0.24202  0.23325  1.0000
  C   C19       1.0  0.24539  0.22327  0.22885  1.0000
  C   C20       1.0  0.21763  0.23389  0.22442  1.0000
  H   H14       1.0  0.23156  0.30463  0.23097  1.0000
  H   H15       1.0  0.28059  0.28591  0.23894  1.0000
  H   H16       1.0  0.24907  0.20059  0.22863  1.0000
  H   H17       1.0  0.20012  0.21931  0.22030  1.0000
  C   C21       1.0  0.02539  0.36669  0.29026  1.0000
  C   C22       1.0  0.03599  0.39271  0.30206  1.0000
  C   C23       1.0  0.06252  0.40283  0.29006  1.0000
  C   C24       1.0  0.07866  0.38713  0.26606  1.0000
  C   C25       1.0  0.06841  0.36079  0.25495  1.0000
  C   C26       1.0  0.04191  0.35066  0.26700  1.0000
  H   H18       1.0  0.02354  0.40524  0.31999  1.0000
  H   H19       1.0  0.07024  0.42313  0.29906  1.0000
  H   H20       1.0  0.08051  0.34853  0.23640  1.0000
  H   H21       1.0  0.03385  0.33054  0.25768  1.0000
  C   C27       1.0  0.27678  0.39108  0.26086  1.0000
  C   C28       1.0  0.29594  0.40924  0.27801  1.0000
  H   H22       1.0  0.12001  0.00409  0.30317  1.0000
  C   C29       1.0  0.32277  0.16320  0.04576  1.0000
  C   C30       1.0  0.99751  0.47588  0.34211  1.0000
  C   C31       1.0  0.28372  0.36225  0.25770  1.0000
  H   H23       1.0  0.29076  0.43153  0.28077  1.0000
  C   C32       1.0  0.20032  0.00732  0.28014  1.0000
  H   H24       1.0  0.20318  0.32262  0.09664  1.0000
  H   H25       1.0  0.26918  0.34800  0.24471  1.0000
  H   H26       1.0  0.22277  0.00892  0.27367  1.0000
  C   C33       1.0  0.09473  0.05476  0.51740  1.0000
  H   H27       1.0  0.20811  0.40924  0.31473  1.0000
  N   N2        1.0  0.27736  0.26071  0.12501  1.0000
  Fe  Fe10      1.0  0.31311  0.15662  0.14078  1.0000
  C   C34       1.0  0.26103  0.27780  0.09972  1.0000
  H   H28       1.0  0.32057  0.48178  0.22909  1.0000
  H   H29       1.0  0.08323  0.46496  0.19482  1.0000
  N   N3        1.0  0.11753  0.20770  0.26464  1.0000
  C   C35       1.0  0.12429  0.21114  0.22747  1.0000
  C   C36       1.0  0.14464  0.20738  0.28435  1.0000
  C   C37       1.0  0.10384  0.17942  0.26901  1.0000
  C   C38       1.0  0.09947  0.23167  0.27654  1.0000
  C   C39       1.0  0.07232  0.22769  0.29235  1.0000
  C   C40       1.0  0.10899  0.26017  0.27262  1.0000
  C   C41       1.0  0.05579  0.25091  0.30298  1.0000
  C   C42       1.0  0.09225  0.28320  0.28327  1.0000
  C   C43       1.0  0.06568  0.27858  0.29840  1.0000
  H   H30       1.0  0.10445  0.21302  0.21189  1.0000
  H   H31       1.0  0.13744  0.23033  0.22227  1.0000
  H   H32       1.0  0.13688  0.19282  0.21742  1.0000
  H   H33       1.0  0.15745  0.22701  0.28025  1.0000
  H   H34       1.0  0.15848  0.18918  0.27667  1.0000
  H   H35       1.0  0.14055  0.20514  0.31253  1.0000
  H   H36       1.0  0.08333  0.17797  0.25470  1.0000
  H   H37       1.0  0.11775  0.16189  0.25936  1.0000
  H   H38       1.0  0.09987  0.17449  0.29672  1.0000
  H   H39       1.0  0.06330  0.20687  0.29692  1.0000
  H   H40       1.0  0.12956  0.26487  0.26129  1.0000
  C   C44       1.0  0.03322  0.46555  0.23575  1.0000
  H   H41       1.0  0.09995  0.30477  0.27982  1.0000
  H   H42       1.0  0.05275  0.29648  0.30672  1.0000
  N   N4        1.0  0.17729  0.44271  0.30578  1.0000
  H   H43       1.0  0.20710  0.43649  0.34738  1.0000
  H   H44       1.0  0.29215  0.04578  0.25534  1.0000
  C   C45       1.0  0.26906  0.28028  0.06444  1.0000
  H   H45       1.0  0.31292  0.23145  0.12915  1.0000
  H   H46       1.0  0.09459  0.43279  0.06092  1.0000
  C   C46       1.0  0.17689  0.43862  0.26793  1.0000
  H   H47       1.0  0.14818  0.04462  0.32069  1.0000
  H   H48       1.0  0.31817  0.25973  0.09895  1.0000
  C   C47       1.0  0.28881  0.27970  0.15217  1.0000
  H   H49       1.0  0.21235  0.48694  0.28745  1.0000
  H   H50       1.0  0.15416  0.42571  0.34938  1.0000
  C   C48       1.0  0.03632  0.43744  0.22289  1.0000
  H   H51       1.0  0.24035  0.24911  0.15566  1.0000
  C   C49       1.0  0.00744  0.47179  0.25367  1.0000
  C   C50       1.0  0.30610  0.05041  0.23278  1.0000
  H   H52       1.0  0.22362  0.44268  0.30609  1.0000
  H   H53       1.0  0.03008  0.04125  0.46822  1.0000
  H   H54       1.0  0.27020  0.22645  0.16068  1.0000
  H   H55       1.0  0.00717  0.04145  0.30983  1.0000
  Fe  Fe11      1.0  0.30822  0.18566  0.21085  1.0000
  C   C51       1.0  0.15834  0.02739  0.30662  1.0000
  H   H56       1.0  0.15655  0.44640  0.25646  1.0000
  C   C52       1.0  0.30958  0.35180  0.27138  1.0000
  C   C53       1.0  0.09740  0.39596  0.02844  1.0000
  N   N5        1.0  0.01120  0.01321  0.43012  1.0000
  H   H57       1.0  0.13248  0.47053  0.34135  1.0000
  C   C54       1.0  0.31591  0.99088  0.24300  1.0000
  C   C55       1.0  0.15473  0.42422  0.32076  1.0000
  H   H58       1.0  0.13325  0.42954  0.31028  1.0000
  H   H59       1.0  0.10606  0.38252  0.04870  1.0000
  H   H60       1.0  0.01785  0.39570  0.21749  1.0000
  C   C56       1.0  0.00305  0.01911  0.31393  1.0000
  H   H61       1.0  0.19941  0.04769  0.30629  1.0000
  H   H62       1.0  0.24944  0.22446  0.12191  1.0000
  S   S19       1.0  0.31778  0.11362  0.16597  1.0000
  H   H63       1.0  0.15821  0.40138  0.31421  1.0000
  H   H64       1.0  0.03515  0.24739  0.31495  1.0000
  C   C57       1.0  0.22150  0.31066  0.08758  1.0000
  C   C58       1.0  0.17344  0.47330  0.31364  1.0000
  S   S20       1.0  0.30358  0.22949  0.23350  1.0000
  S   S21       1.0  0.31302  0.14545  0.24165  1.0000
  H   H65       1.0  0.08804  0.45800  0.25541  1.0000
  C   C59       1.0  0.07084  0.48491  0.19863  1.0000
  C   C60       1.0  0.30184  0.24505  0.10970  1.0000
  H   H66       1.0  0.04397  0.02691  0.39461  1.0000
  C   C61       1.0  0.17318  0.36821  0.02327  1.0000
  C   C62       1.0  0.01464  0.41728  0.22663  1.0000
  C   C63       1.0  0.18724  0.02915  0.29856  1.0000
  H   H67       1.0  0.29520  0.99728  0.23360  1.0000
  H   H68       1.0  0.05721  0.00867  0.43156  1.0000
  C   C64       1.0  0.02163  0.48638  0.47016  1.0000
  C   C65       1.0  0.25369  0.29766  0.04172  1.0000
  H   H69       1.0  0.29675  0.04054  0.20932  1.0000
  H   H70       1.0  0.22917  0.29254  0.13685  1.0000
  C   C66       1.0  0.01189  0.45826  0.47105  1.0000
  C   C67       1.0  0.09102  0.42430  0.03531  1.0000
  S   S22       1.0  0.30547  0.17174  0.08529  1.0000
  H   H71       1.0  0.20657  0.23186  0.04010  1.0000
  H   H72       1.0  0.06862  0.47889  0.28586  1.0000
  C   C68       1.0  0.25841  0.23936  0.14135  1.0000
  H   H73       1.0  0.99357  0.13401  0.20619  1.0000
  C   C69       1.0  0.23011  0.31299  0.05335  1.0000
  H   H74       1.0  0.27157  0.29049  0.16692  1.0000
  H   H75       1.0  0.19488  0.44951  0.25470  1.0000
  H   H76       1.0  0.02372  0.44211  0.48503  1.0000
  C   C70       1.0  0.01183  0.04014  0.45004  1.0000
  H   H77       1.0  0.99351  0.45352  0.34490  1.0000
  H   H78       1.0  0.30173  0.26767  0.17143  1.0000
  C   C71       1.0  0.20516  0.43251  0.31921  1.0000
  H   H79       1.0  0.29467  0.23035  0.08900  1.0000
  C   C72       1.0  0.14938  0.48406  0.33192  1.0000
  C   C73       1.0  0.13863  0.32058  0.03170  1.0000
  C   C74       1.0  0.07843  0.47933  0.25973  1.0000
  C   C75       1.0  0.02575  0.48557  0.34067  1.0000
  H   H80       1.0  0.30465  0.07377  0.22821  1.0000
  H   H81       1.0  0.12484  0.30235  0.03515  1.0000
  C   C76       1.0  0.03922  0.00926  0.41293  1.0000
  H   H82       1.0  0.99370  0.03515  0.38589  1.0000
  H   H83       1.0  0.01434  0.05903  0.43287  1.0000
  H   H84       1.0  0.04148  0.99754  0.48772  1.0000
  H   H85       1.0  0.31465  0.32949  0.26873  1.0000
  H   H86       1.0  0.05473  0.48655  0.17764  1.0000
  H   H87       1.0  0.99181  0.04321  0.46501  1.0000
  S   S23       1.0  0.99147  0.35364  0.30307  1.0000
  H   H88       1.0  0.18639  0.38686  0.01987  1.0000
  H   H89       1.0  0.18500  0.27740  0.02146  1.0000
  H   H90       1.0  0.16933  0.36028  0.96849  1.0000
  H   H91       1.0  0.04428  0.41508  0.91665  1.0000
  S   S24       1.0  0.26520  0.18139  0.82186  1.0000
  Fe  Fe12      1.0  0.18116  0.31226  0.84464  1.0000
  S   S25       1.0  0.16067  0.27822  0.87679  1.0000
  S   S26       1.0  0.22783  0.30975  0.83193  1.0000
  Fe  Fe13      1.0  0.12761  0.34738  0.83723  1.0000
  S   S27       1.0  0.10269  0.31531  0.86824  1.0000
  S   S28       1.0  0.10199  0.38646  0.82010  1.0000
  Fe  Fe14      1.0  0.13995  0.31469  0.90474  1.0000
  S   S29       1.0  0.13058  0.31139  0.96248  1.0000
  Fe  Fe15      1.0  0.12537  0.28125  0.83785  1.0000
  S   S30       1.0  0.09946  0.24257  0.82082  1.0000
  S   S31       1.0  0.16361  0.34871  0.87571  1.0000
  S   S32       1.0  0.14720  0.31338  0.80369  1.0000
  Fe  Fe16      1.0  0.11394  0.09844  0.70876  1.0000
  S   S33       1.0  0.13886  0.06623  0.67755  1.0000
  S   S34       1.0  0.13743  0.13933  0.72351  1.0000
  Fe  Fe17      1.0  0.06232  0.06057  0.71021  1.0000
  S   S35       1.0  0.08295  0.02593  0.67926  1.0000
  S   S36       1.0  0.01664  0.05668  0.72774  1.0000
  Fe  Fe18      1.0  0.12069  0.03313  0.71348  1.0000
  H   H92       1.0  0.12292  0.40449  0.91955  1.0000
  Fe  Fe19      1.0  0.09915  0.06118  0.64530  1.0000
  S   S37       1.0  0.10069  0.04952  0.58778  1.0000
  S   S38       1.0  0.09897  0.06566  0.74705  1.0000
  S   S39       1.0  0.07545  0.09561  0.67390  1.0000
  C   C77       1.0  0.11506  0.41648  0.79697  1.0000
  C   C78       1.0  0.09610  0.43871  0.78865  1.0000
  C   C79       1.0  0.10528  0.46248  0.76938  1.0000
  C   C80       1.0  0.13366  0.46440  0.75839  1.0000
  C   C81       1.0  0.15265  0.44222  0.76684  1.0000
  C   C82       1.0  0.14342  0.41835  0.78592  1.0000
  H   H93       1.0  0.07413  0.43762  0.79709  1.0000
  C   C83       1.0  0.21637  0.20356  0.90137  1.0000
  H   H94       1.0  0.17460  0.44344  0.75840  1.0000
  H   H95       1.0  0.15823  0.40140  0.79199  1.0000
  C   C84       1.0  0.11102  0.21360  0.79474  1.0000
  C   C85       1.0  0.09265  0.19026  0.79004  1.0000
  C   C86       1.0  0.10049  0.16721  0.76874  1.0000
  C   C87       1.0  0.12675  0.16735  0.75158  1.0000
  C   C88       1.0  0.14530  0.19051  0.75664  1.0000
  C   C89       1.0  0.13755  0.21348  0.77813  1.0000
  H   H96       1.0  0.07219  0.19000  0.80299  1.0000
  H   H97       1.0  0.08620  0.14938  0.76555  1.0000
  H   H98       1.0  0.16570  0.19086  0.74358  1.0000
  H   H99       1.0  0.15194  0.23122  0.78149  1.0000
  C   C90       1.0  0.01600  0.47490  0.72035  1.0000
  H   H100      1.0  0.23565  0.31820  0.75254  1.0000
  H   H101      1.0  0.08316  0.38627  0.74910  1.0000
  H   H102      1.0  0.03163  0.45799  0.71940  1.0000
  C   C91       1.0  0.10982  0.38476  0.91959  1.0000
  C   C92       1.0  0.25525  0.21732  0.81957  1.0000
  C   C93       1.0  0.27578  0.23871  0.82293  1.0000
  C   C94       1.0  0.26731  0.26723  0.82572  1.0000
  C   C95       1.0  0.23832  0.27441  0.82496  1.0000
  C   C96       1.0  0.21790  0.25317  0.81986  1.0000
  C   C97       1.0  0.22636  0.22464  0.81707  1.0000
  H   H103      1.0  0.29817  0.23330  0.82415  1.0000
  H   H104      1.0  0.28323  0.28357  0.82956  1.0000
  H   H105      1.0  0.19552  0.25864  0.81831  1.0000
  H   H106      1.0  0.21041  0.20822  0.81399  1.0000
  H   H107      1.0  0.22309  0.34848  0.72922  1.0000
  H   H108      1.0  0.07560  0.46379  0.01461  1.0000
  H   H109      1.0  0.04261  0.26906  0.79822  1.0000
  C   C98       1.0  0.07053  0.09078  0.55083  1.0000
  C   C99       1.0  0.08799  0.06664  0.54973  1.0000
  Fe  Fe20      1.0  0.31188  0.17695  0.83348  1.0000
  H   H110      1.0  0.03788  0.05349  0.59660  1.0000
  H   H111      1.0  0.06520  0.10025  0.57541  1.0000
  H   H112      1.0  0.02561  0.35622  0.69175  1.0000
  C   C100      1.0  0.16358  0.35314  0.99408  1.0000
  C   C101      1.0  0.14592  0.32941  0.99816  1.0000
  H   H113      1.0  0.06591  0.40573  0.71593  1.0000
  H   H114      1.0  0.04609  0.19701  0.73493  1.0000
  C   C102      1.0  0.06461  0.36298  0.93306  1.0000
  H   H115      1.0  0.30647  0.34350  0.77401  1.0000
  N   N6        1.0  0.01374  0.01484  0.60375  1.0000
  H   H116      1.0  0.25447  0.24541  0.89614  1.0000
  H   H117      1.0  0.23111  0.20141  0.99925  1.0000
  H   H118      1.0  0.04246  0.39401  0.78962  1.0000
  C   C103      1.0  0.08041  0.44169  0.00916  1.0000
  H   H119      1.0  0.29456  0.04833  0.73529  1.0000
  H   H120      1.0  0.22656  0.34956  0.77576  1.0000
  H   H121      1.0  0.20321  0.10441  0.79474  1.0000
  H   H122      1.0  0.32061  0.18274  0.96050  1.0000
  N   N7        1.0  0.08066  0.39023  0.93272  1.0000
  H   H123      1.0  0.00572  0.11617  0.74091  1.0000
  H   H124      1.0  0.04629  0.12132  0.52118  1.0000
  H   H125      1.0  0.07682  0.36975  0.70778  1.0000
  C   C104      1.0  0.02830  0.18416  0.74374  1.0000
  H   H126      1.0  0.21416  0.26378  0.91863  1.0000
  H   H127      1.0  0.26614  0.35111  0.69257  1.0000
  C   C105      1.0  0.02880  0.39418  0.76613  1.0000
  H   H128      1.0  0.30073  0.34716  0.71134  1.0000
  H   H129      1.0  0.12134  0.36870  0.93543  1.0000
  C   C106      1.0  0.31428  0.17752  0.01553  1.0000
  N   N8        1.0  0.21934  0.11440  0.74414  1.0000
  C   C107      1.0  0.21315  0.25610  0.94491  1.0000
  C   C108      1.0  0.23133  0.08552  0.73915  1.0000
  C   C109      1.0  0.26110  0.07962  0.74092  1.0000
  C   C110      1.0  0.21315  0.06245  0.73048  1.0000
  C   C111      1.0  0.27175  0.05231  0.73439  1.0000
  C   C112      1.0  0.22400  0.03521  0.72433  1.0000
  C   C113      1.0  0.02594  0.99915  0.72640  1.0000
  C   C114      1.0  0.19916  0.27322  0.96901  1.0000
  H   H130      1.0  0.08747  0.33899  0.75482  1.0000
  H   H131      1.0  0.06417  0.39957  0.88186  1.0000
  H   H132      1.0  0.27668  0.09575  0.74695  1.0000
  H   H133      1.0  0.19035  0.06532  0.72782  1.0000
  H   H134      1.0  0.02895  0.03589  0.55763  1.0000
  H   H135      1.0  0.20951  0.01804  0.71767  1.0000
  C   C115      1.0  0.06695  0.33011  0.76140  1.0000
  N   N9        1.0  0.23811  0.21095  0.92766  1.0000
  C   C116      1.0  0.27783  0.34172  0.71482  1.0000
  H   H136      1.0  0.20824  0.22259  0.88741  1.0000
  C   C117      1.0  0.26186  0.22632  0.91055  1.0000
  C   C118      1.0  0.22492  0.22934  0.95425  1.0000
  H   H137      1.0  0.07645  0.34553  0.94622  1.0000
  H   H138      1.0  0.18725  0.13538  0.77519  1.0000
  H   H139      1.0  0.26001  0.17084  0.92077  1.0000
  C   C119      1.0  0.04197  0.29002  0.78646  1.0000
  C   C120      1.0  0.19649  0.26430  0.00308  1.0000
  C   C121      1.0  0.29586  0.39700  0.74846  1.0000
  C   C122      1.0  0.02069  0.04095  0.58383  1.0000
  H   H140      1.0  0.26677  0.18784  0.96106  1.0000
  H   H141      1.0  0.28068  0.31610  0.77768  1.0000
  C   C123      1.0  0.29872  0.42656  0.74871  1.0000
  H   H142      1.0  0.01055  0.47614  0.54641  1.0000
  H   H143      1.0  0.31525  0.38457  0.74750  1.0000
  C   C124      1.0  0.06762  0.38414  0.72766  1.0000
  C   C125      1.0  0.06619  0.40953  0.90784  1.0000
  C   C126      1.0  0.06728  0.30299  0.77619  1.0000
  H   H144      1.0  0.25773  0.13930  0.73711  1.0000
  H   H145      1.0  0.02268  0.03783  0.65085  1.0000
  C   C127      1.0  0.09330  0.38493  0.99540  1.0000
  H   H146      1.0  0.00374  0.00564  0.65703  1.0000
  H   H147      1.0  0.17712  0.10126  0.76093  1.0000
  C   C128      1.0  0.24991  0.18388  0.94147  1.0000
  H   H148      1.0  0.22883  0.44532  0.74900  1.0000
  H   H149      1.0  0.23294  0.17043  0.95319  1.0000
  H   H150      1.0  0.00195  0.05541  0.58170  1.0000
  C   C129      1.0  0.24058  0.13552  0.75642  1.0000
  H   H151      1.0  0.19012  0.11117  0.70120  1.0000
  H   H152      1.0  0.08736  0.29192  0.77995  1.0000
  C   C130      1.0  0.02738  0.15529  0.73589  1.0000
  H   H153      1.0  0.22518  0.18904  0.88130  1.0000
  C   C131      1.0  0.20783  0.12477  0.71082  1.0000
  H   H154      1.0  0.04817  0.00388  0.73084  1.0000
  N   N10       1.0  0.03956  0.37364  0.74019  1.0000
  C   C132      1.0  0.08280  0.40202  0.96801  1.0000
  H   H155      1.0  0.07862  0.42937  0.90344  1.0000
  C   C133      1.0  0.28317  0.33963  0.77662  1.0000
  C   C134      1.0  0.23657  0.34188  0.75142  1.0000
  S   S40       1.0  0.14928  0.99649  0.73142  1.0000
  H   H156      1.0  0.27609  0.34812  0.80204  1.0000
  H   H157      1.0  0.22461  0.12512  0.69051  1.0000
  H   H158      1.0  0.09902  0.36296  0.99130  1.0000
  H   H159      1.0  0.25045  0.12878  0.78124  1.0000
  C   C135      1.0  0.27466  0.44391  0.74892  1.0000
  H   H160      1.0  0.26169  0.00916  0.72076  1.0000
  H   H161      1.0  0.23063  0.15672  0.76127  1.0000
  H   H162      1.0  0.04448  0.14581  0.72088  1.0000
  H   H163      1.0  0.19885  0.14665  0.71314  1.0000
  C   C136      1.0  0.19586  0.11369  0.76989  1.0000
  N   N11       1.0  0.26635  0.35236  0.74803  1.0000
  H   H164      1.0  0.04362  0.36546  0.94617  1.0000
  H   H165      1.0  0.27720  0.46682  0.74864  1.0000
  H   H166      1.0  0.06858  0.44563  0.95676  1.0000
  C   C137      1.0  0.26866  0.38378  0.74891  1.0000
  C   C138      1.0  0.24443  0.40212  0.74915  1.0000
  H   H167      1.0  0.10934  0.37659  0.89273  1.0000
  C   C139      1.0  0.24756  0.43174  0.74912  1.0000
  H   H168      1.0  0.19760  0.19291  0.91334  1.0000
  C   C140      1.0  0.00482  0.13841  0.74768  1.0000
  H   H169      1.0  0.27813  0.23335  0.92959  1.0000
  H   H170      1.0  0.06060  0.35491  0.90651  1.0000
  H   H171      1.0  0.27280  0.21267  0.89119  1.0000
  H   H172      1.0  0.99487  0.34140  0.76419  1.0000
  H   H173      1.0  0.27636  0.31814  0.71298  1.0000
  H   H174      1.0  0.22283  0.39417  0.74920  1.0000
  C   C141      1.0  0.01989  0.37343  0.71019  1.0000
  H   H175      1.0  0.99639  0.29400  0.79008  1.0000
  C   C142      1.0  0.00567  0.02102  0.72697  1.0000
  C   C143      1.0  0.25326  0.03018  0.72614  1.0000
  H   H176      1.0  0.09042  0.47937  0.76316  1.0000
  C   C144      1.0  0.07640  0.43088  0.97589  1.0000
  C   C145      1.0  0.22258  0.22120  0.98951  1.0000
  H   H177      1.0  0.18982  0.29329  0.96102  1.0000
  C   C146      1.0  0.04086  0.34495  0.75593  1.0000
  C   C147      1.0  0.00606  0.02391  0.63918  1.0000
  C   C148      1.0  0.00658  0.19636  0.76333  1.0000
  C   C149      1.0  0.01544  0.33119  0.76692  1.0000
  C   C150      1.0  0.03992  0.99712  0.60535  1.0000
  H   H178      1.0  0.02848  0.41629  0.75586  1.0000
  H   H179      1.0  0.05860  0.00957  0.61454  1.0000
  H   H180      1.0  0.00747  0.21880  0.76962  1.0000
  H   H181      1.0  0.26013  0.29937  0.01494  1.0000
  H   H182      1.0  0.29773  0.19352  0.01703  1.0000
  C   C151      1.0  0.01607  0.30410  0.78188  1.0000
  C   C152      1.0  0.20851  0.23856  0.01343  1.0000
  C   C153      1.0  0.05987  0.10271  0.52000  1.0000
  H   H183      1.0  0.00654  0.38946  0.77423  1.0000
  H   H184      1.0  0.02037  0.39398  0.69589  1.0000
  H   H185      1.0  0.99723  0.37045  0.71788  1.0000
  H   H186      1.0  0.31978  0.43607  0.74831  1.0000
  C   C154      1.0  0.01068  0.48926  0.56918  1.0000
  Fe  Fe21      1.0  0.20627  0.86892  0.22102  1.0000
  S   S41       1.0  0.17280  0.84463  0.25025  1.0000
  S   S42       1.0  0.23743  0.89630  0.25137  1.0000
  Fe  Fe22      1.0  0.18271  0.84970  0.14991  1.0000
  S   S43       1.0  0.14777  0.82370  0.17415  1.0000
  S   S44       1.0  0.19483  0.85363  0.09292  1.0000
  Fe  Fe23      1.0  0.14174  0.86058  0.21067  1.0000
  S   S45       1.0  0.09984  0.88288  0.22337  1.0000
  Fe  Fe24      1.0  0.18176  0.81014  0.21183  1.0000
  S   S46       1.0  0.18655  0.76452  0.22870  1.0000
  S   S47       1.0  0.17459  0.88781  0.18385  1.0000
  S   S48       1.0  0.21723  0.83334  0.18499  1.0000
  Fe  Fe25      1.0  0.06929  0.61527  0.40292  1.0000
  S   S49       1.0  0.10451  0.58868  0.38029  1.0000
  S   S50       1.0  0.05700  0.62092  0.45948  1.0000
  Fe  Fe26      1.0  0.04514  0.63126  0.33088  1.0000
  S   S51       1.0  0.07858  0.60573  0.30290  1.0000
  C   C155      1.0  0.10821  0.95627  0.27636  1.0000
  Fe  Fe27      1.0  0.07047  0.57315  0.34416  1.0000
  S   S52       1.0  0.06688  0.52631  0.33402  1.0000
  Fe  Fe28      1.0  0.10988  0.62364  0.34095  1.0000
  S   S53       1.0  0.15186  0.64486  0.32593  1.0000
  S   S54       1.0  0.03481  0.59723  0.36929  1.0000
  S   S55       1.0  0.07695  0.65181  0.36639  1.0000
  C   C156      1.0  0.26632  0.68770  0.06389  1.0000
  Fe  Fe29      1.0  0.28936  0.62528  0.21014  1.0000
  C   C157      1.0  0.19057  0.52258  0.30883  1.0000
  S   S56       1.0  0.25134  0.59874  0.22804  1.0000
  H   H187      1.0  0.09782  0.67995  0.23561  1.0000
  H   H188      1.0  0.28202  0.51099  0.22643  1.0000
  S   S57       1.0  0.28751  0.66139  0.17230  1.0000
  N   N12       1.0  0.01728  0.53750  0.45155  1.0000
  C   C158      1.0  0.07349  0.60471  0.49584  1.0000
  C   C159      1.0  0.09562  0.58494  0.49238  1.0000
  H   H189      1.0  0.10371  0.57972  0.46704  1.0000
  C   C160      1.0  0.17875  0.63182  0.29773  1.0000
  C   C161      1.0  0.17689  0.60511  0.28205  1.0000
  C   C162      1.0  0.19917  0.59538  0.26056  1.0000
  C   C163      1.0  0.22334  0.61234  0.25420  1.0000
  C   C164      1.0  0.22494  0.63925  0.26939  1.0000
  C   C165      1.0  0.20279  0.64887  0.29109  1.0000
  H   H190      1.0  0.15833  0.59197  0.28650  1.0000
  H   H191      1.0  0.19760  0.57468  0.24861  1.0000
  H   H192      1.0  0.24337  0.65253  0.26475  1.0000
  H   H193      1.0  0.20442  0.66961  0.30297  1.0000
  C   C166      1.0  0.03140  0.51448  0.33589  1.0000
  H   H194      1.0  0.28231  0.54813  0.21784  1.0000
  H   H195      1.0  0.03776  0.95600  0.32313  1.0000
  C   C167      1.0  0.17894  0.83905  0.05533  1.0000
  H   H196      1.0  0.25192  0.79222  0.07752  1.0000
  H   H197      1.0  0.02646  0.71164  0.33949  1.0000
  C   C168      1.0  0.15552  0.82069  0.05688  1.0000
  C   C169      1.0  0.19384  0.49352  0.30208  1.0000
  H   H198      1.0  0.04012  0.79253  0.22478  1.0000
  H   H199      1.0  0.14629  0.81525  0.08159  1.0000
  C   C170      1.0  0.22255  0.75403  0.23100  1.0000
  C   C171      1.0  0.24428  0.77438  0.23095  1.0000
  C   C172      1.0  0.27294  0.76600  0.22886  1.0000
  C   C173      1.0  0.28007  0.73715  0.22718  1.0000
  C   C174      1.0  0.25844  0.71669  0.22872  1.0000
  C   C175      1.0  0.22970  0.72511  0.23060  1.0000
  H   H200      1.0  0.23913  0.79664  0.23284  1.0000
  H   H201      1.0  0.28957  0.78195  0.22823  1.0000
  H   H202      1.0  0.26379  0.69434  0.22843  1.0000
  H   H203      1.0  0.21306  0.70917  0.23097  1.0000
  C   C176      1.0  0.02729  0.85201  0.29441  1.0000
  C   C177      1.0  0.02578  0.87851  0.27809  1.0000
  C   C178      1.0  0.04826  0.88768  0.25664  1.0000
  C   C179      1.0  0.07261  0.87065  0.25156  1.0000
  C   C180      1.0  0.07447  0.84449  0.26862  1.0000
  C   C181      1.0  0.05179  0.83511  0.28968  1.0000
  C   C182      1.0  0.31427  0.88767  0.29976  1.0000
  H   H204      1.0  0.04662  0.90800  0.24367  1.0000
  H   H205      1.0  0.09330  0.83144  0.26543  1.0000
  H   H206      1.0  0.05325  0.81466  0.30233  1.0000
  C   C183      1.0  0.27086  0.88246  0.26509  1.0000
  C   C184      1.0  0.28784  0.89832  0.28795  1.0000
  H   H207      1.0  0.31241  0.52746  0.20522  1.0000
  C   C185      1.0  0.01853  0.72806  0.35661  1.0000
  C   C186      1.0  0.30708  0.84532  0.26569  1.0000
  C   C187      1.0  0.28067  0.85591  0.25397  1.0000
  H   H208      1.0  0.28034  0.91877  0.29697  1.0000
  H   H209      1.0  0.15148  0.69461  0.27863  1.0000
  H   H210      1.0  0.09642  0.97493  0.26575  1.0000
  H   H211      1.0  0.26790  0.84346  0.23643  1.0000
  H   H212      1.0  0.04111  0.49124  0.48382  1.0000
  H   H213      1.0  0.26200  0.86553  0.34823  1.0000
  H   H214      1.0  0.20634  0.53771  0.29972  1.0000
  H   H215      1.0  0.04075  0.52018  0.26540  1.0000
  C   C188      1.0  0.02025  0.97094  0.32105  1.0000
  N   N13       1.0  0.10773  0.70947  0.27622  1.0000
  C   C189      1.0  0.04746  0.51617  0.23837  1.0000
  H   H216      1.0  0.11904  0.69488  0.32716  1.0000
  C   C190      1.0  0.19052  0.84595  0.02290  1.0000
  S   S58       1.0  0.31941  0.64688  0.24658  1.0000
  H   H217      1.0  0.01888  0.75126  0.25500  1.0000
  H   H218      1.0  0.16102  0.95225  0.21668  1.0000
  H   H219      1.0  0.21777  0.79986  0.29387  1.0000
  H   H220      1.0  0.14213  0.71191  0.23914  1.0000
  H   H221      1.0  0.11286  0.66381  0.27346  1.0000
  H   H222      1.0  0.01945  0.78846  0.46131  1.0000
  H   H223      1.0  0.09660  0.93702  0.26719  1.0000
  H   H224      1.0  0.09607  0.49515  0.26035  1.0000
  C   C191      1.0  0.28082  0.70285  0.08918  1.0000
  H   H225      1.0  0.27083  0.55501  0.27793  1.0000
  C   C192      1.0  0.28264  0.79620  0.33509  1.0000
  C   C193      1.0  0.25836  0.78780  0.31572  1.0000
  C   C194      1.0  0.18455  0.98359  0.26976  1.0000
  C   C195      1.0  0.23593  0.80668  0.30909  1.0000
  H   H226      1.0  0.06500  0.53167  0.23376  1.0000
  C   C196      1.0  0.29613  0.53001  0.22592  1.0000
  C   C197      1.0  0.26071  0.84355  0.33996  1.0000
  H   H227      1.0  0.18435  0.75337  0.09917  1.0000
  C   C198      1.0  0.29492  0.74897  0.35622  1.0000
  H   H228      1.0  0.31098  0.58018  0.24901  1.0000
  C   C199      1.0  0.01885  0.96077  0.50451  1.0000
  C   C200      1.0  0.99571  0.78767  0.46037  1.0000
  H   H229      1.0  0.03834  0.53739  0.50140  1.0000
  H   H230      1.0  0.00048  0.54430  0.50264  1.0000
  H   H231      1.0  0.15328  0.93002  0.30734  1.0000
  C   C201      1.0  0.00873  0.53355  0.33180  1.0000
  H   H232      1.0  0.99631  0.55250  0.40539  1.0000
  H   H233      1.0  0.00606  0.57994  0.43479  1.0000
  N   N14       1.0  0.22868  0.76274  0.10940  1.0000
  C   C202      1.0  0.99801  0.55765  0.43335  1.0000
  C   C203      1.0  0.22758  0.72188  0.06622  1.0000
  H   H234      1.0  0.01286  0.55562  0.32619  1.0000
  C   C204      1.0  0.28324  0.82484  0.34684  1.0000
  C   C205      1.0  0.99637  0.94205  0.49851  1.0000
  N   N15       1.0  0.30626  0.77585  0.34143  1.0000
  C   C206      1.0  0.15180  0.92956  0.27871  1.0000
  C   C207      1.0  0.20023  0.77068  0.09545  1.0000
  C   C208      1.0  0.02641  0.75633  0.35175  1.0000
  H   H235      1.0  0.27552  0.66823  0.05372  1.0000
  H   H236      1.0  0.08291  0.70637  0.32309  1.0000
  H   H237      1.0  0.21217  0.73725  0.15112  1.0000
  C   C209      1.0  0.10503  0.71079  0.31426  1.0000
  S   S59       1.0  0.01267  0.65877  0.30236  1.0000
  C   C210      1.0  0.01594  0.77753  0.37370  1.0000
  H   H238      1.0  0.19132  0.78973  0.10881  1.0000
  C   C211      1.0  0.26874  0.72739  0.10340  1.0000
  H   H239      1.0  0.25679  0.76673  0.30480  1.0000
  H   H240      1.0  0.23791  0.80741  0.11633  1.0000
  C   C212      1.0  0.99316  0.82234  0.41523  1.0000
  H   H241      1.0  0.07676  0.67511  0.27399  1.0000
  H   H242      1.0  0.12603  0.93751  0.21682  1.0000
  H   H243      1.0  0.02515  0.57098  0.48851  1.0000
  H   H244      1.0  0.02947  0.52177  0.22090  1.0000
  H   H245      1.0  0.12526  0.79589  0.02770  1.0000
  C   C213      1.0  0.00677  0.50779  0.45153  1.0000
  C   C214      1.0  0.08955  0.73192  0.26079  1.0000
  C   C215      1.0  0.10097  0.75582  0.24298  1.0000
  C   C216      1.0  0.05940  0.73089  0.26467  1.0000
  C   C217      1.0  0.08316  0.77718  0.22994  1.0000
  C   C218      1.0  0.04184  0.75246  0.25167  1.0000
  C   C219      1.0  0.05371  0.77561  0.23445  1.0000
  H   H246      1.0  0.31437  0.82480  0.25679  1.0000
  H   H247      1.0  0.12502  0.55714  0.51899  1.0000
  H   H248      1.0  0.16446  0.55488  0.33248  1.0000
  H   H249      1.0  0.20141  0.77641  0.06763  1.0000
  H   H250      1.0  0.28054  0.73788  0.12370  1.0000
  C   C220      1.0  0.13852  0.71229  0.26751  1.0000
  H   H251      1.0  0.27475  0.51806  0.28931  1.0000
  H   H252      1.0  0.29487  0.54490  0.31147  1.0000
  H   H253      1.0  0.28176  0.75328  0.37957  1.0000
  H   H254      1.0  0.28149  0.73703  0.33760  1.0000
  H   H255      1.0  0.04914  0.71345  0.27801  1.0000
  H   H256      1.0  0.19566  0.96725  0.25539  1.0000
  H   H257      1.0  0.05400  0.56085  0.43351  1.0000
  Fe  Fe30      1.0  0.32016  0.68148  0.20679  1.0000
  H   H258      1.0  0.17366  0.92587  0.26838  1.0000
  H   H259      1.0  0.08333  0.84477  0.05172  1.0000
  C   C221      1.0  0.28656  0.53838  0.28584  1.0000
  C   C222      1.0  0.09830  0.68098  0.26427  1.0000
  C   C223      1.0  0.23717  0.83455  0.32103  1.0000
  C   C224      1.0  0.02039  0.54779  0.48756  1.0000
  H   H260      1.0  0.30589  0.75972  0.28931  1.0000
  C   C225      1.0  0.22503  0.75683  0.14668  1.0000
  H   H261      1.0  0.10613  0.95659  0.30496  1.0000
  C   C226      1.0  0.24161  0.73756  0.09257  1.0000
  H   H262      1.0  0.14520  0.91129  0.05906  1.0000
  C   C227      1.0  0.32067  0.76933  0.30836  1.0000
  H   H263      1.0  0.12360  0.75868  0.23891  1.0000
  H   H264      1.0  0.14785  0.73223  0.27804  1.0000
  H   H265      1.0  0.00709  0.89176  0.28151  1.0000
  H   H266      1.0  0.11120  0.73214  0.32412  1.0000
  H   H267      1.0  0.22029  0.84947  0.31475  1.0000
  C   C228      1.0  0.99707  0.77092  0.40132  1.0000
  C   C229      1.0  0.24765  0.78777  0.10523  1.0000
  H   H268      1.0  0.26848  0.78497  0.11850  1.0000
  H   H269      1.0  0.24574  0.75378  0.16015  1.0000
  H   H270      1.0  0.21396  0.77455  0.16015  1.0000
  H   H271      1.0  0.09230  0.79531  0.21657  1.0000
  H   H272      1.0  0.06189  0.52569  0.44780  1.0000
  N   N16       1.0  0.30968  0.53522  0.25998  1.0000
  H   H273      1.0  0.13050  0.97546  0.21605  1.0000
  H   H274      1.0  0.22859  0.68522  0.03275  1.0000
  H   H275      1.0  0.30126  0.83368  0.36042  1.0000
  S   S60       1.0  0.99884  0.83886  0.32009  1.0000
  C   C230      1.0  0.02351  0.98382  0.48234  1.0000
  C   C231      1.0  0.23988  0.69729  0.05225  1.0000
  C   C232      1.0  0.16693  0.53235  0.32715  1.0000
  H   H276      1.0  0.04421  0.53086  0.40729  1.0000
  H   H277      1.0  0.01663  0.82574  0.41615  1.0000
  H   H278      1.0  0.99269  0.92420  0.51569  1.0000
  N   N17       1.0  0.13863  0.95611  0.26532  1.0000
  H   H279      1.0  0.02279  0.79898  0.36820  1.0000
  C   C233      1.0  0.15500  0.98111  0.27745  1.0000
  C   C234      1.0  0.04553  0.53872  0.43433  1.0000
  H   H280      1.0  0.13917  0.91043  0.27142  1.0000
  H   H281      1.0  0.30124  0.69500  0.09848  1.0000
  C   C235      1.0  0.13912  0.95534  0.22709  1.0000
  H   H282      1.0  0.04050  0.76204  0.33066  1.0000
  C   C236      1.0  0.99204  0.96115  0.32306  1.0000
  C   C237      1.0  0.14362  0.80978  0.02626  1.0000
  H   H283      1.0  0.20686  0.72783  0.05638  1.0000
  H   H284      1.0  0.00355  0.49211  0.26569  1.0000
  H   H285      1.0  0.31234  0.73407  0.36368  1.0000
  C   C238      1.0  0.13053  0.89890  0.04356  1.0000
  H   H286      1.0  0.30211  0.94713  0.24553  1.0000
  S   S61       1.0  0.31603  0.72714  0.22308  1.0000
  H   H287      1.0  0.20875  0.86000  0.02145  1.0000
  C   C239      1.0  0.09571  0.86141  0.03945  1.0000
  S   S62       1.0  0.32165  0.63415  0.08760  1.0000
  H   H288      1.0  0.08666  0.50230  0.19494  1.0000
  H   H289      1.0  0.11584  0.87428  0.08678  1.0000
  C   C240      1.0  0.31959  0.96185  0.24974  1.0000
  C   C241      1.0  0.14636  0.51316  0.33852  1.0000
  H   H290      1.0  0.12783  0.52094  0.35246  1.0000
  C   C242      1.0  0.11398  0.87802  0.05927  1.0000
  C   C243      1.0  0.00035  0.72080  0.38362  1.0000
  H   H291      1.0  0.31863  0.79281  0.39088  1.0000
  H   H292      1.0  0.99446  0.69867  0.38734  1.0000
  C   C244      1.0  0.32400  0.86105  0.28870  1.0000
  H   H293      1.0  0.03975  0.98917  0.39771  1.0000
  C   C245      1.0  0.00562  0.98883  0.45341  1.0000
  H   H294      1.0  0.18767  0.84075  0.96758  1.0000
  C   C246      1.0  0.06327  0.61113  0.52908  1.0000
  S   S63       1.0  0.28564  0.68510  0.83262  1.0000
  Fe  Fe31      1.0  0.18916  0.81237  0.83840  1.0000
  S   S64       1.0  0.16609  0.77641  0.86471  1.0000
  S   S65       1.0  0.23523  0.80969  0.82150  1.0000
  Fe  Fe32      1.0  0.13768  0.85190  0.83876  1.0000
  S   S66       1.0  0.11071  0.81821  0.86394  1.0000
  S   S67       1.0  0.11426  0.89410  0.83144  1.0000
  Fe  Fe33      1.0  0.14817  0.81069  0.89909  1.0000
  S   S68       1.0  0.13807  0.80367  0.95613  1.0000
  Fe  Fe34      1.0  0.13101  0.78695  0.82748  1.0000
  S   S69       1.0  0.10442  0.75582  0.79594  1.0000
  S   S70       1.0  0.17423  0.84588  0.87577  1.0000
  S   S71       1.0  0.15493  0.82140  0.79933  1.0000
  Fe  Fe35      1.0  0.11759  0.59771  0.71842  1.0000
  S   S72       1.0  0.14278  0.56656  0.68630  1.0000
  S   S73       1.0  0.14312  0.63225  0.74639  1.0000
  Fe  Fe36      1.0  0.06378  0.56330  0.70831  1.0000
  S   S74       1.0  0.08495  0.52986  0.67574  1.0000
  S   S75       1.0  0.01691  0.56092  0.72110  1.0000
  Fe  Fe37      1.0  0.11989  0.53179  0.71521  1.0000
  H   H295      1.0  0.31904  0.69305  0.93373  1.0000
  Fe  Fe38      1.0  0.10575  0.56695  0.64922  1.0000
  S   S76       1.0  0.11417  0.56230  0.59135  1.0000
  S   S77       1.0  0.09724  0.56282  0.74974  1.0000
  S   S78       1.0  0.08208  0.60064  0.67924  1.0000
  C   C247      1.0  0.12357  0.92158  0.80193  1.0000
  C   C248      1.0  0.10565  0.94550  0.79889  1.0000
  C   C249      1.0  0.11273  0.96822  0.77666  1.0000
  C   C250      1.0  0.13805  0.96742  0.75750  1.0000
  C   C251      1.0  0.15571  0.94327  0.76014  1.0000
  C   C252      1.0  0.14845  0.92039  0.78203  1.0000
  H   H296      1.0  0.08634  0.94671  0.81412  1.0000
  H   H297      1.0  0.20115  0.77410  0.75811  1.0000
  H   H298      1.0  0.17520  0.94233  0.74521  1.0000
  H   H299      1.0  0.16227  0.90201  0.78375  1.0000
  C   C253      1.0  0.11427  0.72047  0.78489  1.0000
  C   C254      1.0  0.09724  0.70523  0.76145  1.0000
  C   C255      1.0  0.10522  0.67780  0.75027  1.0000
  C   C256      1.0  0.13048  0.66538  0.76226  1.0000
  C   C257      1.0  0.14729  0.68045  0.78608  1.0000
  C   C258      1.0  0.13911  0.70769  0.79763  1.0000
  H   H300      1.0  0.07794  0.71486  0.75148  1.0000
  H   H301      1.0  0.09218  0.66658  0.73175  1.0000
  H   H302      1.0  0.16691  0.67108  0.79550  1.0000
  H   H303      1.0  0.15223  0.71892  0.81604  1.0000
  C   C259      1.0  0.27408  0.61311  0.79425  1.0000
  H   H304      1.0  0.29472  0.70944  0.90443  1.0000
  H   H305      1.0  0.31894  0.75509  0.91132  1.0000
  H   H306      1.0  0.03350  0.95452  0.71796  1.0000
  H   H307      1.0  0.29749  0.91175  0.71697  1.0000
  C   C260      1.0  0.27222  0.71982  0.82840  1.0000
  C   C261      1.0  0.29044  0.74325  0.82518  1.0000
  C   C262      1.0  0.27901  0.77082  0.82230  1.0000
  C   C263      1.0  0.24938  0.77499  0.82268  1.0000
  C   C264      1.0  0.23130  0.75143  0.82475  1.0000
  C   C265      1.0  0.24266  0.72398  0.82781  1.0000
  H   H308      1.0  0.31328  0.74017  0.82464  1.0000
  H   H309      1.0  0.29315  0.78891  0.82018  1.0000
  H   H310      1.0  0.20853  0.75421  0.82372  1.0000
  H   H311      1.0  0.22847  0.70589  0.82956  1.0000
  C   C266      1.0  0.32236  0.90594  0.77852  1.0000
  H   H312      1.0  0.24195  0.97542  0.77344  1.0000
  H   H313      1.0  0.03369  0.85154  0.72282  1.0000
  C   C267      1.0  0.07533  0.59835  0.55862  1.0000
  C   C268      1.0  0.09778  0.57891  0.55520  1.0000
  H   H314      1.0  0.07751  0.92430  0.95394  1.0000
  C   C269      1.0  0.00532  0.52540  0.72251  1.0000
  H   H315      1.0  0.06747  0.60373  0.58403  1.0000
  H   H316      1.0  0.29063  0.62782  0.80216  1.0000
  C   C270      1.0  0.17854  0.83513  0.99227  1.0000
  C   C271      1.0  0.15479  0.81720  0.99379  1.0000
  N   N18       1.0  0.02986  0.87562  0.76971  1.0000
  H   H317      1.0  0.24802  0.87369  0.80646  1.0000
  H   H318      1.0  0.20529  0.75007  0.66774  1.0000
  H   H319      1.0  0.15014  0.71916  0.72687  1.0000
  C   C272      1.0  0.27147  0.74610  0.95155  1.0000
  C   C273      1.0  0.26074  0.75595  0.91949  1.0000
  C   C274      1.0  0.23747  0.73034  0.73731  1.0000
  C   C275      1.0  0.01114  0.68543  0.81050  1.0000
  H   H320      1.0  0.06788  0.87350  0.93926  1.0000
  C   C276      1.0  0.22797  0.76530  0.97851  1.0000
  H   H321      1.0  0.20738  0.90206  0.82384  1.0000
  C   C277      1.0  0.03439  0.50699  0.57355  1.0000
  H   H322      1.0  0.02598  0.82552  0.80989  1.0000
  H   H323      1.0  0.16323  0.71891  0.68316  1.0000
  S   S79       1.0  0.14656  0.49407  0.73450  1.0000
  C   C278      1.0  0.13834  0.88857  0.93412  1.0000
  H   H324      1.0  0.21800  0.77530  0.69884  1.0000
  H   H325      1.0  0.19668  0.51023  0.77586  1.0000
  C   C279      1.0  0.24802  0.89581  0.79879  1.0000
  C   C280      1.0  0.00592  0.83454  0.80161  1.0000
  N   N19       1.0  0.10941  0.89163  0.94915  1.0000
  C   C281      1.0  0.20947  0.72226  0.72738  1.0000
  C   C282      1.0  0.99170  0.50570  0.62377  1.0000
  C   C283      1.0  0.23464  0.77025  0.91721  1.0000
  H   H326      1.0  0.01922  0.61382  0.76231  1.0000
  C   C284      1.0  0.24384  0.95321  0.78066  1.0000
  C   C285      1.0  0.01613  0.63374  0.77575  1.0000
  C   C286      1.0  0.30810  0.72338  0.98874  1.0000
  H   H327      1.0  0.19786  0.78566  0.94460  1.0000
  C   C287      1.0  0.29641  0.86204  0.78049  1.0000
  C   C288      1.0  0.19903  0.76286  0.69070  1.0000
  C   C289      1.0  0.32207  0.75031  0.93914  1.0000
  H   H328      1.0  0.17522  0.74854  0.77157  1.0000
  C   C290      1.0  0.18211  0.76193  0.74946  1.0000
  H   H329      1.0  0.03284  0.95726  0.52634  1.0000
  C   C291      1.0  0.26762  0.93735  0.77029  1.0000
  C   C292      1.0  0.29854  0.70508  0.93225  1.0000
  H   H330      1.0  0.29666  0.86147  0.80917  1.0000
  C   C293      1.0  0.20341  0.69261  0.72687  1.0000
  H   H331      1.0  0.23104  0.53929  0.71796  1.0000
  H   H332      1.0  0.16476  0.77764  0.74464  1.0000
  C   C294      1.0  0.09043  0.87152  0.93058  1.0000
  H   H333      1.0  0.27945  0.71669  0.75311  1.0000
  C   C295      1.0  0.09892  0.92084  0.94216  1.0000
  H   H334      1.0  0.27539  0.88062  0.71935  1.0000
  H   H335      1.0  0.01271  0.88312  0.71880  1.0000
  H   H336      1.0  0.09755  0.84908  0.93422  1.0000
  C   C296      1.0  0.25165  0.68121  0.74449  1.0000
  H   H337      1.0  0.23421  0.51599  0.77456  1.0000
  C   C297      1.0  0.00427  0.85982  0.78146  1.0000
  H   H338      1.0  0.18279  0.77875  0.68232  1.0000
  H   H339      1.0  0.13806  0.89150  0.90558  1.0000
  N   N20       1.0  0.20870  0.55345  0.76384  1.0000
  C   C298      1.0  0.21026  0.54848  0.72612  1.0000
  C   C299      1.0  0.21366  0.52607  0.78196  1.0000
  C   C300      1.0  0.17913  0.56271  0.77201  1.0000
  C   C301      1.0  0.23072  0.57438  0.77408  1.0000
  C   C302      1.0  0.26011  0.56835  0.76864  1.0000
  C   C303      1.0  0.22397  0.60104  0.78952  1.0000
  C   C304      1.0  0.28136  0.58753  0.77848  1.0000
  C   C305      1.0  0.24548  0.61989  0.79965  1.0000
  H   H340      1.0  0.06151  0.63898  0.78240  1.0000
  H   H341      1.0  0.04605  0.62629  0.53205  1.0000
  H   H342      1.0  0.31551  0.62444  0.01517  1.0000
  H   H343      1.0  0.20706  0.56867  0.71155  1.0000
  H   H344      1.0  0.03762  0.97880  0.62330  1.0000
  C   C306      1.0  0.03652  0.52434  0.60247  1.0000
  H   H345      1.0  0.21376  0.52912  0.81042  1.0000
  H   H346      1.0  0.17334  0.58235  0.75770  1.0000
  H   H347      1.0  0.00978  0.91721  0.76700  1.0000
  H   H348      1.0  0.17612  0.56646  0.80009  1.0000
  H   H349      1.0  0.26693  0.54873  0.75665  1.0000
  H   H350      1.0  0.20226  0.60793  0.79403  1.0000
  H   H351      1.0  0.09895  0.98666  0.77495  1.0000
  H   H352      1.0  0.28368  0.94811  0.75502  1.0000
  H   H353      1.0  0.05495  0.53806  0.60569  1.0000
  C   C307      1.0  0.04053  0.64799  0.78713  1.0000
  H   H354      1.0  0.04728  0.91813  0.77309  1.0000
  H   H355      1.0  0.09048  0.87551  0.90222  1.0000
  H   H356      1.0  0.01741  0.53666  0.65048  1.0000
  H   H357      1.0  0.21900  0.65006  0.73524  1.0000
  H   H358      1.0  0.11346  0.93737  0.95259  1.0000
  H   H359      1.0  0.15370  0.90440  0.94426  1.0000
  H   H360      1.0  0.19354  0.53325  0.71738  1.0000
  C   C308      1.0  0.25420  0.75113  0.98117  1.0000
  C   C309      1.0  0.12871  0.90342  0.00799  1.0000
  H   H361      1.0  0.22708  0.77783  0.89244  1.0000
  C   C310      1.0  0.21823  0.77480  0.94660  1.0000
  C   C311      1.0  0.02769  0.90597  0.78000  1.0000
  H   H362      1.0  0.09706  0.92501  0.91390  1.0000
  C   C312      1.0  0.16040  0.73229  0.70658  1.0000
  C   C313      1.0  0.05708  0.86440  0.78400  1.0000
  C   C314      1.0  0.01756  0.97112  0.71964  1.0000
  C   C315      1.0  0.22230  0.94053  0.80005  1.0000
  H   H363      1.0  0.24001  0.64004  0.81167  1.0000
  N   N21       1.0  0.29567  0.89173  0.76721  1.0000
  H   H364      1.0  0.14714  0.86706  0.93974  1.0000
  H   H365      1.0  0.24342  0.75245  0.73964  1.0000
  H   H366      1.0  0.29329  0.70746  0.00014  1.0000
  C   C316      1.0  0.22437  0.91192  0.80905  1.0000
  N   N22       1.0  0.29947  0.73146  0.95320  1.0000
  H   H367      1.0  0.21499  0.76906  0.00121  1.0000
  N   N23       1.0  0.18799  0.74425  0.71862  1.0000
  C   C317      1.0  0.03183  0.87399  0.73161  1.0000
  H   H368      1.0  0.18264  0.68423  0.72033  1.0000
  H   H369      1.0  0.05724  0.86525  0.81269  1.0000
  C   C318      1.0  0.22427  0.67252  0.73543  1.0000
  H   H370      1.0  0.14464  0.74923  0.70015  1.0000
  C   C319      1.0  0.29547  0.89036  0.72901  1.0000
  H   H371      1.0  0.16307  0.54646  0.76445  1.0000
  C   C320      1.0  0.25826  0.71004  0.74527  1.0000
  H   H372      1.0  0.27245  0.75267  0.89581  1.0000
  H   H373      1.0  0.26775  0.66567  0.75147  1.0000
  H   H374      1.0  0.07578  0.87713  0.77518  1.0000
  H   H375      1.0  0.04766  0.50771  0.72435  1.0000
  H   H376      1.0  0.30951  0.74223  0.00595  1.0000
  H   H377      1.0  0.31586  0.85047  0.77166  1.0000
  H   H378      1.0  0.05054  0.88603  0.72158  1.0000
  H   H379      1.0  0.06130  0.84216  0.77560  1.0000
  H   H380      1.0  0.28123  0.69065  0.94116  1.0000
  H   H381      1.0  0.05702  0.68482  0.81319  1.0000
  H   H382      1.0  0.26046  0.74435  0.00664  1.0000
  C   C321      1.0  0.27052  0.90815  0.77913  1.0000
  C   C322      1.0  0.02517  0.50318  0.72251  1.0000
  H   H383      1.0  0.14192  0.91995  0.99711  1.0000
  H   H384      1.0  0.32266  0.77094  0.95316  1.0000
  C   C323      1.0  0.11058  0.88664  0.98687  1.0000
  H   H385      1.0  0.30364  0.58254  0.77389  1.0000
  C   C324      1.0  0.01532  0.52356  0.62761  1.0000
  H   H386      1.0  0.02445  0.90804  0.80831  1.0000
  H   H387      1.0  0.31363  0.87745  0.71895  1.0000
  H   H388      1.0  0.27792  0.84935  0.77116  1.0000
  H   H389      1.0  0.05155  0.50713  0.55477  1.0000
  C   C325      1.0  0.03804  0.67379  0.80447  1.0000
  H   H390      1.0  0.20376  0.95285  0.80776  1.0000
  C   C326      1.0  0.10765  0.57214  0.52190  1.0000
  H   H391      1.0  0.32246  0.90927  0.80690  1.0000
  H   H392      1.0  0.00931  0.70556  0.82395  1.0000
  C   C327      1.0  0.09407  0.86539  0.00374  1.0000
  H   H393      1.0  0.08016  0.85112  0.98994  1.0000
  H   H394      1.0  0.04572  0.98877  0.57947  1.0000
  Fe  Fe39      1.0  0.46391  0.37536  0.33259  1.0000
  S   S80       1.0  0.43288  0.40007  0.29996  1.0000
  S   S81       1.0  0.50347  0.35130  0.31465  1.0000
  Fe  Fe40      1.0  0.43011  0.38711  0.40001  1.0000
  S   S82       1.0  0.39642  0.41264  0.37247  1.0000
  S   S83       1.0  0.43617  0.37808  0.45738  1.0000
  Fe  Fe41      1.0  0.39809  0.37898  0.33103  1.0000
  S   S84       1.0  0.36112  0.35553  0.30509  1.0000
  Fe  Fe42      1.0  0.43366  0.43137  0.34365  1.0000
  C   C328      1.0  0.52315  0.48186  0.33059  1.0000
  S   S85       1.0  0.42926  0.35177  0.36085  1.0000
  S   S86       1.0  0.46712  0.40835  0.37393  1.0000
  S   S87       1.0  0.34542  0.17722  0.17576  1.0000
  H   H395      1.0  0.65050  0.32903  0.08438  1.0000
  Fe  Fe43      1.0  0.34780  0.13519  0.20361  1.0000
  S   S88       1.0  0.38794  0.11103  0.22037  1.0000
  C   C329      1.0  0.50683  0.03695  0.46959  1.0000
  H   H396      1.0  0.35113  0.13154  0.06653  1.0000
  C   C330      1.0  0.34436  0.14271  0.04355  1.0000
  N   N24       1.0  0.33601  0.04108  0.23895  1.0000
  H   H397      1.0  0.48724  0.42031  0.44927  1.0000
  H   H398      1.0  0.53810  0.18928  0.32123  1.0000
  H   H399      1.0  0.62249  0.15685  0.39085  1.0000
  C   C331      1.0  0.46180  0.13828  0.29195  1.0000
  C   C332      1.0  0.44064  0.15806  0.28234  1.0000
  C   C333      1.0  0.41768  0.15008  0.26087  1.0000
  C   C334      1.0  0.41580  0.12220  0.24846  1.0000
  C   C335      1.0  0.43694  0.10243  0.25810  1.0000
  C   C336      1.0  0.45975  0.11035  0.27979  1.0000
  H   H400      1.0  0.44217  0.17971  0.29143  1.0000
  H   H401      1.0  0.40165  0.16551  0.25359  1.0000
  H   H402      1.0  0.43576  0.08084  0.24864  1.0000
  H   H403      1.0  0.47581  0.09488  0.28693  1.0000
  H   H404      1.0  0.36262  0.24684  0.23337  1.0000
  C   C337      1.0  0.42094  0.39534  0.49371  1.0000
  C   C338      1.0  0.65040  0.47284  0.30141  1.0000
  H   H405      1.0  0.39508  0.42495  0.46510  1.0000
  H   H406      1.0  0.46251  0.48418  0.26604  1.0000
  C   C339      1.0  0.47279  0.01039  0.32607  1.0000
  C   C340      1.0  0.50022  0.02224  0.32742  1.0000
  C   C341      1.0  0.49501  0.47172  0.33170  1.0000
  H   H407      1.0  0.45432  0.02419  0.32481  1.0000
  H   H408      1.0  0.50274  0.04505  0.32653  1.0000
  H   H409      1.0  0.49109  0.44919  0.32952  1.0000
  C   C342      1.0  0.48484  0.01683  0.47098  1.0000
  C   C343      1.0  0.48433  0.99318  0.44806  1.0000
  H   H410      1.0  0.62196  0.04192  0.51896  1.0000
  S   S89       1.0  0.60194  0.40264  0.21964  1.0000
  H   H411      1.0  0.35267  0.44504  0.24950  1.0000
  Fe  Fe44      1.0  0.56066  0.10540  0.40501  1.0000
  S   S90       1.0  0.59513  0.08341  0.37492  1.0000
  S   S91       1.0  0.56008  0.11382  0.46307  1.0000
  Fe  Fe45      1.0  0.52670  0.12128  0.33843  1.0000
  S   S92       1.0  0.55896  0.10027  0.30380  1.0000
  S   S93       1.0  0.49047  0.14959  0.31873  1.0000
  Fe  Fe46      1.0  0.55850  0.06574  0.34408  1.0000
  S   S94       1.0  0.55869  0.01917  0.33104  1.0000
  Fe  Fe47      1.0  0.59276  0.11985  0.33733  1.0000
  S   S95       1.0  0.62930  0.14802  0.31854  1.0000
  S   S96       1.0  0.52397  0.08530  0.37669  1.0000
  S   S97       1.0  0.56057  0.14331  0.36962  1.0000
  H   H412      1.0  0.53906  0.29972  0.24441  1.0000
  H   H413      1.0  0.35033  0.06868  0.19816  1.0000
  H   H414      1.0  0.59782  0.06388  0.46840  1.0000
  C   C344      1.0  0.52421  0.00458  0.32924  1.0000
  C   C345      1.0  0.62913  0.15307  0.41799  1.0000
  H   H415      1.0  0.54072  0.46702  0.32845  1.0000
  H   H416      1.0  0.45421  0.47784  0.50213  1.0000
  C   C346      1.0  0.35256  0.04632  0.20703  1.0000
  H   H417      1.0  0.59457  0.44071  0.34265  1.0000
  H   H418      1.0  0.41463  0.28787  0.38944  1.0000
  H   H419      1.0  0.38796  0.29915  0.33724  1.0000
  C   C347      1.0  0.41135  0.27147  0.37018  1.0000
  C   C348      1.0  0.53106  0.36661  0.28941  1.0000
  C   C349      1.0  0.52767  0.39286  0.27290  1.0000
  C   C350      1.0  0.54953  0.40354  0.25153  1.0000
  C   C351      1.0  0.57505  0.38825  0.24670  1.0000
  C   C352      1.0  0.57873  0.36236  0.26390  1.0000
  C   C353      1.0  0.55678  0.35157  0.28504  1.0000
  H   H420      1.0  0.50801  0.40466  0.27609  1.0000
  H   H421      1.0  0.54654  0.42363  0.23840  1.0000
  H   H422      1.0  0.59841  0.35058  0.26080  1.0000
  H   H423      1.0  0.55970  0.33142  0.29805  1.0000
  H   H424      1.0  0.47299  0.47919  0.22164  1.0000
  S   S98       1.0  0.65034  0.34364  0.17271  1.0000
  C   C354      1.0  0.39098  0.28800  0.26435  1.0000
  H   H425      1.0  0.36141  0.22237  0.26830  1.0000
  H   H426      1.0  0.59838  0.18600  0.26189  1.0000
  H   H427      1.0  0.37123  0.05765  0.26940  1.0000
  C   C355      1.0  0.64576  0.32069  0.02974  1.0000
  C   C356      1.0  0.32878  0.36993  0.28847  1.0000
  H   H428      1.0  0.61993  0.01283  0.24126  1.0000
  H   H429      1.0  0.44205  0.44147  0.43871  1.0000
  H   H430      1.0  0.58445  0.44859  0.27951  1.0000
  C   C357      1.0  0.63221  0.42342  0.29818  1.0000
  C   C358      1.0  0.59411  0.07224  0.49398  1.0000
  C   C359      1.0  0.40196  0.41818  0.49042  1.0000
  H   H431      1.0  0.43425  0.23955  0.39878  1.0000
  C   C360      1.0  0.57631  0.09589  0.49839  1.0000
  C   C361      1.0  0.39616  0.27773  0.34011  1.0000
  H   H432      1.0  0.63221  0.11398  0.47276  1.0000
  C   C362      1.0  0.37396  0.24038  0.25737  1.0000
  H   H433      1.0  0.52399  0.20770  0.28504  1.0000
  H   H434      1.0  0.58722  0.02050  0.21905  1.0000
  C   C363      1.0  0.57570  0.18708  0.27030  1.0000
  H   H435      1.0  0.62890  0.30530  0.03344  1.0000
  H   H436      1.0  0.64975  0.09178  0.29725  1.0000
  N   N25       1.0  0.62530  0.45385  0.30426  1.0000
  N   N26       1.0  0.37614  0.26432  0.28221  1.0000
  C   C364      1.0  0.55601  0.28409  0.24716  1.0000
  C   C365      1.0  0.46916  0.46074  0.49391  1.0000
  H   H437      1.0  0.58665  0.23258  0.33696  1.0000
  C   C366      1.0  0.39168  0.25687  0.31422  1.0000
  H   H438      1.0  0.38087  0.45169  0.30275  1.0000
  C   C367      1.0  0.40287  0.22921  0.32068  1.0000
  C   C368      1.0  0.35093  0.46485  0.26372  1.0000
  C   C369      1.0  0.41813  0.22320  0.35082  1.0000
  H   H439      1.0  0.58677  0.19430  0.33826  1.0000
  H   H440      1.0  0.38353  0.01266  0.26300  1.0000
  H   H441      1.0  0.62874  0.45147  0.35950  1.0000
  H   H442      1.0  0.58622  0.30885  0.21807  1.0000
  H   H443      1.0  0.54630  0.00895  0.40457  1.0000
  C   C370      1.0  0.34670  0.27354  0.29092  1.0000
  C   C371      1.0  0.59648  0.00903  0.24152  1.0000
  H   H444      1.0  0.33506  0.25661  0.30529  1.0000
  H   H445      1.0  0.62537  0.27400  0.22517  1.0000
  H   H446      1.0  0.61302  0.40960  0.30076  1.0000
  H   H447      1.0  0.43649  0.47897  0.44196  1.0000
  H   H448      1.0  0.40012  0.21177  0.30292  1.0000
  H   H449      1.0  0.37581  0.04261  0.21083  1.0000
  H   H450      1.0  0.42671  0.20201  0.35505  1.0000
  C   C372      1.0  0.42241  0.24429  0.37547  1.0000
  N   N27       1.0  0.56955  0.21254  0.29165  1.0000
  C   C373      1.0  0.54027  0.20920  0.30587  1.0000
  H   H451      1.0  0.59590  0.48468  0.28277  1.0000
  C   C374      1.0  0.58967  0.21306  0.32115  1.0000
  C   C375      1.0  0.57334  0.23869  0.27079  1.0000
  C   C376      1.0  0.60012  0.24469  0.25519  1.0000
  C   C377      1.0  0.55129  0.25920  0.26615  1.0000
  C   C378      1.0  0.60458  0.26968  0.23637  1.0000
  H   H452      1.0  0.38002  0.29402  0.23995  1.0000
  H   H453      1.0  0.58857  0.01909  0.26571  1.0000
  H   H454      1.0  0.52640  0.48281  0.49224  1.0000
  C   C379      1.0  0.36668  0.46842  0.29383  1.0000
  H   H455      1.0  0.57177  0.16699  0.28484  1.0000
  H   H456      1.0  0.43752  0.47087  0.23609  1.0000
  H   H457      1.0  0.50624  0.44428  0.42125  1.0000
  N   N28       1.0  0.47847  0.46491  0.45766  1.0000
  H   H458      1.0  0.34528  0.03235  0.18564  1.0000
  H   H459      1.0  0.42759  0.99922  0.46657  1.0000
  H   H460      1.0  0.61235  0.21238  0.31267  1.0000
  H   H461      1.0  0.61801  0.23028  0.25783  1.0000
  H   H462      1.0  0.53028  0.25677  0.27719  1.0000
  H   H463      1.0  0.54289  0.01543  0.25032  1.0000
  H   H464      1.0  0.56202  0.18666  0.24686  1.0000
  C   C380      1.0  0.49810  0.44143  0.44805  1.0000
  H   H465      1.0  0.45817  0.46433  0.40767  1.0000
  H   H466      1.0  0.61231  0.46128  0.25183  1.0000
  H   H467      1.0  0.65432  0.11435  0.37670  1.0000
  H   H468      1.0  0.39163  0.30769  0.28014  1.0000
  S   S99       1.0  0.43678  0.47862  0.33590  1.0000
  C   C381      1.0  0.58258  0.28934  0.23237  1.0000
  H   H469      1.0  0.41345  0.28221  0.25820  1.0000
  C   C382      1.0  0.34764  0.05920  0.26701  1.0000
  Fe  Fe48      1.0  0.64460  0.38125  0.20798  1.0000
  C   C383      1.0  0.45536  0.48631  0.23886  1.0000
  H   H470      1.0  0.34354  0.08224  0.26221  1.0000
  H   H471      1.0  0.51685  0.43996  0.46542  1.0000
  H   H472      1.0  0.34632  0.29317  0.30690  1.0000
  C   C384      1.0  0.33857  0.01056  0.24795  1.0000
  C   C385      1.0  0.52925  0.01096  0.42339  1.0000
  H   H473      1.0  0.33794  0.05364  0.29233  1.0000
  H   H474      1.0  0.61338  0.13770  0.42864  1.0000
  H   H475      1.0  0.54562  0.04996  0.44448  1.0000
  H   H476      1.0  0.62645  0.17340  0.43229  1.0000
  H   H477      1.0  0.39536  0.23250  0.24933  1.0000
  C   C386      1.0  0.45271  0.46250  0.43554  1.0000
  H   H478      1.0  0.45791  0.44010  0.49730  1.0000
  H   H479      1.0  0.64844  0.41545  0.31676  1.0000
  C   C387      1.0  0.52893  0.03404  0.44583  1.0000
  H   H480      1.0  0.60333  0.47729  0.34450  1.0000
  H   H481      1.0  0.53450  0.22692  0.32356  1.0000
  H   H482      1.0  0.33398  0.27835  0.26738  1.0000
  H   H483      1.0  0.64023  0.41988  0.27152  1.0000
  H   H484      1.0  0.50657  0.05530  0.48654  1.0000
  C   C388      1.0  0.65139  0.12485  0.48071  1.0000
  H   H485      1.0  0.37707  0.44989  0.51731  1.0000
  H   H486      1.0  0.64621  0.09845  0.41750  1.0000
  C   C389      1.0  0.60359  0.46256  0.27853  1.0000
  C   C390      1.0  0.33243  0.48627  0.25231  1.0000
  C   C391      1.0  0.36501  0.99928  0.25960  1.0000
  C   C392      1.0  0.61254  0.45594  0.33924  1.0000
  H   H487      1.0  0.33609  0.41277  0.30542  1.0000
  H   H488      1.0  0.46830  0.02055  0.48982  1.0000
  H   H489      1.0  0.48725  0.46020  0.51233  1.0000
  C   C393      1.0  0.50739  0.99078  0.42444  1.0000
  H   H490      1.0  0.49273  0.00351  0.24987  1.0000
  C   C394      1.0  0.53747  0.99371  0.24426  1.0000
  H   H491      1.0  0.44156  0.99082  0.40340  1.0000
  Fe  Fe49      1.0  0.36831  0.20704  0.83331  1.0000
  C   C395      1.0  0.65465  0.32755  0.99604  1.0000
  S   S100      1.0  0.39513  0.24647  0.82163  1.0000
  Fe  Fe50      1.0  0.35431  0.16145  0.88903  1.0000
  S   S101      1.0  0.36531  0.14212  0.94133  1.0000
  Fe  Fe51      1.0  0.36452  0.14349  0.81352  1.0000
  S   S102      1.0  0.38843  0.11210  0.77927  1.0000
  S   S103      1.0  0.39079  0.16754  0.85212  1.0000
  H   H492      1.0  0.38664  0.01980  0.85737  1.0000
  Fe  Fe52      1.0  0.39277  0.43134  0.64665  1.0000
  S   S104      1.0  0.41881  0.39629  0.67072  1.0000
  S   S105      1.0  0.38705  0.44242  0.58965  1.0000
  Fe  Fe53      1.0  0.37566  0.45651  0.71764  1.0000
  S   S106      1.0  0.39980  0.42277  0.74673  1.0000
  C   C396      1.0  0.49102  0.47081  0.72590  1.0000
  Fe  Fe54      1.0  0.43381  0.43049  0.70706  1.0000
  S   S107      1.0  0.47971  0.43517  0.72346  1.0000
  Fe  Fe55      1.0  0.38244  0.39132  0.70857  1.0000
  S   S108      1.0  0.35991  0.34958  0.72244  1.0000
  S   S109      1.0  0.41078  0.46595  0.68019  1.0000
  S   S110      1.0  0.35523  0.42456  0.68213  1.0000
  C   C397      1.0  0.60780  0.05985  0.52272  1.0000
  C   C398      1.0  0.48741  0.02099  0.71530  1.0000
  Fe  Fe56      1.0  0.64630  0.31705  0.90268  1.0000
  H   H493      1.0  0.47252  0.03851  0.71308  1.0000
  H   H494      1.0  0.44559  0.99994  0.77710  1.0000
  C   C399      1.0  0.37729  0.07687  0.76965  1.0000
  C   C400      1.0  0.35208  0.06538  0.78311  1.0000
  H   H495      1.0  0.61072  0.25579  0.88738  1.0000
  C   C401      1.0  0.36179  0.01997  0.75441  1.0000
  C   C402      1.0  0.38678  0.03159  0.74058  1.0000
  C   C403      1.0  0.39451  0.05984  0.74829  1.0000
  H   H496      1.0  0.58402  0.22928  0.88176  1.0000
  H   H497      1.0  0.40029  0.01874  0.72417  1.0000
  H   H498      1.0  0.41407  0.06845  0.73778  1.0000
  C   C404      1.0  0.38484  0.27505  0.79417  1.0000
  C   C405      1.0  0.40348  0.29823  0.78978  1.0000
  C   C406      1.0  0.39627  0.32123  0.76800  1.0000
  C   C407      1.0  0.37032  0.32122  0.75019  1.0000
  C   C408      1.0  0.35174  0.29797  0.75447  1.0000
  C   C409      1.0  0.35889  0.27504  0.77634  1.0000
  H   H499      1.0  0.42358  0.29847  0.80345  1.0000
  H   H500      1.0  0.41076  0.33893  0.76499  1.0000
  C   C410      1.0  0.45248  0.01529  0.62020  1.0000
  H   H501      1.0  0.33839  0.07827  0.79922  1.0000
  C   C411      1.0  0.34861  0.15081  0.98121  1.0000
  C   C412      1.0  0.43828  0.01447  0.79692  1.0000
  H   H502      1.0  0.39896  0.03846  0.91198  1.0000
  C   C413      1.0  0.41896  0.40059  0.55658  1.0000
  C   C414      1.0  0.40007  0.42348  0.55330  1.0000
  H   H503      1.0  0.53934  0.44213  0.63036  1.0000
  H   H504      1.0  0.42551  0.39358  0.58194  1.0000
  H   H505      1.0  0.55806  0.12467  0.53562  1.0000
  S   S111      1.0  0.65493  0.06854  0.68502  1.0000
  Fe  Fe57      1.0  0.63434  0.35264  0.83718  1.0000
  S   S112      1.0  0.60876  0.32000  0.86664  1.0000
  S   S113      1.0  0.61069  0.39304  0.82081  1.0000
  C   C415      1.0  0.45379  0.48713  0.58520  1.0000
  C   C416      1.0  0.41467  0.00754  0.81702  1.0000
  Fe  Fe58      1.0  0.63051  0.28688  0.83378  1.0000
  S   S114      1.0  0.60441  0.24957  0.81305  1.0000
  C   C417      1.0  0.44895  0.44732  0.81869  1.0000
  S   S115      1.0  0.65289  0.31974  0.80137  1.0000
  Fe  Fe59      1.0  0.62854  0.10108  0.71383  1.0000
  H   H506      1.0  0.52727  0.06010  0.60827  1.0000
  C   C418      1.0  0.45208  0.04036  0.80179  1.0000
  Fe  Fe60      1.0  0.57613  0.06408  0.70874  1.0000
  S   S116      1.0  0.59835  0.02906  0.68013  1.0000
  S   S117      1.0  0.52899  0.06157  0.71913  1.0000
  Fe  Fe61      1.0  0.63349  0.03562  0.71839  1.0000
  C   C419      1.0  0.61634  0.47163  0.77714  1.0000
  Fe  Fe62      1.0  0.61749  0.06444  0.64883  1.0000
  S   S118      1.0  0.62233  0.05497  0.59123  1.0000
  S   S119      1.0  0.60981  0.06835  0.74966  1.0000
  S   S120      1.0  0.59274  0.09934  0.67496  1.0000
  C   C420      1.0  0.62445  0.42329  0.79891  1.0000
  C   C421      1.0  0.60760  0.44805  0.79698  1.0000
  C   C422      1.0  0.46056  0.46720  0.61045  1.0000
  N   N29       1.0  0.53294  0.01474  0.60266  1.0000
  C   C423      1.0  0.37727  0.07853  0.87078  1.0000
  H   H507      1.0  0.63520  0.15920  0.83117  1.0000
  H   H508      1.0  0.58746  0.44893  0.81060  1.0000
  H   H509      1.0  0.60786  0.18371  0.95421  1.0000
  H   H510      1.0  0.54320  0.99676  0.55258  1.0000
  C   C424      1.0  0.61817  0.21960  0.79040  1.0000
  C   C425      1.0  0.59935  0.19788  0.78016  1.0000
  C   C426      1.0  0.60939  0.17358  0.76254  1.0000
  C   C427      1.0  0.63846  0.17073  0.75491  1.0000
  H   H511      1.0  0.42119  0.11133  0.85171  1.0000
  H   H512      1.0  0.43451  0.05252  0.91417  1.0000
  H   H513      1.0  0.57684  0.19987  0.78586  1.0000
  H   H514      1.0  0.59466  0.15707  0.75485  1.0000
  C   C428      1.0  0.35716  0.13655  0.01143  1.0000
  C   C429      1.0  0.48328  0.47214  0.63272  1.0000
  C   C430      1.0  0.41175  0.05827  0.90971  1.0000
  H   H515      1.0  0.56225  0.04770  0.61869  1.0000
  C   C431      1.0  0.51656  0.02637  0.71944  1.0000
  H   H516      1.0  0.53558  0.45984  0.72921  1.0000
  H   H517      1.0  0.40481  0.07248  0.93119  1.0000
  C   C432      1.0  0.53917  0.04213  0.62022  1.0000
  C   C433      1.0  0.58526  0.09384  0.56068  1.0000
  C   C434      1.0  0.60365  0.07071  0.55618  1.0000
  H   H518      1.0  0.58070  0.21068  0.95820  1.0000
  C   C435      1.0  0.62481  0.18736  0.87317  1.0000
  H   H519      1.0  0.58187  0.10248  0.58620  1.0000
  C   C436      1.0  0.41084  0.47969  0.80679  1.0000
  C   C437      1.0  0.41841  0.05294  0.84809  1.0000
  H   H520      1.0  0.45386  0.07923  0.82882  1.0000
  H   H521      1.0  0.36905  0.09342  0.89085  1.0000
  H   H522      1.0  0.58156  0.18851  0.92106  1.0000
  C   C438      1.0  0.48131  0.02299  0.62103  1.0000
  H   H523      1.0  0.41420  0.11427  0.89693  1.0000
  H   H524      1.0  0.44621  0.09714  0.88296  1.0000
  N   N30       1.0  0.55531  0.38644  0.72946  1.0000
  C   C439      1.0  0.53089  0.36847  0.71850  1.0000
  C   C440      1.0  0.58020  0.36730  0.73479  1.0000
  C   C441      1.0  0.54765  0.39955  0.76293  1.0000
  C   C442      1.0  0.56259  0.40914  0.70439  1.0000
  C   C443      1.0  0.58718  0.42624  0.70939  1.0000
  C   C444      1.0  0.54529  0.41571  0.67528  1.0000
  C   C445      1.0  0.59421  0.44827  0.68670  1.0000
  H   H525      1.0  0.53504  0.35836  0.69306  1.0000
  H   H526      1.0  0.52658  0.35107  0.73730  1.0000
  H   H527      1.0  0.51072  0.38101  0.71692  1.0000
  H   H528      1.0  0.57488  0.34900  0.75191  1.0000
  H   H529      1.0  0.59830  0.37814  0.74779  1.0000
  H   H530      1.0  0.58814  0.35868  0.70985  1.0000
  H   H531      1.0  0.54282  0.38324  0.78293  1.0000
  H   H532      1.0  0.56526  0.41266  0.77337  1.0000
  H   H533      1.0  0.52871  0.41369  0.76036  1.0000
  H   H534      1.0  0.60102  0.42301  0.73123  1.0000
  H   H535      1.0  0.52566  0.40459  0.66986  1.0000
  H   H536      1.0  0.64152  0.22393  0.96740  1.0000
  C   C446      1.0  0.44236  0.05945  0.82687  1.0000
  C   C447      1.0  0.39177  0.43227  0.52008  1.0000
  H   H537      1.0  0.49522  0.47446  0.80949  1.0000
  H   H538      1.0  0.43298  0.42994  0.82158  1.0000
  C   C448      1.0  0.40495  0.02630  0.84241  1.0000
  C   C449      1.0  0.57178  0.10638  0.53192  1.0000
  C   C450      1.0  0.64240  0.47095  0.75957  1.0000
  C   C451      1.0  0.57707  0.45386  0.65820  1.0000
  N   N31       1.0  0.40802  0.07218  0.87569  1.0000
  N   N32       1.0  0.43523  0.18929  0.74294  1.0000
  C   C452      1.0  0.42781  0.18445  0.77955  1.0000
  C   C453      1.0  0.43865  0.22047  0.73801  1.0000
  C   C454      1.0  0.41087  0.18004  0.72119  1.0000
  C   C455      1.0  0.46108  0.17254  0.73443  1.0000
  C   C456      1.0  0.46035  0.14234  0.73568  1.0000
  C   C457      1.0  0.48774  0.18532  0.72614  1.0000
  C   C458      1.0  0.48462  0.12601  0.72877  1.0000
  C   C459      1.0  0.51194  0.16872  0.71938  1.0000
  C   C460      1.0  0.51037  0.13914  0.72065  1.0000
  H   H539      1.0  0.44510  0.19183  0.79703  1.0000
  H   H540      1.0  0.40807  0.19613  0.78674  1.0000
  H   H541      1.0  0.42386  0.16165  0.78527  1.0000
  H   H542      1.0  0.45512  0.22942  0.75559  1.0000
  H   H543      1.0  0.41861  0.23227  0.74435  1.0000
  H   H544      1.0  0.44422  0.22576  0.71086  1.0000
  H   H545      1.0  0.40398  0.15790  0.72697  1.0000
  H   H546      1.0  0.39158  0.19348  0.72554  1.0000
  H   H547      1.0  0.41639  0.18119  0.69331  1.0000
  H   H548      1.0  0.44104  0.13104  0.74245  1.0000
  H   H549      1.0  0.49053  0.20808  0.72493  1.0000
  H   H550      1.0  0.48354  0.10297  0.72994  1.0000
  H   H551      1.0  0.53215  0.17880  0.71329  1.0000
  H   H552      1.0  0.52916  0.12629  0.71552  1.0000
  C   C461      1.0  0.64353  0.17242  0.85173  1.0000
  C   C462      1.0  0.42320  0.09988  0.87676  1.0000
  C   C463      1.0  0.34453  0.03701  0.77574  1.0000
  H   H553      1.0  0.58267  0.47097  0.64068  1.0000
  H   H554      1.0  0.55794  0.00755  0.72743  1.0000
  H   H555      1.0  0.53396  0.04120  0.64820  1.0000
  C   C464      1.0  0.64723  0.21672  0.78281  1.0000
  H   H556      1.0  0.48672  0.04090  0.63715  1.0000
  H   H557      1.0  0.60224  0.18520  0.86811  1.0000
  C   C465      1.0  0.65054  0.42260  0.78137  1.0000
  C   C466      1.0  0.53559  0.00361  0.72279  1.0000
  C   C467      1.0  0.55271  0.43760  0.65247  1.0000
  C   C468      1.0  0.63500  0.20534  0.89981  1.0000
  H   H558      1.0  0.64285  0.25410  0.93847  1.0000
  H   H559      1.0  0.37361  0.08863  0.84529  1.0000
  H   H560      1.0  0.44736  0.47203  0.88180  1.0000
  H   H561      1.0  0.47025  0.04576  0.78568  1.0000
  H   H562      1.0  0.39571  0.46154  0.80897  1.0000
  H   H563      1.0  0.44764  0.44819  0.61329  1.0000
  H   H564      1.0  0.64615  0.11050  0.53316  1.0000
  H   H565      1.0  0.58203  0.25309  0.91766  1.0000
  H   H566      1.0  0.61299  0.46123  0.69144  1.0000
  H   H567      1.0  0.33169  0.29762  0.74070  1.0000
  H   H568      1.0  0.61299  0.24937  0.96599  1.0000
  N   N33       1.0  0.61460  0.22062  0.92243  1.0000
  C   C469      1.0  0.62872  0.23757  0.94980  1.0000
  C   C470      1.0  0.59704  0.24042  0.90152  1.0000
  C   C471      1.0  0.59539  0.19996  0.93969  1.0000
  S   S121      1.0  0.63838  0.31001  0.96046  1.0000
  S   S122      1.0  0.65247  0.14036  0.73333  1.0000
  H   H569      1.0  0.41646  0.48202  0.77904  1.0000
  H   H570      1.0  0.36360  0.05934  0.87216  1.0000
  H   H571      1.0  0.48782  0.45691  0.65301  1.0000
  N   N34       1.0  0.43681  0.47550  0.82805  1.0000
  H   H572      1.0  0.41361  0.45642  0.87019  1.0000
  H   H573      1.0  0.43533  0.48349  0.56887  1.0000
  C   C472      1.0  0.47745  0.99291  0.71355  1.0000
  C   C473      1.0  0.54882  0.99203  0.62100  1.0000
  H   H574      1.0  0.56711  0.02340  0.56674  1.0000
  S   S123      1.0  0.33405  0.20310  0.87400  1.0000
  C   C474      1.0  0.54417  0.01711  0.56694  1.0000
  S   S124      1.0  0.34471  0.18338  0.79207  1.0000
  C   C475      1.0  0.32713  0.17142  0.98345  1.0000
  H   H575      1.0  0.32517  0.02822  0.78655  1.0000
  C   C476      1.0  0.52019  0.47689  0.72792  1.0000
  H   H576      1.0  0.37380  0.12063  0.01005  1.0000
  H   H577      1.0  0.57212  0.99668  0.62206  1.0000
  H   H578      1.0  0.43692  0.02718  0.63510  1.0000
  C   C477      1.0  0.42833  0.47448  0.86485  1.0000
  C   C478      1.0  0.50218  0.00742  0.60217  1.0000
  H   H579      1.0  0.45598  0.44698  0.79124  1.0000
  H   H580      1.0  0.53222  0.03347  0.55196  1.0000
  H   H581      1.0  0.46734  0.44149  0.83539  1.0000
  H   H582      1.0  0.34432  0.25739  0.77939  1.0000
  S   S125      1.0  0.32935  0.13495  0.85134  1.0000
  H   H583      1.0  0.44404  0.36904  0.52974  1.0000
  C   C479      1.0  0.42937  0.38668  0.52693  1.0000
  C   C480      1.0  0.44361  0.99190  0.60100  1.0000
  C   C481      1.0  0.65727  0.19244  0.76518  1.0000
  H   H584      1.0  0.44882  0.48884  0.72577  1.0000
  H   H585      1.0  0.54103  0.98970  0.64803  1.0000
  Fe  Fe63      1.0  0.45883  0.86224  0.33012  1.0000
  S   S126      1.0  0.42807  0.88710  0.29748  1.0000
  S   S127      1.0  0.49269  0.83359  0.30600  1.0000
  Fe  Fe64      1.0  0.42745  0.87792  0.39774  1.0000
  S   S128      1.0  0.39408  0.90382  0.37004  1.0000
  S   S129      1.0  0.43322  0.86904  0.45523  1.0000
  Fe  Fe65      1.0  0.39321  0.86869  0.33047  1.0000
  S   S130      1.0  0.35604  0.84565  0.30462  1.0000
  Fe  Fe66      1.0  0.43146  0.92004  0.33905  1.0000
  H   H586      1.0  0.37297  0.94011  0.51489  1.0000
  S   S131      1.0  0.42384  0.84126  0.36060  1.0000
  S   S132      1.0  0.46491  0.89674  0.36944  1.0000
  S   S133      1.0  0.35837  0.66462  0.17783  1.0000
  H   H587      1.0  0.43884  0.79760  0.29705  1.0000
  Fe  Fe67      1.0  0.35513  0.62796  0.21530  1.0000
  S   S134      1.0  0.38970  0.60284  0.24387  1.0000
  H   H588      1.0  0.39186  0.69612  0.02880  1.0000
  H   H589      1.0  0.41777  0.49865  0.19233  1.0000
  C   C482      1.0  0.36141  0.66935  0.05519  1.0000
  H   H590      1.0  0.47681  0.95412  0.24030  1.0000
  H   H591      1.0  0.32686  0.89984  0.31785  1.0000
  S   S135      1.0  0.64564  0.82989  0.17532  1.0000
  H   H592      1.0  0.48949  0.93604  0.43906  1.0000
  C   C483      1.0  0.47354  0.63928  0.28759  1.0000
  C   C484      1.0  0.45697  0.65539  0.26442  1.0000
  C   C485      1.0  0.43085  0.64493  0.25165  1.0000
  C   C486      1.0  0.42105  0.61811  0.26180  1.0000
  C   C487      1.0  0.43736  0.60221  0.28545  1.0000
  C   C488      1.0  0.46349  0.61267  0.29822  1.0000
  H   H593      1.0  0.46462  0.67587  0.25572  1.0000
  H   H594      1.0  0.41865  0.65731  0.23330  1.0000
  H   H595      1.0  0.43000  0.58153  0.29369  1.0000
  H   H596      1.0  0.47595  0.60005  0.31606  1.0000
  H   H597      1.0  0.36759  0.67639  0.08065  1.0000
  C   C489      1.0  0.52853  0.51111  0.33206  1.0000
  H   H598      1.0  0.48285  0.60757  0.21708  1.0000
  H   H599      1.0  0.39102  0.91479  0.46289  1.0000
  C   C490      1.0  0.34573  0.95160  0.26152  1.0000
  C   C491      1.0  0.47752  0.52002  0.33535  1.0000
  C   C492      1.0  0.50560  0.53013  0.33373  1.0000
  C   C493      1.0  0.49322  0.96313  0.32784  1.0000
  H   H600      1.0  0.45998  0.53496  0.33684  1.0000
  H   H601      1.0  0.50934  0.55268  0.33274  1.0000
  H   H602      1.0  0.49073  0.94032  0.32722  1.0000
  C   C494      1.0  0.48466  0.51399  0.43056  1.0000
  H   H603      1.0  0.44292  0.76352  0.36638  1.0000
  H   H604      1.0  0.38872  0.96220  0.27563  1.0000
  S   S136      1.0  0.60791  0.88497  0.24418  1.0000
  C   C495      1.0  0.51329  0.57858  0.23894  1.0000
  Fe  Fe68      1.0  0.56988  0.61361  0.40083  1.0000
  S   S137      1.0  0.60395  0.58687  0.37577  1.0000
  S   S138      1.0  0.56379  0.62351  0.45813  1.0000
  Fe  Fe69      1.0  0.54079  0.62762  0.33080  1.0000
  S   S139      1.0  0.57309  0.60221  0.30082  1.0000
  S   S140      1.0  0.50635  0.65345  0.30274  1.0000
  Fe  Fe70      1.0  0.56776  0.57019  0.34338  1.0000
  S   S141      1.0  0.56390  0.52350  0.33096  1.0000
  Fe  Fe71      1.0  0.60668  0.62118  0.33519  1.0000
  C   C496      1.0  0.56733  0.69186  0.27143  1.0000
  S   S142      1.0  0.53344  0.59437  0.37135  1.0000
  S   S143      1.0  0.57471  0.64936  0.36233  1.0000
  C   C497      1.0  0.57672  0.60426  0.49441  1.0000
  C   C498      1.0  0.58983  0.57765  0.49112  1.0000
  H   H605      1.0  0.59299  0.56861  0.46577  1.0000
  H   H606      1.0  0.36595  0.76454  0.24494  1.0000
  C   C499      1.0  0.59525  0.69913  0.28019  1.0000
  H   H607      1.0  0.53919  0.96121  0.32999  1.0000
  C   C500      1.0  0.47306  0.94354  0.45768  1.0000
  H   H608      1.0  0.60894  0.54212  0.51788  1.0000
  H   H609      1.0  0.44495  0.57252  0.21260  1.0000
  S   S144      1.0  0.43450  0.96666  0.32632  1.0000
  C   C501      1.0  0.53264  0.52418  0.47145  1.0000
  H   H610      1.0  0.59491  0.97329  0.18550  1.0000
  C   C502      1.0  0.52512  0.84766  0.28977  1.0000
  C   C503      1.0  0.53298  0.87579  0.29612  1.0000
  C   C504      1.0  0.55885  0.88642  0.28302  1.0000
  C   C505      1.0  0.57693  0.86936  0.26270  1.0000
  C   C506      1.0  0.56926  0.84104  0.25666  1.0000
  C   C507      1.0  0.54352  0.83022  0.27032  1.0000
  H   H611      1.0  0.51921  0.88936  0.31134  1.0000
  H   H612      1.0  0.56469  0.90809  0.28871  1.0000
  H   H613      1.0  0.58291  0.82769  0.24103  1.0000
  H   H614      1.0  0.53760  0.80842  0.26536  1.0000
  H   H615      1.0  0.65313  0.69390  0.26966  1.0000
  H   H616      1.0  0.59891  0.94137  0.27164  1.0000
  H   H617      1.0  0.50224  0.50934  0.25707  1.0000
  H   H618      1.0  0.58952  0.97268  0.29542  1.0000
  H   H619      1.0  0.40574  0.50838  0.25562  1.0000
  H   H620      1.0  0.62535  0.73868  0.34016  1.0000
  H   H621      1.0  0.42035  0.96225  0.47132  1.0000
  H   H622      1.0  0.55158  0.52812  0.48677  1.0000
  N   N35       1.0  0.58957  0.97820  0.24035  1.0000
  C   C508      1.0  0.60468  0.96593  0.21008  1.0000
  H   H623      1.0  0.50700  0.75102  0.31100  1.0000
  C   C509      1.0  0.55852  0.97242  0.23830  1.0000
  H   H624      1.0  0.46806  0.70194  0.31097  1.0000
  H   H625      1.0  0.33448  0.56971  0.28232  1.0000
  H   H626      1.0  0.51240  0.91614  0.22947  1.0000
  H   H627      1.0  0.50853  0.97345  0.40618  1.0000
  C   C510      1.0  0.63093  0.81629  0.02916  1.0000
  C   C511      1.0  0.54849  0.71254  0.25955  1.0000
  C   C512      1.0  0.52069  0.97499  0.32920  1.0000
  C   C513      1.0  0.46921  0.98084  0.32649  1.0000
  H   H628      1.0  0.42952  0.95529  0.41272  1.0000
  C   C514      1.0  0.49700  0.53018  0.24717  1.0000
  C   C515      1.0  0.65495  0.71711  0.26458  1.0000
  H   H629      1.0  0.48299  0.94399  0.48370  1.0000
  H   H630      1.0  0.44517  0.97832  0.49985  1.0000
  C   C516      1.0  0.41764  0.72833  0.28853  1.0000
  C   C517      1.0  0.51936  0.93795  0.23288  1.0000
  C   C518      1.0  0.32822  0.78677  0.36566  1.0000
  H   H631      1.0  0.34860  0.92908  0.26651  1.0000
  N   N36       1.0  0.44629  0.51589  0.23078  1.0000
  H   H632      1.0  0.63967  0.77131  0.25381  1.0000
  C   C519      1.0  0.47218  0.49078  0.33472  1.0000
  H   H633      1.0  0.56031  0.66999  0.27398  1.0000
  H   H634      1.0  0.65070  0.72066  0.23666  1.0000
  C   C520      1.0  0.64266  0.76471  0.28115  1.0000
  H   H635      1.0  0.62971  0.77887  0.29802  1.0000
  H   H636      1.0  0.54288  0.75674  0.24702  1.0000
  C   C521      1.0  0.33988  0.64901  0.05160  1.0000
  H   H637      1.0  0.63810  0.70406  0.32838  1.0000
  C   C522      1.0  0.51802  0.49836  0.47437  1.0000
  H   H638      1.0  0.63700  0.82271  0.08402  1.0000
  C   C523      1.0  0.60104  0.96489  0.27210  1.0000
  C   C524      1.0  0.34551  0.51494  0.30167  1.0000
  H   H639      1.0  0.60894  0.68226  0.28932  1.0000
  C   C525      1.0  0.60535  0.72744  0.27721  1.0000
  H   H640      1.0  0.48555  0.77602  0.28783  1.0000
  C   C526      1.0  0.36393  0.49339  0.31278  1.0000
  C   C527      1.0  0.36836  0.97028  0.26654  1.0000
  N   N37       1.0  0.63527  0.73425  0.28626  1.0000
  H   H641      1.0  0.46450  0.78871  0.34333  1.0000
  H   H642      1.0  0.48522  0.71480  0.34827  1.0000
  C   C528      1.0  0.38877  0.92345  0.51770  1.0000
  H   H643      1.0  0.37613  0.49595  0.33635  1.0000
  C   C529      1.0  0.55754  0.74066  0.25643  1.0000
  H   H644      1.0  0.42276  0.70636  0.29387  1.0000
  C   C530      1.0  0.38495  0.76088  0.26032  1.0000
  H   H645      1.0  0.59107  0.77034  0.26219  1.0000
  H   H646      1.0  0.34387  0.53371  0.31761  1.0000
  Fe  Fe72      1.0  0.64549  0.86328  0.21715  1.0000
  H   H647      1.0  0.41424  0.54518  0.24953  1.0000
  H   H648      1.0  0.42297  0.53588  0.18891  1.0000
  H   H649      1.0  0.60456  0.94226  0.21008  1.0000
  C   C531      1.0  0.39898  0.90917  0.48817  1.0000
  C   C532      1.0  0.41919  0.88743  0.49151  1.0000
  H   H650      1.0  0.44718  0.71045  0.34882  1.0000
  H   H651      1.0  0.46665  0.51140  0.41347  1.0000
  C   C533      1.0  0.52331  0.54486  0.44832  1.0000
  H   H652      1.0  0.33861  0.75408  0.31179  1.0000
  C   C534      1.0  0.48699  0.58576  0.22475  1.0000
  H   H653      1.0  0.62765  0.51127  0.31742  1.0000
  C   C535      1.0  0.54847  0.94440  0.23233  1.0000
  H   H654      1.0  0.48131  0.76150  0.36715  1.0000
  H   H655      1.0  0.52687  0.70657  0.25282  1.0000
  C   C536      1.0  0.39302  0.73325  0.26893  1.0000
  C   C537      1.0  0.43406  0.51566  0.19545  1.0000
  C   C538      1.0  0.40146  0.78377  0.27119  1.0000
  H   H656      1.0  0.49253  0.55569  0.40949  1.0000
  H   H657      1.0  0.62770  0.97177  0.20971  1.0000
  C   C539      1.0  0.49933  0.95927  0.23889  1.0000
  H   H658      1.0  0.52959  0.59472  0.24198  1.0000
  H   H659      1.0  0.39516  0.80532  0.26444  1.0000
  C   C540      1.0  0.64052  0.72719  0.32300  1.0000
  H   H660      1.0  0.32956  0.78896  0.29642  1.0000
  H   H661      1.0  0.38016  0.71553  0.25999  1.0000
  H   H662      1.0  0.48657  0.73972  0.27410  1.0000
  S   S145      1.0  0.64746  0.64322  0.31640  1.0000
  H   H663      1.0  0.53482  0.56481  0.44591  1.0000
  H   H664      1.0  0.56311  0.92695  0.22832  1.0000
  N   N38       1.0  0.46173  0.74690  0.31982  1.0000
  C   C541      1.0  0.48630  0.75367  0.29723  1.0000
  C   C542      1.0  0.46252  0.76590  0.35041  1.0000
  C   C543      1.0  0.46548  0.71728  0.33251  1.0000
  C   C544      1.0  0.43497  0.75127  0.30012  1.0000
  C   C545      1.0  0.42628  0.77911  0.29038  1.0000
  H   H665      1.0  0.45622  0.92685  0.45800  1.0000
  C   C546      1.0  0.46980  0.53685  0.23297  1.0000
  H   H666      1.0  0.34518  0.77073  0.37086  1.0000
  H   H667      1.0  0.61376  0.80122  0.03264  1.0000
  C   C547      1.0  0.49943  0.53973  0.42790  1.0000
  C   C548      1.0  0.46543  0.56538  0.22209  1.0000
  H   H668      1.0  0.62416  0.96945  0.27558  1.0000
  N   N39       1.0  0.46119  0.97173  0.44816  1.0000
  C   C549      1.0  0.43769  0.97836  0.47263  1.0000
  C   C550      1.0  0.64407  0.82846  0.05838  1.0000
  C   C551      1.0  0.49345  0.49250  0.45414  1.0000
  C   C552      1.0  0.58551  0.74819  0.26519  1.0000
  C   C553      1.0  0.42356  0.52397  0.25551  1.0000
  C   C554      1.0  0.64785  0.50220  0.30943  1.0000
  H   H669      1.0  0.43207  0.52503  0.28228  1.0000
  C   C555      1.0  0.37521  0.68042  0.02571  1.0000
  C   C556      1.0  0.44843  0.96962  0.41325  1.0000
  C   C557      1.0  0.32934  0.51219  0.27090  1.0000
  H   H670      1.0  0.33956  0.80558  0.35487  1.0000
  H   H671      1.0  0.34320  0.56111  0.23860  1.0000
  H   H672      1.0  0.45105  0.51211  0.17581  1.0000
  H   H673      1.0  0.46353  0.96062  0.39410  1.0000
  C   C558      1.0  0.51831  0.55086  0.25008  1.0000
  H   H674      1.0  0.53864  0.54550  0.26184  1.0000
  C   C559      1.0  0.50835  0.98712  0.24422  1.0000
  Fe  Fe73      1.0  0.32545  0.64165  0.14579  1.0000
  C   C560      1.0  0.32531  0.56257  0.25743  1.0000
  S   S146      1.0  0.32490  0.60356  0.18114  1.0000
  Fe  Fe74      1.0  0.39131  0.70662  0.82916  1.0000
  S   S147      1.0  0.36482  0.67564  0.79900  1.0000
  S   S148      1.0  0.42051  0.73962  0.80458  1.0000
  Fe  Fe75      1.0  0.37605  0.67855  0.89908  1.0000
  S   S149      1.0  0.38461  0.68724  0.95608  1.0000
  Fe  Fe76      1.0  0.38308  0.64171  0.83344  1.0000
  S   S150      1.0  0.40482  0.60311  0.80913  1.0000
  S   S151      1.0  0.41198  0.67246  0.86114  1.0000
  S   S152      1.0  0.35769  0.71519  0.86903  1.0000
  Fe  Fe77      1.0  0.39395  0.92654  0.64418  1.0000
  S   S153      1.0  0.42239  0.89331  0.66810  1.0000
  S   S154      1.0  0.38501  0.93495  0.58709  1.0000
  Fe  Fe78      1.0  0.37907  0.95356  0.71504  1.0000
  S   S155      1.0  0.40657  0.92239  0.74379  1.0000
  H   H675      1.0  0.53360  0.56706  0.56096  1.0000
  Fe  Fe79      1.0  0.43794  0.92967  0.70089  1.0000
  S   S156      1.0  0.48481  0.93474  0.71218  1.0000
  Fe  Fe80      1.0  0.38849  0.88875  0.70910  1.0000
  S   S157      1.0  0.36713  0.84902  0.73107  1.0000
  S   S158      1.0  0.41181  0.96323  0.67450  1.0000
  S   S159      1.0  0.35859  0.91953  0.68278  1.0000
  C   C561      1.0  0.49659  0.97011  0.71573  1.0000
  C   C562      1.0  0.48080  0.52150  0.72532  1.0000
  C   C563      1.0  0.44775  0.52793  0.82750  1.0000
  H   H676      1.0  0.46545  0.53870  0.72464  1.0000
  C   C564      1.0  0.45694  0.49939  0.82271  1.0000
  C   C565      1.0  0.38801  0.57334  0.78973  1.0000
  C   C566      1.0  0.36039  0.56484  0.79877  1.0000
  C   C567      1.0  0.34885  0.53958  0.78503  1.0000
  C   C568      1.0  0.36462  0.52273  0.76187  1.0000
  C   C569      1.0  0.39191  0.53171  0.75207  1.0000
  C   C570      1.0  0.40362  0.55666  0.76625  1.0000
  H   H677      1.0  0.45650  0.95689  0.56933  1.0000
  H   H678      1.0  0.40420  0.51917  0.73402  1.0000
  H   H679      1.0  0.42504  0.56287  0.75915  1.0000
  C   C571      1.0  0.40559  0.77017  0.78451  1.0000
  C   C572      1.0  0.42369  0.79061  0.76954  1.0000
  C   C573      1.0  0.41237  0.81507  0.75337  1.0000
  C   C574      1.0  0.38280  0.81914  0.75181  1.0000
  C   C575      1.0  0.36477  0.79865  0.76677  1.0000
  C   C576      1.0  0.37607  0.77437  0.78314  1.0000
  H   H680      1.0  0.44653  0.78735  0.77016  1.0000
  H   H681      1.0  0.42638  0.83052  0.74156  1.0000
  H   H682      1.0  0.56990  0.73191  0.90390  1.0000
  H   H683      1.0  0.36189  0.75877  0.79441  1.0000
  C   C577      1.0  0.48467  0.84129  0.79737  1.0000
  H   H684      1.0  0.52466  0.77238  0.85972  1.0000
  C   C578      1.0  0.64546  0.96902  0.76048  1.0000
  C   C579      1.0  0.41872  0.89438  0.55419  1.0000
  C   C580      1.0  0.39846  0.91607  0.55088  1.0000
  C   C581      1.0  0.63957  0.82380  0.99558  1.0000
  H   H685      1.0  0.42637  0.88844  0.57951  1.0000
  H   H686      1.0  0.45852  0.57239  0.82582  1.0000
  H   H687      1.0  0.32961  0.71341  0.98911  1.0000
  Fe  Fe81      1.0  0.62872  0.84968  0.83469  1.0000
  S   S160      1.0  0.59958  0.81928  0.86283  1.0000
  S   S161      1.0  0.60660  0.88876  0.81134  1.0000
  Fe  Fe82      1.0  0.63402  0.81545  0.90305  1.0000
  S   S162      1.0  0.62194  0.80833  0.95958  1.0000
  Fe  Fe83      1.0  0.62194  0.78401  0.83435  1.0000
  S   S163      1.0  0.59492  0.74681  0.81551  1.0000
  H   H688      1.0  0.60299  0.49038  0.77560  1.0000
  H   H689      1.0  0.53478  0.76757  0.97973  1.0000
  Fe  Fe84      1.0  0.62067  0.60229  0.71122  1.0000
  H   H690      1.0  0.50044  0.84233  0.72716  1.0000
  H   H691      1.0  0.44458  0.86333  0.52754  1.0000
  Fe  Fe85      1.0  0.56835  0.56533  0.71084  1.0000
  S   S164      1.0  0.58921  0.53038  0.68074  1.0000
  S   S165      1.0  0.52179  0.56296  0.72473  1.0000
  Fe  Fe86      1.0  0.62640  0.53706  0.71598  1.0000
  C   C582      1.0  0.34587  0.65128  0.98877  1.0000
  Fe  Fe87      1.0  0.60647  0.56553  0.64750  1.0000
  S   S166      1.0  0.60593  0.55380  0.59028  1.0000
  S   S167      1.0  0.60421  0.56976  0.74896  1.0000
  S   S168      1.0  0.58282  0.60027  0.67538  1.0000
  C   C583      1.0  0.62238  0.91937  0.79188  1.0000
  C   C584      1.0  0.60450  0.94115  0.77932  1.0000
  C   C585      1.0  0.61591  0.96574  0.76368  1.0000
  C   C586      1.0  0.48615  0.49524  0.81395  1.0000
  H   H692      1.0  0.34164  0.89320  0.77178  1.0000
  C   C587      1.0  0.49362  0.51751  0.60375  1.0000
  H   H693      1.0  0.58165  0.93923  0.78193  1.0000
  Fe  Fe88      1.0  0.33284  0.68145  0.84159  1.0000
  C   C588      1.0  0.52552  0.85945  0.82855  1.0000
  C   C589      1.0  0.60947  0.71749  0.79251  1.0000
  C   C590      1.0  0.59267  0.69308  0.78742  1.0000
  C   C591      1.0  0.60297  0.66992  0.76790  1.0000
  C   C592      1.0  0.63014  0.67104  0.75301  1.0000
  C   C593      1.0  0.46356  0.97574  0.58303  1.0000
  C   C594      1.0  0.63694  0.71829  0.77838  1.0000
  H   H694      1.0  0.57147  0.69215  0.79841  1.0000
  H   H695      1.0  0.58981  0.65130  0.76418  1.0000
  H   H696      1.0  0.51431  0.87491  0.71056  1.0000
  S   S169      1.0  0.65441  0.50018  0.73442  1.0000
  C   C595      1.0  0.42899  0.88017  0.52466  1.0000
  H   H697      1.0  0.44054  0.68329  0.76596  1.0000
  C   C596      1.0  0.51003  0.52751  0.72603  1.0000
  H   H698      1.0  0.54060  0.95808  0.72302  1.0000
  N   N40       1.0  0.52384  0.86739  0.76440  1.0000
  S   S170      1.0  0.64577  0.56985  0.68058  1.0000
  C   C597      1.0  0.58240  0.60097  0.55722  1.0000
  C   C598      1.0  0.59532  0.57427  0.55392  1.0000
  C   C599      1.0  0.50465  0.51832  0.80984  1.0000
  H   H699      1.0  0.46346  0.52705  0.56234  1.0000
  H   H700      1.0  0.57957  0.61021  0.58252  1.0000
  C   C600      1.0  0.47214  0.73151  0.91885  1.0000
  H   H701      1.0  0.34828  0.57726  0.81716  1.0000
  H   H702      1.0  0.34188  0.80143  0.76552  1.0000
  C   C601      1.0  0.50477  0.86489  0.73394  1.0000
  H   H703      1.0  0.48221  0.56688  0.63460  1.0000
  H   H704      1.0  0.50295  0.58931  0.60657  1.0000
  C   C602      1.0  0.52966  0.50514  0.72808  1.0000
  C   C603      1.0  0.54562  0.79808  0.92367  1.0000
  C   C604      1.0  0.51112  0.85612  0.79661  1.0000
  N   N41       1.0  0.47217  0.64945  0.76715  1.0000
  C   C605      1.0  0.44455  0.66162  0.75547  1.0000
  C   C606      1.0  0.47294  0.61914  0.75632  1.0000
  C   C607      1.0  0.47305  0.65011  0.80537  1.0000
  C   C608      1.0  0.49611  0.66651  0.75322  1.0000
  C   C609      1.0  0.49794  0.69605  0.76058  1.0000
  C   C610      1.0  0.51846  0.65452  0.73296  1.0000
  C   C611      1.0  0.52071  0.71250  0.74852  1.0000
  C   C612      1.0  0.54097  0.67128  0.72079  1.0000
  C   C613      1.0  0.54212  0.70015  0.72859  1.0000
  H   H705      1.0  0.42611  0.64843  0.76407  1.0000
  H   H706      1.0  0.47211  0.61697  0.72777  1.0000
  H   H707      1.0  0.49241  0.60809  0.76593  1.0000
  H   H708      1.0  0.46959  0.67188  0.81577  1.0000
  H   H709      1.0  0.45608  0.63651  0.81690  1.0000
  H   H710      1.0  0.49399  0.64236  0.81515  1.0000
  H   H711      1.0  0.48186  0.70661  0.77602  1.0000
  H   H712      1.0  0.51929  0.63220  0.72638  1.0000
  H   H713      1.0  0.52199  0.73489  0.75499  1.0000
  H   H714      1.0  0.55805  0.66171  0.70580  1.0000
  H   H715      1.0  0.56006  0.71283  0.71983  1.0000
  C   C614      1.0  0.53075  0.89801  0.76857  1.0000
  C   C615      1.0  0.55051  0.85163  0.75670  1.0000
  H   H716      1.0  0.48411  0.87611  0.73835  1.0000
  H   H717      1.0  0.51151  0.91045  0.77621  1.0000
  H   H718      1.0  0.53895  0.90755  0.74422  1.0000
  H   H719      1.0  0.54635  0.82852  0.75331  1.0000
  H   H720      1.0  0.56102  0.85974  0.73287  1.0000
  H   H721      1.0  0.56650  0.85372  0.77770  1.0000
  H   H722      1.0  0.47226  0.83748  0.77443  1.0000
  N   N42       1.0  0.54569  0.76660  0.92561  1.0000
  C   C616      1.0  0.49829  0.74052  0.93244  1.0000
  C   C617      1.0  0.56986  0.75557  0.90475  1.0000
  H   H723      1.0  0.57215  0.76700  0.97124  1.0000
  H   H724      1.0  0.50717  0.96958  0.57002  1.0000
  H   H725      1.0  0.52672  0.51474  0.80252  1.0000
  H   H726      1.0  0.39835  0.49873  0.81450  1.0000
  H   H727      1.0  0.33971  0.64415  0.96335  1.0000
  H   H728      1.0  0.54748  0.56592  0.61926  1.0000
  C   C618      1.0  0.64714  0.69524  0.75864  1.0000
  S   S171      1.0  0.64387  0.64288  0.72730  1.0000
  H   H729      1.0  0.53516  0.52918  0.55736  1.0000
  C   C619      1.0  0.48759  0.83540  0.85932  1.0000
  C   C620      1.0  0.52566  0.97554  0.72075  1.0000
  H   H730      1.0  0.50359  0.54851  0.54479  1.0000
  C   C621      1.0  0.57297  0.61573  0.52763  1.0000
  H   H731      1.0  0.52725  0.80723  0.93811  1.0000
  H   H732      1.0  0.54761  0.90178  0.78811  1.0000
  H   H733      1.0  0.45446  0.60699  0.76665  1.0000
  H   H734      1.0  0.47870  0.75639  0.83712  1.0000
  H   H735      1.0  0.45704  0.72000  0.93492  1.0000
  H   H736      1.0  0.55215  0.50951  0.73061  1.0000
  H   H737      1.0  0.44479  0.73051  0.87433  1.0000
  H   H738      1.0  0.50219  0.73539  0.95916  1.0000
  H   H739      1.0  0.47841  0.82777  0.88325  1.0000
  H   H740      1.0  0.54611  0.86984  0.82991  1.0000
  C   C622      1.0  0.46517  0.73733  0.88466  1.0000
  H   H741      1.0  0.56293  0.63634  0.53043  1.0000
  H   H742      1.0  0.54443  0.80579  0.89667  1.0000
  H   H743      1.0  0.52473  0.85343  0.88350  1.0000
  H   H744      1.0  0.60182  0.98227  0.75437  1.0000
  H   H745      1.0  0.55205  0.73507  0.96533  1.0000
  H   H746      1.0  0.50900  0.56377  0.80937  1.0000
  C   C623      1.0  0.49244  0.98326  0.58359  1.0000
  C   C624      1.0  0.36764  0.67136  0.99236  1.0000
  S   S172      1.0  0.34879  0.64504  0.87412  1.0000
  C   C625      1.0  0.47001  0.51194  0.58179  1.0000
  C   C626      1.0  0.52088  0.54725  0.56426  1.0000
  H   H747      1.0  0.56921  0.76317  0.87769  1.0000
  H   H748      1.0  0.44369  0.66308  0.72685  1.0000
  C   C627      1.0  0.48433  0.75199  0.86376  1.0000
  C   C628      1.0  0.53505  0.54600  0.62341  1.0000
  N   N43       1.0  0.51001  0.54428  0.60008  1.0000
  C   C629      1.0  0.51364  0.84966  0.85942  1.0000
  H   H749      1.0  0.42601  0.53291  0.83472  1.0000
  C   C630      1.0  0.46633  0.55082  0.82272  1.0000
  C   C631      1.0  0.49469  0.54603  0.81373  1.0000
  H   H750      1.0  0.47293  0.57042  0.58984  1.0000
  C   C632      1.0  0.49117  0.56877  0.60803  1.0000
  H   H751      1.0  0.32780  0.53274  0.79294  1.0000
  H   H752      1.0  0.56547  0.80735  0.93471  1.0000
  H   H753      1.0  0.41704  0.49421  0.87297  1.0000
  C   C633      1.0  0.55120  0.75857  0.96208  1.0000
  C   C634      1.0  0.47325  0.83106  0.82834  1.0000
  S   S173      1.0  0.64839  0.81450  0.80307  1.0000
  H   H754      1.0  0.59090  0.76262  0.91510  1.0000
  C   C635      1.0  0.51055  0.76103  0.87701  1.0000
  H   H755      1.0  0.45293  0.81997  0.82828  1.0000
  H   H756      1.0  0.54645  0.97097  0.60838  1.0000
  C   C636      1.0  0.51832  0.75569  0.91185  1.0000
  S   S174      1.0  0.35021  0.48986  0.74762  1.0000
  H   H757      1.0  0.65014  0.73690  0.78210  1.0000
  H   H758      1.0  0.34364  0.74035  0.94130  1.0000
  H   H759      1.0  0.52858  0.54608  0.65106  1.0000
  H   H760      1.0  0.55024  0.52816  0.61881  1.0000
  S   S175      1.0  0.65421  0.77820  0.87638  1.0000
  H   H761      1.0  0.42127  0.98581  0.60076  1.0000
  C   C637      1.0  0.33212  0.64019  0.01823  1.0000
  C   C638      1.0  0.59886  0.56270  0.52074  1.0000
  C   C639      1.0  0.65197  0.92257  0.78854  1.0000
  C   C640      1.0  0.49963  0.49690  0.62969  1.0000
  H   H762      1.0  0.32561  0.92698  0.76597  1.0000
  S   S176      1.0  0.35134  0.98437  0.74586  1.0000
  H   H763      1.0  0.51647  0.49957  0.64842  1.0000
  C   C641      1.0  0.47134  0.49320  0.72552  1.0000
  H   H764      1.0  0.40352  0.98770  0.81237  1.0000
  H   H765      1.0  0.45497  0.98902  0.71069  1.0000
  Fe  Fe89      1.0  0.70937  0.38954  0.21756  1.0000
  S   S177      1.0  0.67586  0.36615  0.24803  1.0000
  S   S178      1.0  0.74269  0.41866  0.24190  1.0000
  H   H766      1.0  0.76042  0.36059  0.25767  1.0000
  Fe  Fe90      1.0  0.68434  0.33064  0.21061  1.0000
  S   S179      1.0  0.68674  0.28460  0.22660  1.0000
  S   S180      1.0  0.71996  0.35294  0.18284  1.0000
  Fe  Fe91      1.0  0.95846  0.37887  0.33370  1.0000
  S   S181      1.0  0.92726  0.40720  0.30606  1.0000
  C   C642      1.0  0.82505  0.13252  0.02379  1.0000
  Fe  Fe92      1.0  0.93016  0.39007  0.40484  1.0000
  S   S182      1.0  0.89699  0.41928  0.38212  1.0000
  S   S183      1.0  0.93863  0.37949  0.46146  1.0000
  Fe  Fe93      1.0  0.89318  0.38732  0.33895  1.0000
  S   S184      1.0  0.85298  0.36700  0.31630  1.0000
  Fe  Fe94      1.0  0.93377  0.43646  0.35101  1.0000
  H   H767      1.0  0.85436  0.28086  0.25223  1.0000
  S   S185      1.0  0.92402  0.35659  0.36391  1.0000
  S   S186      1.0  0.96719  0.40955  0.37652  1.0000
  Fe  Fe95      1.0  0.81438  0.14250  0.14973  1.0000
  S   S187      1.0  0.84875  0.16631  0.17796  1.0000
  S   S188      1.0  0.81484  0.12831  0.09339  1.0000
  Fe  Fe96      1.0  0.77884  0.13259  0.21668  1.0000
  S   S189      1.0  0.81105  0.15524  0.24964  1.0000
  S   S190      1.0  0.74123  0.10708  0.23802  1.0000
  Fe  Fe97      1.0  0.81183  0.18675  0.20596  1.0000
  S   S191      1.0  0.81146  0.23387  0.21603  1.0000
  Fe  Fe98      1.0  0.84520  0.13271  0.21916  1.0000
  S   S192      1.0  0.88104  0.10573  0.24237  1.0000
  S   S193      1.0  0.77757  0.16558  0.17455  1.0000
  S   S194      1.0  0.81290  0.10747  0.18925  1.0000
  C   C643      1.0  0.82923  0.14519  0.05624  1.0000
  C   C644      1.0  0.84541  0.17010  0.05830  1.0000
  H   H768      1.0  0.67674  0.18396  0.40943  1.0000
  C   C645      1.0  0.94181  0.09200  0.17203  1.0000
  H   H769      1.0  0.84884  0.18007  0.08306  1.0000
  C   C646      1.0  0.73497  0.47248  0.12967  1.0000
  C   C647      1.0  0.94061  0.13897  0.14631  1.0000
  H   H770      1.0  0.91096  0.13087  0.08428  1.0000
  C   C648      1.0  0.68060  0.15644  0.28529  1.0000
  C   C649      1.0  0.70552  0.14797  0.26752  1.0000
  C   C650      1.0  0.71037  0.11918  0.26041  1.0000
  C   C651      1.0  0.69006  0.09908  0.27140  1.0000
  H   H771      1.0  0.77193  0.25244  0.14409  1.0000
  C   C652      1.0  0.97016  0.13364  0.27980  1.0000
  H   H772      1.0  0.72091  0.16369  0.25921  1.0000
  H   H773      1.0  0.69360  0.07678  0.26602  1.0000
  S   S195      1.0  0.67749  0.40760  0.17995  1.0000
  H   H774      1.0  0.77718  0.06119  0.26040  1.0000
  C   C653      1.0  0.95200  0.15327  0.26332  1.0000
  C   C654      1.0  0.92455  0.14522  0.25202  1.0000
  C   C655      1.0  0.91497  0.11737  0.25710  1.0000
  C   C656      1.0  0.93308  0.09776  0.27369  1.0000
  C   C657      1.0  0.96050  0.10582  0.28504  1.0000
  H   H775      1.0  0.73647  0.23413  0.11012  1.0000
  H   H776      1.0  0.91098  0.16048  0.23906  1.0000
  H   H777      1.0  0.92592  0.07616  0.27774  1.0000
  H   H778      1.0  0.82733  0.07712  0.26218  1.0000
  C   C658      1.0  0.83897  0.00495  0.26658  1.0000
  C   C659      1.0  0.89772  0.41192  0.49552  1.0000
  H   H779      1.0  0.82942  0.48144  0.29575  1.0000
  H   H780      1.0  0.89114  0.41944  0.47038  1.0000
  C   C660      1.0  0.73607  0.46550  0.16454  1.0000
  S   S196      1.0  0.69590  0.37193  0.08978  1.0000
  H   H781      1.0  0.69743  0.27060  0.06837  1.0000
  Fe  Fe99      1.0  0.68535  0.36872  0.14735  1.0000
  H   H782      1.0  0.95731  0.02434  0.31464  1.0000
  H   H783      1.0  0.73314  0.44363  0.17274  1.0000
  C   C661      1.0  0.80981  0.99668  0.26641  1.0000
  H   H784      1.0  0.67929  0.28458  0.12792  1.0000
  C   C662      1.0  0.72159  0.27063  0.22684  1.0000
  C   C663      1.0  0.74535  0.28860  0.22650  1.0000
  C   C664      1.0  0.77295  0.27714  0.22421  1.0000
  C   C665      1.0  0.77689  0.24767  0.22194  1.0000
  C   C666      1.0  0.75321  0.22965  0.22360  1.0000
  C   C667      1.0  0.72560  0.24112  0.22613  1.0000
  H   H785      1.0  0.74253  0.31133  0.22825  1.0000
  H   H786      1.0  0.79119  0.29121  0.22348  1.0000
  H   H787      1.0  0.75607  0.20687  0.22298  1.0000
  H   H788      1.0  0.70734  0.22708  0.22695  1.0000
  C   C668      1.0  0.77358  0.40423  0.26202  1.0000
  C   C669      1.0  0.79514  0.42254  0.27403  1.0000
  C   C670      1.0  0.81971  0.41164  0.29057  1.0000
  C   C671      1.0  0.82283  0.38227  0.29540  1.0000
  C   C672      1.0  0.80123  0.36407  0.28334  1.0000
  C   C673      1.0  0.77684  0.37492  0.26665  1.0000
  H   H789      1.0  0.79278  0.44521  0.27050  1.0000
  H   H790      1.0  0.83611  0.42585  0.29979  1.0000
  H   H791      1.0  0.80318  0.34140  0.28710  1.0000
  C   C674      1.0  0.92006  0.39230  0.49822  1.0000
  C   C675      1.0  0.70069  0.15157  0.50440  1.0000
  C   C676      1.0  0.85829  0.29342  0.27613  1.0000
  H   H792      1.0  0.70508  0.29497  0.15954  1.0000
  H   H793      1.0  0.97970  0.42877  0.45393  1.0000
  H   H794      1.0  0.95932  0.17478  0.25897  1.0000
  H   H795      1.0  0.66939  0.16320  0.37191  1.0000
  H   H796      1.0  0.93357  0.07079  0.17578  1.0000
  H   H797      1.0  0.76576  0.00995  0.26349  1.0000
  C   C677      1.0  0.80036  0.28713  0.14489  1.0000
  H   H798      1.0  0.87000  0.47198  0.26456  1.0000
  C   C678      1.0  0.96377  0.14695  0.16689  1.0000
  H   H799      1.0  0.96760  0.01974  0.41377  1.0000
  H   H800      1.0  0.96706  0.45623  0.27258  1.0000
  H   H801      1.0  0.74164  0.48093  0.21603  1.0000
  C   C679      1.0  0.75170  0.29053  0.12157  1.0000
  H   H802      1.0  0.69911  0.23925  0.11756  1.0000
  H   H803      1.0  0.87784  0.47952  0.30946  1.0000
  C   C680      1.0  0.97603  0.12757  0.18969  1.0000
  H   H804      1.0  0.93724  0.23017  0.32943  1.0000
  C   C681      1.0  0.98612  0.45127  0.25783  1.0000
  H   H805      1.0  0.93198  0.15517  0.12957  1.0000
  H   H806      1.0  0.69894  0.31656  0.12223  1.0000
  C   C682      1.0  0.77414  0.27454  0.13698  1.0000
  C   C683      1.0  0.81983  0.27017  0.30598  1.0000
  C   C684      1.0  0.67766  0.46319  0.29002  1.0000
  H   H807      1.0  0.69948  0.15422  0.39743  1.0000
  C   C685      1.0  0.78787  0.01677  0.26405  1.0000
  C   C686      1.0  0.85750  0.18194  0.02822  1.0000
  H   H808      1.0  0.95352  0.46482  0.41996  1.0000
  H   H809      1.0  0.82512  0.32558  0.14494  1.0000
  H   H810      1.0  0.72137  0.47380  0.27884  1.0000
  C   C687      1.0  0.70075  0.29426  0.13142  1.0000
  H   H811      1.0  0.90530  0.48111  0.27788  1.0000
  C   C688      1.0  0.71828  0.28020  0.07563  1.0000
  C   C689      1.0  0.69300  0.15396  0.46963  1.0000
  C   C690      1.0  0.96502  0.10019  0.19232  1.0000
  C   C691      1.0  0.82253  0.05456  0.26324  1.0000
  H   H812      1.0  0.68262  0.10510  0.40587  1.0000
  H   H813      1.0  0.97406  0.08553  0.21099  1.0000
  N   N44       1.0  0.90460  0.10167  0.12674  1.0000
  C   C692      1.0  0.91297  0.07662  0.10580  1.0000
  C   C693      1.0  0.88048  0.09358  0.14948  1.0000
  C   C694      1.0  0.89404  0.12384  0.10254  1.0000
  C   C695      1.0  0.92904  0.11103  0.14810  1.0000
  C   C696      1.0  0.78359  0.33199  0.12262  1.0000
  C   C697      1.0  0.84469  0.03467  0.26538  1.0000
  H   H814      1.0  0.87617  0.30649  0.33747  1.0000
  H   H815      1.0  0.72351  0.24524  0.15199  1.0000
  C   C698      1.0  0.67703  0.16190  0.39909  1.0000
  H   H816      1.0  0.91871  0.05796  0.12197  1.0000
  H   H817      1.0  0.89523  0.06957  0.08869  1.0000
  H   H818      1.0  0.93168  0.08163  0.08915  1.0000
  H   H819      1.0  0.88533  0.07480  0.16586  1.0000
  H   H820      1.0  0.68179  0.44139  0.28273  1.0000
  H   H821      1.0  0.87515  0.11121  0.16740  1.0000
  H   H822      1.0  0.87611  0.11583  0.08640  1.0000
  H   H823      1.0  0.88547  0.14266  0.11655  1.0000
  H   H824      1.0  0.85477  0.28200  0.36239  1.0000
  H   H825      1.0  0.97362  0.40788  0.24855  1.0000
  H   H826      1.0  0.84557  0.31338  0.27438  1.0000
  C   C699      1.0  0.70083  0.48180  0.28752  1.0000
  C   C700      1.0  0.72065  0.24786  0.12360  1.0000
  N   N45       1.0  0.72346  0.27818  0.11327  1.0000
  C   C701      1.0  0.97238  0.47100  0.43438  1.0000
  H   H827      1.0  0.81362  0.26028  0.28116  1.0000
  H   H828      1.0  0.73089  0.45586  0.11091  1.0000
  C   C702      1.0  0.79423  0.04564  0.26234  1.0000
  S   S197      1.0  0.93920  0.48353  0.34229  1.0000
  N   N46       1.0  0.85084  0.27681  0.30731  1.0000
  H   H829      1.0  0.91824  0.18343  0.31180  1.0000
  H   H830      1.0  0.70708  0.16626  0.45342  1.0000
  C   C703      1.0  0.75742  0.31956  0.11425  1.0000
  C   C704      1.0  0.86904  0.25101  0.30836  1.0000
  C   C705      1.0  0.89794  0.25266  0.31925  1.0000
  C   C706      1.0  0.85930  0.22402  0.29674  1.0000
  C   C707      1.0  0.91533  0.22848  0.32064  1.0000
  C   C708      1.0  0.87693  0.19999  0.29810  1.0000
  C   C709      1.0  0.90473  0.20215  0.31048  1.0000
  H   H831      1.0  0.86606  0.04328  0.26605  1.0000
  C   C710      1.0  0.66516  0.10753  0.28913  1.0000
  H   H832      1.0  0.83918  0.31196  0.34073  1.0000
  C   C711      1.0  0.88230  0.48593  0.28230  1.0000
  H   H833      1.0  0.97204  0.16844  0.16562  1.0000
  H   H834      1.0  0.74147  0.33308  0.10258  1.0000
  H   H835      1.0  0.88117  0.29979  0.27614  1.0000
  H   H836      1.0  0.97423  0.09047  0.29759  1.0000
  H   H837      1.0  0.81352  0.25573  0.32739  1.0000
  H   H838      1.0  0.90749  0.27268  0.32655  1.0000
  H   H839      1.0  0.83823  0.22096  0.28612  1.0000
  H   H840      1.0  0.86080  0.08852  0.13454  1.0000
  H   H841      1.0  0.86908  0.17955  0.28926  1.0000
  H   H842      1.0  0.71742  0.30269  0.06658  1.0000
  C   C712      1.0  0.97481  0.00934  0.31615  1.0000
  C   C713      1.0  0.85553  0.29485  0.33831  1.0000
  H   H843      1.0  0.80642  0.28970  0.30773  1.0000
  H   H844      1.0  0.67707  0.17877  0.29048  1.0000
  C   C714      1.0  0.67947  0.35443  0.05431  1.0000
  C   C715      1.0  0.66026  0.13629  0.29607  1.0000
  H   H845      1.0  0.87015  0.20111  0.03008  1.0000
  H   H846      1.0  0.78705  0.35441  0.11757  1.0000
  C   C716      1.0  0.80500  0.31582  0.13801  1.0000
  H   H847      1.0  0.81691  0.27463  0.15736  1.0000
  H   H848      1.0  0.73551  0.26934  0.06092  1.0000
  H   H849      1.0  0.89659  0.00948  0.28652  1.0000
  C   C717      1.0  0.66788  0.14073  0.45677  1.0000
  C   C718      1.0  0.98930  0.01653  0.40278  1.0000
  H   H850      1.0  0.98894  0.99774  0.38545  1.0000
  C   C719      1.0  0.74089  0.48663  0.18893  1.0000
  H   H851      1.0  0.89332  0.00702  0.24004  1.0000
  C   C720      1.0  0.68876  0.36083  0.02067  1.0000
  H   H852      1.0  0.81269  0.11316  0.02195  1.0000
  C   C721      1.0  0.65924  0.12265  0.51536  1.0000
  C   C722      1.0  0.98970  0.42409  0.24430  1.0000
  C   C723      1.0  0.89099  0.99514  0.26470  1.0000
  N   N47       1.0  0.65900  0.14256  0.42019  1.0000
  H   H853      1.0  0.71987  0.16186  0.51375  1.0000
  C   C724      1.0  0.66057  0.11388  0.40445  1.0000
  C   C725      1.0  0.98718  0.45064  0.45341  1.0000
  C   C726      1.0  0.65799  0.33411  0.05872  1.0000
  Fe  Fe100     1.0  0.87661  0.20015  0.82979  1.0000
  S   S198      1.0  0.84986  0.16785  0.80187  1.0000
  S   S199      1.0  0.90385  0.23126  0.79894  1.0000
  Fe  Fe101     1.0  0.86081  0.17565  0.90175  1.0000
  S   S200      1.0  0.83244  0.14215  0.87889  1.0000
  S   S201      1.0  0.86843  0.18558  0.95870  1.0000
  Fe  Fe102     1.0  0.86726  0.13577  0.83937  1.0000
  S   S202      1.0  0.88792  0.09301  0.82712  1.0000
  Fe  Fe103     1.0  0.81760  0.17710  0.84331  1.0000
  S   S203      1.0  0.77080  0.18330  0.83124  1.0000
  S   S204      1.0  0.89676  0.16740  0.86449  1.0000
  S   S205      1.0  0.84331  0.21124  0.86910  1.0000
  Fe  Fe104     1.0  0.88471  0.42066  0.65188  1.0000
  S   S206      1.0  0.91265  0.38891  0.67942  1.0000
  S   S207      1.0  0.87391  0.42582  0.59501  1.0000
  Fe  Fe105     1.0  0.87044  0.45318  0.71915  1.0000
  S   S208      1.0  0.89800  0.42460  0.75133  1.0000
  C   C727      1.0  0.79323  0.07796  0.81944  1.0000
  Fe  Fe106     1.0  0.92890  0.42762  0.70733  1.0000
  H   H854      1.0  0.69641  0.08432  0.81526  1.0000
  Fe  Fe107     1.0  0.87914  0.38837  0.72133  1.0000
  S   S209      1.0  0.85748  0.35358  0.75302  1.0000
  S   S210      1.0  0.90308  0.45935  0.67745  1.0000
  S   S211      1.0  0.84956  0.41691  0.69115  1.0000
  Fe  Fe108     1.0  0.68714  0.31618  0.84162  1.0000
  S   S212      1.0  0.73334  0.31251  0.82642  1.0000
  H   H855      1.0  0.73729  0.23434  0.99973  1.0000
  S   S213      1.0  0.97605  0.43301  0.71488  1.0000
  H   H856      1.0  0.81008  0.08786  0.83439  1.0000
  C   C728      1.0  0.74824  0.08172  0.78715  1.0000
  H   H857      1.0  0.78232  0.21414  0.89728  1.0000
  C   C729      1.0  0.72385  0.12857  0.78409  1.0000
  C   C730      1.0  0.76096  0.21921  0.82544  1.0000
  C   C731      1.0  0.78142  0.24087  0.82549  1.0000
  C   C732      1.0  0.77294  0.26953  0.82488  1.0000
  C   C733      1.0  0.74393  0.27664  0.82379  1.0000
  C   C734      1.0  0.72359  0.25501  0.82146  1.0000
  C   C735      1.0  0.73208  0.22638  0.82226  1.0000
  H   H858      1.0  0.80379  0.23564  0.82595  1.0000
  H   H859      1.0  0.78889  0.28611  0.82604  1.0000
  H   H860      1.0  0.70128  0.26027  0.81885  1.0000
  H   H861      1.0  0.71620  0.20982  0.82058  1.0000
  C   C736      1.0  0.87795  0.06690  0.79641  1.0000
  C   C737      1.0  0.85491  0.07073  0.77400  1.0000
  C   C738      1.0  0.84690  0.04873  0.75131  1.0000
  C   C739      1.0  0.86214  0.02293  0.75033  1.0000
  C   C740      1.0  0.88583  0.01953  0.77186  1.0000
  C   C741      1.0  0.89359  0.04138  0.79485  1.0000
  H   H862      1.0  0.84295  0.09041  0.77456  1.0000
  H   H863      1.0  0.82861  0.05161  0.73468  1.0000
  H   H864      1.0  0.72350  0.13098  0.81261  1.0000
  H   H865      1.0  0.91160  0.03827  0.81188  1.0000
  C   C742      1.0  0.89100  0.26541  0.78664  1.0000
  C   C743      1.0  0.90715  0.28232  0.76390  1.0000
  C   C744      1.0  0.89745  0.30949  0.75357  1.0000
  C   C745      1.0  0.87155  0.32010  0.76617  1.0000
  C   C746      1.0  0.85569  0.30337  0.78940  1.0000
  C   C747      1.0  0.86520  0.27613  0.79935  1.0000
  H   H866      1.0  0.92716  0.27425  0.75397  1.0000
  H   H867      1.0  0.90990  0.32206  0.73570  1.0000
  H   H868      1.0  0.83604  0.31151  0.80010  1.0000
  H   H869      1.0  0.85271  0.26353  0.81713  1.0000
  C   C748      1.0  0.88366  0.42164  0.52543  1.0000
  H   H870      1.0  0.69623  0.30099  0.94403  1.0000
  H   H871      1.0  0.83360  0.13444  0.96893  1.0000
  C   C749      1.0  0.69658  0.08546  0.78660  1.0000
  C   C750      1.0  0.91421  0.39243  0.56110  1.0000
  C   C751      1.0  0.89179  0.41198  0.55833  1.0000
  C   C752      1.0  0.92827  0.38271  0.53116  1.0000
  H   H872      1.0  0.92060  0.38469  0.58620  1.0000
  C   C753      1.0  0.77029  0.09422  0.80732  1.0000
  N   N48       1.0  0.96277  0.47011  0.59021  1.0000
  H   H873      1.0  0.68864  0.00325  0.67140  1.0000
  H   H874      1.0  0.82326  0.39539  0.84986  1.0000
  S   S214      1.0  0.85013  0.99523  0.72291  1.0000
  H   H875      1.0  0.81560  0.44935  0.84783  1.0000
  H   H876      1.0  0.98298  0.43424  0.61471  1.0000
  C   C754      1.0  0.98686  0.46862  0.71907  1.0000
  H   H877      1.0  0.80217  0.33358  0.76222  1.0000
  H   H878      1.0  0.67509  0.22138  0.92211  1.0000
  H   H879      1.0  0.96319  0.45644  0.64350  1.0000
  H   H880      1.0  0.80975  0.25727  0.96960  1.0000
  C   C755      1.0  0.97668  0.01443  0.72347  1.0000
  H   H881      1.0  0.79380  0.37328  0.67822  1.0000
  C   C756      1.0  0.73110  0.38833  0.74072  1.0000
  H   H882      1.0  0.78500  0.22146  0.00728  1.0000
  N   N49       1.0  0.95836  0.13292  0.78138  1.0000
  H   H883      1.0  0.67761  0.09807  0.77838  1.0000
  C   C757      1.0  0.71481  0.26736  0.97434  1.0000
  C   C758      1.0  0.78763  0.31706  0.75186  1.0000
  H   H884      1.0  0.76343  0.19381  0.98741  1.0000
  N   N50       1.0  0.77757  0.32481  0.71687  1.0000
  H   H885      1.0  0.73498  0.04128  0.76455  1.0000
  S   S215      1.0  0.67062  0.35161  0.87533  1.0000
  H   H886      1.0  0.70493  0.14026  0.77392  1.0000
  C   C759      1.0  0.75083  0.05223  0.77981  1.0000
  C   C760      1.0  0.74282  0.36098  0.73989  1.0000
  H   H887      1.0  0.80115  0.43703  0.75532  1.0000
  N   N51       1.0  0.80818  0.41980  0.80635  1.0000
  C   C761      1.0  0.81221  0.41914  0.76856  1.0000
  H   H888      1.0  0.74297  0.13987  0.77388  1.0000
  C   C762      1.0  0.82556  0.39637  0.82134  1.0000
  C   C763      1.0  0.77732  0.41758  0.81421  1.0000
  H   H889      1.0  0.70661  0.19557  0.88379  1.0000
  C   C764      1.0  0.76507  0.39323  0.83017  1.0000
  H   H890      1.0  0.76589  0.45857  0.79139  1.0000
  S   S216      1.0  0.84122  0.48648  0.74308  1.0000
  C   C765      1.0  0.68369  0.19298  0.88134  1.0000
  C   C766      1.0  0.73669  0.24710  0.97660  1.0000
  C   C767      1.0  0.83692  0.14450  0.99367  1.0000
  H   H891      1.0  0.79870  0.99015  0.58653  1.0000
  H   H892      1.0  0.69298  0.06356  0.77665  1.0000
  H   H893      1.0  0.69943  0.26984  0.99504  1.0000
  H   H894      1.0  0.82766  0.22671  0.95256  1.0000
  H   H895      1.0  0.84337  0.44857  0.81559  1.0000
  H   H896      1.0  0.83516  0.42103  0.76179  1.0000
  H   H897      1.0  0.77583  0.01389  0.78551  1.0000
  H   H898      1.0  0.98025  0.12480  0.82908  1.0000
  H   H899      1.0  0.77746  0.37474  0.83721  1.0000
  H   H900      1.0  0.81984  0.37536  0.81011  1.0000
  H   H901      1.0  0.81328  0.03679  0.82056  1.0000
  H   H902      1.0  0.68346  0.35317  0.96601  1.0000
  H   H903      1.0  0.79575  0.32544  0.66562  1.0000
  H   H904      1.0  0.94067  0.44406  0.55299  1.0000
  H   H905      1.0  0.76340  0.28227  0.70506  1.0000
  C   C768      1.0  0.95904  0.10272  0.77001  1.0000
  H   H906      1.0  0.95820  0.10089  0.74143  1.0000
  H   H907      1.0  0.86632  0.43674  0.52302  1.0000
  H   H908      1.0  0.67979  0.19055  0.75944  1.0000
  H   H909      1.0  0.79926  0.29637  0.75219  1.0000
  H   H910      1.0  0.94434  0.48610  0.72074  1.0000
  H   H911      1.0  0.69543  0.41366  0.83525  1.0000
  C   C769      1.0  0.70917  0.99522  0.66275  1.0000
  H   H912      1.0  0.76986  0.31484  0.77048  1.0000
  C   C770      1.0  0.77629  0.37630  0.69598  1.0000
  H   H913      1.0  0.81094  0.46594  0.80635  1.0000
  H   H914      1.0  0.74611  0.31009  0.68075  1.0000
  H   H915      1.0  0.81086  0.29922  0.69362  1.0000
  H   H916      1.0  0.77055  0.11653  0.81397  1.0000
  H   H917      1.0  0.79842  0.18796  0.92412  1.0000
  H   H918      1.0  0.73378  0.34524  0.75711  1.0000
  C   C771      1.0  0.76572  0.35404  0.71736  1.0000
  H   H919      1.0  0.96085  0.03120  0.72431  1.0000
  C   C772      1.0  0.96340  0.44753  0.61692  1.0000
  C   C773      1.0  0.75503  0.30444  0.70646  1.0000
  H   H920      1.0  0.68977  0.13421  0.55413  1.0000
  H   H921      1.0  0.91673  0.47407  0.59046  1.0000
  C   C774      1.0  0.77400  0.03629  0.79184  1.0000
  H   H922      1.0  0.91233  0.13179  0.77808  1.0000
  N   N52       1.0  0.78166  0.22417  0.95179  1.0000
  H   H923      1.0  0.72709  0.37325  0.84990  1.0000
  H   H924      1.0  0.97852  0.09148  0.77933  1.0000
  C   C775      1.0  0.78262  0.20749  0.98433  1.0000
  C   C776      1.0  0.75717  0.24401  0.94969  1.0000
  C   C777      1.0  0.95942  0.13308  0.81959  1.0000
  C   C778      1.0  0.75384  0.26179  0.92037  1.0000
  C   C779      1.0  0.65956  0.44641  0.76205  1.0000
  C   C780      1.0  0.73211  0.28205  0.91860  1.0000
  H   H925      1.0  0.73697  0.30391  0.72512  1.0000
  C   C781      1.0  0.67637  0.34760  0.99169  1.0000
  H   H926      1.0  0.76835  0.26049  0.89873  1.0000
  H   H927      1.0  0.94052  0.09046  0.78032  1.0000
  C   C782      1.0  0.71278  0.28496  0.94556  1.0000
  H   H928      1.0  0.89783  0.99986  0.77132  1.0000
  H   H929      1.0  0.81135  0.25111  0.92388  1.0000
  H   H930      1.0  0.70598  0.11024  0.72442  1.0000
  H   H931      1.0  0.73036  0.29577  0.89625  1.0000
  C   C783      1.0  0.81986  0.44700  0.81975  1.0000
  H   H932      1.0  0.84874  0.39905  0.81555  1.0000
  H   H933      1.0  0.95645  0.15476  0.83042  1.0000
  C   C784      1.0  0.80863  0.24057  0.94934  1.0000
  C   C785      1.0  0.71801  0.41467  0.82914  1.0000
  C   C786      1.0  0.97686  0.00497  0.55698  1.0000
  H   H934      1.0  0.71351  0.39299  0.75799  1.0000
  H   H935      1.0  0.94455  0.43316  0.61487  1.0000
  C   C787      1.0  0.72357  0.09712  0.73551  1.0000
  H   H936      1.0  0.82006  0.33553  0.69975  1.0000
  C   C788      1.0  0.76447  0.40364  0.69718  1.0000
  H   H937      1.0  0.77291  0.42031  0.68068  1.0000
  C   C789      1.0  0.74189  0.40963  0.71944  1.0000
  C   C790      1.0  0.80203  0.32124  0.69282  1.0000
  N   N53       1.0  0.72360  0.09813  0.77374  1.0000
  C   C791      1.0  0.67289  0.17535  0.85568  1.0000
  H   H938      1.0  0.67969  0.44566  0.74842  1.0000
  H   H939      1.0  0.73271  0.43082  0.72015  1.0000
  H   H940      1.0  0.96759  0.19018  0.79042  1.0000
  H   H941      1.0  0.76019  0.19145  0.92288  1.0000
  H   H942      1.0  0.70540  0.37647  0.01695  1.0000
  C   C792      1.0  0.79508  0.04910  0.81172  1.0000
  H   H943      1.0  0.94546  0.36743  0.53347  1.0000
  C   C793      1.0  0.75832  0.43988  0.80485  1.0000
  H   H944      1.0  0.80432  0.39885  0.75739  1.0000
  H   H945      1.0  0.72038  0.07522  0.72548  1.0000
  H   H946      1.0  0.74406  0.10527  0.72485  1.0000
  C   C794      1.0  0.72916  0.43845  0.81248  1.0000
  H   H947      1.0  0.80126  0.19282  0.98481  1.0000
  H   H948      1.0  0.94231  0.11961  0.83102  1.0000
  S   S217      1.0  0.66602  0.28145  0.87200  1.0000
  H   H949      1.0  0.92659  0.16664  0.78120  1.0000
  C   C795      1.0  0.98827  0.48846  0.59402  1.0000
  H   H950      1.0  0.81375  0.99799  0.64838  1.0000
  C   C796      1.0  0.68382  0.13600  0.52720  1.0000
  H   H951      1.0  0.66346  0.40355  0.78218  1.0000
  H   H952      1.0  0.96120  0.47193  0.53456  1.0000
  C   C797      1.0  0.85339  0.16922  0.99577  1.0000
  C   C798      1.0  0.78053  0.20361  0.92283  1.0000
  C   C799      1.0  0.73588  0.39201  0.83757  1.0000
  C   C800      1.0  0.66517  0.20779  0.90322  1.0000
  C   C801      1.0  0.98227  0.15019  0.76771  1.0000
  H   H953      1.0  0.98319  0.02318  0.54186  1.0000
  H   H954      1.0  0.92993  0.14731  0.74146  1.0000
  C   C802      1.0  0.98385  0.17973  0.77514  1.0000
  C   C803      1.0  0.96090  0.45611  0.55592  1.0000
  C   C804      1.0  0.93071  0.14524  0.77002  1.0000
  H   H955      1.0  0.68728  0.16444  0.83829  1.0000
  S   S218      1.0  0.66071  0.99997  0.74131  1.0000
  C   C805      1.0  0.71754  0.99858  0.62851  1.0000
  H   H956      1.0  0.70335  0.00938  0.61064  1.0000
  H   H957      1.0  0.71506  0.45586  0.80539  1.0000
  C   C806      1.0  0.93629  0.48713  0.59479  1.0000
  H   H958      1.0  0.98555  0.03588  0.63958  1.0000
  H   H959      1.0  0.74891  0.99126  0.59032  1.0000
  C   C807      1.0  0.99020  0.99788  0.58880  1.0000
  H   H960      1.0  0.97829  0.44029  0.55198  1.0000
  H   H961      1.0  0.66197  0.23317  0.79055  1.0000
  H   H962      1.0  0.94462  0.99417  0.51948  1.0000
  Fe  Fe109     1.0  0.71085  0.87037  0.21596  1.0000
  S   S219      1.0  0.68118  0.84350  0.24785  1.0000
  S   S220      1.0  0.74787  0.89636  0.23761  1.0000
  H   H963      1.0  0.76584  0.83804  0.25387  1.0000
  Fe  Fe110     1.0  0.68391  0.81279  0.20366  1.0000
  S   S221      1.0  0.68906  0.76547  0.20997  1.0000
  S   S222      1.0  0.71600  0.83817  0.17403  1.0000
  Fe  Fe111     1.0  0.96110  0.86626  0.33703  1.0000
  S   S223      1.0  0.92961  0.88947  0.30352  1.0000
  C   C808      1.0  0.98199  0.49912  0.43315  1.0000
  Fe  Fe112     1.0  0.92893  0.88140  0.40457  1.0000
  S   S224      1.0  0.89497  0.90623  0.37636  1.0000
  S   S225      1.0  0.93783  0.87280  0.46159  1.0000
  Fe  Fe113     1.0  0.89516  0.87086  0.33710  1.0000
  S   S226      1.0  0.85713  0.84640  0.31554  1.0000
  Fe  Fe114     1.0  0.93170  0.92297  0.34473  1.0000
  H   H964      1.0  0.94647  0.80931  0.30240  1.0000
  S   S227      1.0  0.92654  0.84468  0.36763  1.0000
  S   S228      1.0  0.96558  0.90118  0.37594  1.0000
  Fe  Fe115     1.0  0.82726  0.62857  0.14769  1.0000
  S   S229      1.0  0.85947  0.65680  0.17376  1.0000
  S   S230      1.0  0.82328  0.61409  0.09170  1.0000
  Fe  Fe116     1.0  0.79254  0.61937  0.21483  1.0000
  S   S231      1.0  0.82186  0.64690  0.24624  1.0000
  S   S232      1.0  0.75407  0.59340  0.23278  1.0000
  Fe  Fe117     1.0  0.82089  0.67562  0.19988  1.0000
  S   S233      1.0  0.81696  0.72294  0.20501  1.0000
  Fe  Fe118     1.0  0.85849  0.62594  0.21830  1.0000
  S   S234      1.0  0.89569  0.60533  0.24739  1.0000
  S   S235      1.0  0.78886  0.64984  0.17058  1.0000
  S   S236      1.0  0.82920  0.59588  0.19022  1.0000
  C   C809      1.0  0.83355  0.63462  0.05511  1.0000
  C   C810      1.0  0.79132  0.73040  0.08013  1.0000
  C   C811      1.0  0.77656  0.56289  0.14653  1.0000
  C   C812      1.0  0.84509  0.66192  0.05834  1.0000
  C   C813      1.0  0.66592  0.84843  0.05428  1.0000
  C   C814      1.0  0.98047  0.52394  0.33398  1.0000
  H   H965      1.0  0.84812  0.67098  0.08369  1.0000
  C   C815      1.0  0.67660  0.62891  0.29259  1.0000
  C   C816      1.0  0.70021  0.64643  0.28538  1.0000
  C   C817      1.0  0.72390  0.63600  0.26679  1.0000
  C   C818      1.0  0.72432  0.60781  0.25533  1.0000
  C   C819      1.0  0.70059  0.59035  0.26220  1.0000
  C   C820      1.0  0.67679  0.60087  0.28058  1.0000
  H   H966      1.0  0.70033  0.66815  0.29451  1.0000
  H   H967      1.0  0.74194  0.64972  0.26168  1.0000
  H   H968      1.0  0.70055  0.56861  0.25317  1.0000
  H   H969      1.0  0.79610  0.68993  0.10546  1.0000
  H   H970      1.0  0.67772  0.72272  0.26924  1.0000
  C   C821      1.0  0.96109  0.66066  0.26783  1.0000
  C   C822      1.0  0.93503  0.64940  0.25568  1.0000
  C   C823      1.0  0.92795  0.62100  0.26232  1.0000
  C   C824      1.0  0.94717  0.60411  0.28131  1.0000
  C   C825      1.0  0.97308  0.61541  0.29363  1.0000
  H   H971      1.0  0.96658  0.68244  0.26196  1.0000
  H   H972      1.0  0.92062  0.66257  0.24082  1.0000
  H   H973      1.0  0.94204  0.58212  0.28652  1.0000
  C   C826      1.0  0.89211  0.89980  0.49394  1.0000
  C   C827      1.0  0.69764  0.51039  0.29610  1.0000
  C   C828      1.0  0.83610  0.55253  0.27823  1.0000
  H   H974      1.0  0.89541  0.80366  0.29421  1.0000
  H   H975      1.0  0.88330  0.90316  0.46848  1.0000
  H   H976      1.0  0.89240  0.55653  0.29577  1.0000
  H   H977      1.0  0.83173  0.72310  0.27776  1.0000
  C   C829      1.0  0.84547  0.52401  0.28237  1.0000
  H   H978      1.0  0.80102  0.58217  0.27985  1.0000
  H   H979      1.0  0.96305  0.53889  0.33120  1.0000
  H   H980      1.0  0.72870  0.55176  0.08277  1.0000
  C   C830      1.0  0.82441  0.50361  0.29175  1.0000
  H   H981      1.0  0.73796  0.50445  0.09152  1.0000
  C   C831      1.0  0.72471  0.75387  0.21099  1.0000
  C   C832      1.0  0.74721  0.77334  0.20986  1.0000
  C   C833      1.0  0.77551  0.76371  0.20818  1.0000
  C   C834      1.0  0.78145  0.73454  0.20841  1.0000
  C   C835      1.0  0.75902  0.71505  0.21119  1.0000
  C   C836      1.0  0.73067  0.72469  0.21212  1.0000
  H   H982      1.0  0.74298  0.79583  0.21056  1.0000
  H   H983      1.0  0.79276  0.77892  0.20661  1.0000
  H   H984      1.0  0.76344  0.69256  0.21261  1.0000
  H   H985      1.0  0.71340  0.70949  0.21355  1.0000
  C   C837      1.0  0.77806  0.88190  0.25915  1.0000
  C   C838      1.0  0.79896  0.90050  0.27208  1.0000
  C   C839      1.0  0.82336  0.89001  0.28919  1.0000
  C   C840      1.0  0.82700  0.86073  0.29377  1.0000
  C   C841      1.0  0.80609  0.84210  0.28090  1.0000
  C   C842      1.0  0.78177  0.85259  0.26361  1.0000
  H   H986      1.0  0.79601  0.92312  0.26901  1.0000
  H   H987      1.0  0.83920  0.90449  0.29915  1.0000
  H   H988      1.0  0.80858  0.81943  0.28442  1.0000
  C   C843      1.0  0.79582  0.51150  0.29631  1.0000
  H   H989      1.0  0.95754  0.71888  0.30543  1.0000
  H   H990      1.0  0.87583  0.94589  0.24067  1.0000
  H   H991      1.0  0.80367  0.97459  0.26815  1.0000
  C   C844      1.0  0.89424  0.53323  0.30006  1.0000
  H   H992      1.0  0.72857  0.59349  0.14051  1.0000
  H   H993      1.0  0.83830  0.94879  0.24443  1.0000
  H   H994      1.0  0.77718  0.56283  0.17512  1.0000
  N   N54       1.0  0.73136  0.78453  0.09106  1.0000
  C   C845      1.0  0.74865  0.80934  0.10196  1.0000
  C   C846      1.0  0.72297  0.78844  0.05447  1.0000
  C   C847      1.0  0.70474  0.78455  0.11195  1.0000
  C   C848      1.0  0.74848  0.75819  0.09493  1.0000
  C   C849      1.0  0.77446  0.75483  0.07643  1.0000
  C   C850      1.0  0.74049  0.73561  0.11738  1.0000
  S   S237      1.0  0.68350  0.86442  0.08994  1.0000
  C   C851      1.0  0.75744  0.71127  0.12073  1.0000
  C   C852      1.0  0.72567  0.57063  0.14722  1.0000
  H   H995      1.0  0.88884  0.52885  0.32752  1.0000
  H   H996      1.0  0.75645  0.80660  0.12891  1.0000
  C   C853      1.0  0.91837  0.88596  0.49760  1.0000
  H   H997      1.0  0.70965  0.80790  0.05101  1.0000
  H   H998      1.0  0.69238  0.80464  0.10860  1.0000
  H   H999      1.0  0.79459  0.54952  0.13717  1.0000
  C   C854      1.0  0.74477  0.51486  0.17856  1.0000
  H   H1000     1.0  0.86973  0.51211  0.22179  1.0000
  H   H1001     1.0  0.91721  0.52793  0.29648  1.0000
  N   N55       1.0  0.86181  0.98317  0.26861  1.0000
  H   H1002     1.0  0.72157  0.73639  0.13331  1.0000
  C   C855      1.0  0.74431  0.52271  0.14314  1.0000
  H   H1003     1.0  0.82597  0.76294  0.31719  1.0000
  Fe  Fe119     1.0  0.67779  0.85734  0.14797  1.0000
  C   C856      1.0  0.97478  0.49506  0.33939  1.0000
  H   H1004     1.0  0.90628  0.51753  0.23470  1.0000
  H   H1005     1.0  0.97627  0.55771  0.44491  1.0000
  H   H1006     1.0  0.71026  0.77006  0.04510  1.0000
  C   C857      1.0  0.90820  0.78460  0.29593  1.0000
  H   H1007     1.0  0.87711  0.95196  0.30505  1.0000
  H   H1008     1.0  0.97593  0.73507  0.42648  1.0000
  C   C858      1.0  0.80759  0.56019  0.28314  1.0000
  N   N56       1.0  0.87581  0.51653  0.27649  1.0000
  H   H1009     1.0  0.94366  0.80932  0.43920  1.0000
  H   H1010     1.0  0.75387  0.57993  0.08825  1.0000
  C   C859      1.0  0.84959  0.76457  0.31980  1.0000
  H   H1011     1.0  0.86634  0.76537  0.23459  1.0000
  H   H1012     1.0  0.76534  0.54596  0.29537  1.0000
  H   H1013     1.0  0.90702  0.71176  0.29523  1.0000
  H   H1014     1.0  0.66879  0.54278  0.31389  1.0000
  H   H1015     1.0  0.86267  0.69820  0.03157  1.0000
  C   C860      1.0  0.93748  0.78809  0.30105  1.0000
  C   C861      1.0  0.85332  0.67731  0.02869  1.0000
  H   H1016     1.0  0.76759  0.81279  0.08529  1.0000
  C   C862      1.0  0.78745  0.53973  0.29195  1.0000
  C   C863      1.0  0.89569  0.75721  0.29325  1.0000
  N   N57       1.0  0.74887  0.55272  0.13283  1.0000
  H   H1017     1.0  0.97785  0.76749  0.30846  1.0000
  H   H1018     1.0  0.88196  0.54657  0.23476  1.0000
  H   H1019     1.0  0.90763  0.97818  0.26480  1.0000
  H   H1020     1.0  0.70443  0.56369  0.13761  1.0000
  H   H1021     1.0  0.69023  0.76690  0.10454  1.0000
  C   C864      1.0  0.94368  0.73724  0.30255  1.0000
  H   H1022     1.0  0.75118  0.69461  0.13853  1.0000
  S   S238      1.0  0.93425  0.96923  0.33041  1.0000
  H   H1023     1.0  0.78223  0.77142  0.05960  1.0000
  H   H1024     1.0  0.85428  0.78732  0.32508  1.0000
  C   C865      1.0  0.78279  0.70865  0.10222  1.0000
  H   H1025     1.0  0.85967  0.71043  0.30471  1.0000
  C   C866      1.0  0.95518  0.76450  0.30444  1.0000
  H   H1026     1.0  0.85617  0.75225  0.34297  1.0000
  C   C867      1.0  0.74947  0.55726  0.09491  1.0000
  H   H1027     1.0  0.96972  0.51348  0.41721  1.0000
  H   H1028     1.0  0.83155  0.76854  0.25339  1.0000
  H   H1029     1.0  0.85748  0.79474  0.26257  1.0000
  C   C868      1.0  0.85474  0.77150  0.25854  1.0000
  S   S239      1.0  0.67508  0.89236  0.18757  1.0000
  C   C869      1.0  0.73904  0.50062  0.11891  1.0000
  H   H1030     1.0  0.70942  0.78277  0.14002  1.0000
  H   H1031     1.0  0.81142  0.72844  0.06643  1.0000
  H   H1032     1.0  0.86556  0.71546  0.25880  1.0000
  H   H1033     1.0  0.85076  0.56924  0.27104  1.0000
  H   H1034     1.0  0.94544  0.77154  0.43747  1.0000
  C   C870      1.0  0.85800  0.96160  0.24103  1.0000
  C   C871      1.0  0.91440  0.73347  0.29682  1.0000
  H   H1035     1.0  0.66551  0.76901  0.28716  1.0000
  H   H1036     1.0  0.85692  0.97187  0.21519  1.0000
  H   H1037     1.0  0.76682  0.54462  0.08255  1.0000
  H   H1038     1.0  0.78105  0.58521  0.13852  1.0000
  C   C872      1.0  0.88375  0.52343  0.24039  1.0000
  N   N58       1.0  0.86445  0.75424  0.28846  1.0000
  C   C873      1.0  0.85519  0.72446  0.28227  1.0000
  H   H1039     1.0  0.72484  0.56969  0.17584  1.0000
  C   C874      1.0  0.83000  0.62316  0.02188  1.0000
  C   C875      1.0  0.96930  0.98044  0.32181  1.0000
  C   C876      1.0  0.98021  0.64377  0.28699  1.0000
  H   H1040     1.0  0.73606  0.82950  0.10090  1.0000
  H   H1041     1.0  0.66263  0.73279  0.33098  1.0000
  H   H1042     1.0  0.74160  0.79112  0.03709  1.0000
  C   C877      1.0  0.86035  0.96868  0.30254  1.0000
  H   H1043     1.0  0.74813  0.53054  0.19856  1.0000
  C   C878      1.0  0.98303  0.96910  0.44785  1.0000
  H   H1044     1.0  0.86368  0.98403  0.32401  1.0000
  C   C879      1.0  0.67123  0.52054  0.30710  1.0000
  H   H1045     1.0  0.83944  0.95811  0.30687  1.0000
  H   H1046     1.0  0.96859  0.97062  0.42621  1.0000
  H   H1047     1.0  0.78011  0.49559  0.30336  1.0000
  H   H1048     1.0  0.98800  0.93872  0.32611  1.0000
  H   H1049     1.0  0.96127  0.93135  0.46545  1.0000
  C   C880      1.0  0.97856  0.94620  0.47025  1.0000
  H   H1050     1.0  0.94504  0.79162  0.39815  1.0000
  C   C881      1.0  0.95354  0.79117  0.42494  1.0000
  H   H1051     1.0  0.98753  0.60213  0.30824  1.0000
  C   C882      1.0  0.67481  0.85559  0.02071  1.0000
  H   H1052     1.0  0.71560  0.52478  0.29413  1.0000
  H   H1053     1.0  0.98542  0.82780  0.38898  1.0000
  H   H1054     1.0  0.98906  0.76659  0.47053  1.0000
  N   N59       1.0  0.98520  0.79279  0.42485  1.0000
  H   H1055     1.0  0.98732  0.80396  0.47868  1.0000
  H   H1056     1.0  0.98354  0.83834  0.43296  1.0000
  H   H1057     1.0  0.65855  0.58741  0.28540  1.0000
  C   C883      1.0  0.98983  0.74181  0.40578  1.0000
  Fe  Fe120     1.0  0.87601  0.69900  0.83019  1.0000
  S   S240      1.0  0.85015  0.66613  0.80213  1.0000
  S   S241      1.0  0.90208  0.72944  0.79672  1.0000
  Fe  Fe121     1.0  0.85914  0.67409  0.90200  1.0000
  S   S242      1.0  0.83236  0.63960  0.87842  1.0000
  S   S243      1.0  0.86120  0.68605  0.95912  1.0000
  Fe  Fe122     1.0  0.86813  0.63454  0.83979  1.0000
  S   S244      1.0  0.89133  0.59455  0.82167  1.0000
  Fe  Fe123     1.0  0.81709  0.67430  0.84283  1.0000
  S   S245      1.0  0.77026  0.67935  0.83067  1.0000
  S   S246      1.0  0.89629  0.66698  0.86587  1.0000
  S   S247      1.0  0.84172  0.70911  0.86847  1.0000
  Fe  Fe124     1.0  0.88347  0.91510  0.64839  1.0000
  S   S248      1.0  0.91215  0.88487  0.67746  1.0000
  S   S249      1.0  0.86701  0.91465  0.59304  1.0000
  Fe  Fe125     1.0  0.87540  0.95485  0.71111  1.0000
  S   S250      1.0  0.90342  0.92803  0.74515  1.0000
  H   H1058     1.0  0.69462  0.57460  0.77227  1.0000
  Fe  Fe126     1.0  0.93160  0.92507  0.69845  1.0000
  N   N60       1.0  0.79058  0.96172  0.62913  1.0000
  Fe  Fe127     1.0  0.88169  0.88968  0.72216  1.0000
  S   S251      1.0  0.86294  0.85592  0.75832  1.0000
  S   S252      1.0  0.90548  0.95473  0.66606  1.0000
  S   S253      1.0  0.85120  0.91686  0.69144  1.0000
  Fe  Fe128     1.0  0.67912  0.81114  0.84742  1.0000
  S   S254      1.0  0.72639  0.80647  0.83946  1.0000
  C   C884      1.0  0.73213  0.73494  0.96939  1.0000
  H   H1059     1.0  0.98058  0.58732  0.77692  1.0000
  C   C885      1.0  0.96687  0.49075  0.72061  1.0000
  H   H1060     1.0  0.95045  0.93812  0.60631  1.0000
  H   H1061     1.0  0.96060  0.53622  0.72268  1.0000
  H   H1062     1.0  0.96642  0.64784  0.71813  1.0000
  C   C886      1.0  0.75799  0.71471  0.83245  1.0000
  C   C887      1.0  0.77724  0.73733  0.83419  1.0000
  C   C888      1.0  0.76735  0.76534  0.83672  1.0000
  C   C889      1.0  0.73806  0.77104  0.83664  1.0000
  C   C890      1.0  0.71869  0.74855  0.83378  1.0000
  C   C891      1.0  0.72864  0.72039  0.83192  1.0000
  H   H1063     1.0  0.79977  0.73349  0.83210  1.0000
  H   H1064     1.0  0.78252  0.78260  0.83824  1.0000
  H   H1065     1.0  0.69607  0.75276  0.83264  1.0000
  H   H1066     1.0  0.71356  0.70306  0.82999  1.0000
  C   C892      1.0  0.87669  0.56470  0.80005  1.0000
  C   C893      1.0  0.84729  0.56134  0.79541  1.0000
  C   C894      1.0  0.83668  0.53718  0.77811  1.0000
  C   C895      1.0  0.85535  0.51642  0.76492  1.0000
  C   C896      1.0  0.88472  0.51973  0.76969  1.0000
  C   C897      1.0  0.89528  0.54364  0.78737  1.0000
  H   H1067     1.0  0.83274  0.57715  0.80549  1.0000
  H   H1068     1.0  0.81391  0.53463  0.77487  1.0000
  H   H1069     1.0  0.68629  0.94958  0.77077  1.0000
  H   H1070     1.0  0.91802  0.54567  0.79134  1.0000
  C   C898      1.0  0.89168  0.76494  0.78692  1.0000
  C   C899      1.0  0.90438  0.77913  0.75884  1.0000
  C   C900      1.0  0.89640  0.80721  0.75011  1.0000
  C   C901      1.0  0.87598  0.82162  0.76983  1.0000
  C   C902      1.0  0.86401  0.80771  0.79857  1.0000
  C   C903      1.0  0.87146  0.77945  0.80678  1.0000
  H   H1071     1.0  0.92018  0.76817  0.74341  1.0000
  H   H1072     1.0  0.90581  0.81754  0.72790  1.0000
  H   H1073     1.0  0.84862  0.81872  0.81451  1.0000
  H   H1074     1.0  0.86175  0.76898  0.82868  1.0000
  C   C904      1.0  0.85020  0.66566  0.99549  1.0000
  H   H1075     1.0  0.94537  0.61580  0.72013  1.0000
  C   C905      1.0  0.79747  0.96698  0.59225  1.0000
  H   H1076     1.0  0.70210  0.61925  0.82537  1.0000
  C   C906      1.0  0.91420  0.89077  0.56037  1.0000
  C   C907      1.0  0.88759  0.90397  0.55675  1.0000
  C   C908      1.0  0.96192  0.60066  0.78426  1.0000
  H   H1077     1.0  0.92280  0.88701  0.58585  1.0000
  H   H1078     1.0  0.89933  0.50381  0.75996  1.0000
  H   H1079     1.0  0.74899  0.72190  0.75262  1.0000
  H   H1080     1.0  0.82717  0.79236  0.74641  1.0000
  C   C909      1.0  0.79426  0.72867  0.75119  1.0000
  H   H1081     1.0  0.97348  0.88786  0.75605  1.0000
  H   H1082     1.0  0.73200  0.81765  0.76663  1.0000
  H   H1083     1.0  0.97634  0.50530  0.64459  1.0000
  H   H1084     1.0  0.73982  0.84850  0.74198  1.0000
  H   H1085     1.0  0.94267  0.58875  0.77576  1.0000
  H   H1086     1.0  0.68884  0.59861  0.73630  1.0000
  H   H1087     1.0  0.77611  0.82297  0.80084  1.0000
  H   H1088     1.0  0.68823  0.73928  0.98572  1.0000
  H   H1089     1.0  0.72682  0.59006  0.82074  1.0000
  H   H1090     1.0  0.73398  0.81547  0.72006  1.0000
  H   H1091     1.0  0.78288  0.82017  0.69113  1.0000
  C   C910      1.0  0.97610  0.51915  0.72213  1.0000
  H   H1092     1.0  0.93106  0.86188  0.77426  1.0000
  H   H1093     1.0  0.78844  0.92466  0.66219  1.0000
  H   H1094     1.0  0.96108  0.60180  0.81293  1.0000
  H   H1095     1.0  0.81769  0.61563  0.75617  1.0000
  C   C911      1.0  0.78088  0.78755  0.74711  1.0000
  C   C912      1.0  0.92942  0.88173  0.53095  1.0000
  H   H1096     1.0  0.81223  0.96864  0.67764  1.0000
  H   H1097     1.0  0.98292  0.80050  0.82666  1.0000
  H   H1098     1.0  0.78018  0.71095  0.99911  1.0000
  H   H1099     1.0  0.98321  0.61366  0.72244  1.0000
  N   N61       1.0  0.96290  0.62951  0.76876  1.0000
  H   H1100     1.0  0.78348  0.85428  0.71239  1.0000
  S   S255      1.0  0.97906  0.93011  0.70247  1.0000
  H   H1101     1.0  0.73927  0.62612  0.82192  1.0000
  C   C913      1.0  0.96456  0.62664  0.73073  1.0000
  H   H1102     1.0  0.78126  0.85557  0.77757  1.0000
  H   H1103     1.0  0.81268  0.83071  0.71732  1.0000
  C   C914      1.0  0.75356  0.97082  0.67496  1.0000
  C   C915      1.0  0.80953  0.77768  0.74744  1.0000
  H   H1104     1.0  0.80163  0.69288  0.93077  1.0000
  H   H1105     1.0  0.77348  0.70713  0.90439  1.0000
  C   C916      1.0  0.75912  0.76651  0.74878  1.0000
  H   H1106     1.0  0.77099  0.55083  0.70318  1.0000
  C   C917      1.0  0.70066  0.77324  0.95202  1.0000
  N   N62       1.0  0.78320  0.73207  0.94935  1.0000
  C   C918      1.0  0.79317  0.72703  0.98521  1.0000
  C   C919      1.0  0.78076  0.70431  0.93152  1.0000
  C   C920      1.0  0.80569  0.74885  0.93156  1.0000
  C   C921      1.0  0.75497  0.74633  0.94963  1.0000
  H   H1107     1.0  0.71247  0.64578  0.73541  1.0000
  C   C922      1.0  0.74905  0.77129  0.93011  1.0000
  C   C923      1.0  0.72231  0.78451  0.93158  1.0000
  H   H1108     1.0  0.83818  0.74185  0.75087  1.0000
  H   H1109     1.0  0.81864  0.95775  0.58509  1.0000
  H   H1110     1.0  0.81537  0.71853  0.98582  1.0000
  H   H1111     1.0  0.92777  0.95180  0.55120  1.0000
  H   H1112     1.0  0.71820  0.80343  0.91625  1.0000
  H   H1113     1.0  0.98936  0.96619  0.63022  1.0000
  C   C924      1.0  0.96821  0.98626  0.71727  1.0000
  H   H1114     1.0  0.77275  0.92023  0.62027  1.0000
  H   H1115     1.0  0.82701  0.73834  0.93342  1.0000
  H   H1116     1.0  0.80927  0.83010  0.77960  1.0000
  H   H1117     1.0  0.73671  0.77181  0.74974  1.0000
  H   H1118     1.0  0.73463  0.71534  0.98364  1.0000
  H   H1119     1.0  0.80801  0.77038  0.94307  1.0000
  H   H1120     1.0  0.79935  0.70627  0.75379  1.0000
  H   H1121     1.0  0.76533  0.68987  0.94440  1.0000
  N   N63       1.0  0.71908  0.61359  0.77408  1.0000
  C   C925      1.0  0.72197  0.61214  0.81214  1.0000
  C   C926      1.0  0.71437  0.64367  0.76393  1.0000
  C   C927      1.0  0.69306  0.59735  0.76453  1.0000
  C   C928      1.0  0.74547  0.60272  0.75760  1.0000
  C   C929      1.0  0.74571  0.57906  0.73473  1.0000
  C   C930      1.0  0.77219  0.61573  0.76460  1.0000
  C   C931      1.0  0.77120  0.56906  0.72030  1.0000
  C   C932      1.0  0.79750  0.60558  0.75000  1.0000
  C   C933      1.0  0.79702  0.58226  0.72793  1.0000
  H   H1122     1.0  0.69428  0.65231  0.77524  1.0000
  C   C934      1.0  0.93546  0.64389  0.77709  1.0000
  H   H1123     1.0  0.73182  0.65791  0.77274  1.0000
  H   H1124     1.0  0.79307  0.74710  0.00028  1.0000
  H   H1125     1.0  0.81677  0.57416  0.71706  1.0000
  H   H1126     1.0  0.78159  0.95687  0.57485  1.0000
  H   H1127     1.0  0.81088  0.92056  0.62545  1.0000
  H   H1128     1.0  0.72652  0.56781  0.72758  1.0000
  H   H1129     1.0  0.77374  0.63380  0.78167  1.0000
  C   C935      1.0  0.98020  0.97310  0.60598  1.0000
  C   C936      1.0  0.76588  0.73753  0.75046  1.0000
  H   H1130     1.0  0.91676  0.63164  0.76744  1.0000
  C   C937      1.0  0.70546  0.74835  0.97064  1.0000
  C   C938      1.0  0.83824  0.63856  0.99222  1.0000
  H   H1131     1.0  0.83570  0.62929  0.96690  1.0000
  C   C939      1.0  0.81605  0.74872  0.74972  1.0000
  H   H1132     1.0  0.93234  0.64574  0.80546  1.0000
  N   N64       1.0  0.77471  0.81847  0.74571  1.0000
  C   C940      1.0  0.78898  0.83137  0.71528  1.0000
  C   C941      1.0  0.74376  0.82517  0.74335  1.0000
  C   C942      1.0  0.78580  0.83233  0.77725  1.0000
  H   H1133     1.0  0.66819  0.69638  0.74726  1.0000
  H   H1134     1.0  0.76450  0.78094  0.91307  1.0000
  C   C943      1.0  0.79058  0.93048  0.63454  1.0000
  H   H1135     1.0  0.67359  0.60609  0.77724  1.0000
  H   H1136     1.0  0.66870  0.84936  0.96591  1.0000
  H   H1137     1.0  0.94971  0.87104  0.53410  1.0000
  H   H1138     1.0  0.93406  0.66547  0.76535  1.0000
  H   H1139     1.0  0.80121  0.75113  0.90350  1.0000
  C   C944      1.0  0.87676  0.90861  0.52339  1.0000
  C   C945      1.0  0.81387  0.97434  0.64993  1.0000
  H   H1140     1.0  0.76674  0.96030  0.69397  1.0000
  C   C946      1.0  0.72714  0.98141  0.68593  1.0000
  C   C947      1.0  0.95441  0.82976  0.80181  1.0000
  H   H1141     1.0  0.93536  0.81825  0.80945  1.0000
  H   H1142     1.0  0.83535  0.96686  0.64138  1.0000
  C   C948      1.0  0.66180  0.84332  0.99152  1.0000
  C   C949      1.0  0.95797  0.95676  0.59246  1.0000
  H   H1143     1.0  0.66604  0.90612  0.79812  1.0000
  C   C950      1.0  0.94513  0.96446  0.56147  1.0000
  H   H1144     1.0  0.96643  0.68164  0.80490  1.0000
  H   H1145     1.0  0.69173  0.87097  0.01723  1.0000
  C   C951      1.0  0.76275  0.97368  0.64018  1.0000
  H   H1146     1.0  0.93561  0.50533  0.57646  1.0000
  C   C952      1.0  0.97652  0.86915  0.77184  1.0000
  C   C953      1.0  0.98126  0.81985  0.81152  1.0000
  C   C954      1.0  0.95204  0.85435  0.78200  1.0000
  C   C955      1.0  0.66341  0.94728  0.77298  1.0000
  H   H1147     1.0  0.72034  0.97883  0.71254  1.0000
  H   H1148     1.0  0.67995  0.78356  0.95284  1.0000
  H   H1149     1.0  0.93403  0.49573  0.62131  1.0000
  S   S256      1.0  0.66157  0.84840  0.87723  1.0000
  H   H1150     1.0  0.94585  0.98143  0.71396  1.0000
  H   H1151     1.0  0.85621  0.91880  0.52026  1.0000
  C   C956      1.0  0.98874  0.96474  0.71435  1.0000
  C   C957      1.0  0.98834  0.64494  0.78148  1.0000
  C   C958      1.0  0.98655  0.67134  0.79929  1.0000
  C   C959      1.0  0.95460  0.98844  0.54373  1.0000
  C   C960      1.0  0.74389  0.98799  0.61719  1.0000
  H   H1152     1.0  0.82115  0.60206  0.01904  1.0000
