data_image0
_chemical_formula_structural       HC2HC2SHC4H2CH2C2H2CHCH2CH4SH5SC2FeSHSFeC2H4CFeC2SCHC3SHCH2C2H2C3HSNH6CH2CHNC3H5CHCHC2SH2SCHCH2C2HFeHSCH2CHC2HC2H8CH3C5HNC2HC2H2SH2FeHCHC2HCNS2NFeS2HFeS2HSHFeHFeSCSCHC3FeCH3CHCH3C9H4C2FeH2C2H2CHC3HC2HCH2CH5SC4SNHC5H6CH2C3H4NH2CHCHCSHCSCH2CH3CH2FeH4CNCHC2H3C2HCH3C2HCSCHCHFeHSC2FeS3CHCFeSCFeS2HSFeSFeCSCSFeS2HC4H2C6H2CHC6H4CHC3HC2FeSCH4NC8H15CHCFeCHCH3SCHSHCNFeHSHFeH2CH4FeCH5CH2CHCHCH3C2SH2CSFeS2FeS2FeSHFeSFe2SH4C3SHCHCH3C8H4SC2HC4HCHC2H4NC9SH6FeH3CH2C2HFeH2C3HC3NHCSCH4C3S2FeCNHC3H5CH3CH4SHCSCHCHNH4C3HCH2CHC2HCHSH3C2FeS2FeS2FeSFeHS2CSFeS2HCHC9H4C6H2NHCHC2H5SC2H2NSH2CHCHCH2C3HCH2C2HFeCHNCH2C2HCHNSHC2HCHCH2CFeC3HC2H2NCH2CHCSHSC3H2CFeC2H2C2H2SH5CH3SCSC3H2SH3FeH6SCH5CS2FeSH2FeS2FeSHSHFeS2H2FeS2CSFeHFeHSCHC6H4C2FeNH3C6H4C2FeCHC2HNFeHC2H2CH5C4H5CHC2NCH2C8HSCH5SHNC8H5C2H2FeC2H5FeH4CH6NHS3HFeS2FeHFeSCSCH2CFeS2HS2H2NH2C4H2C2HCHC6H4C6HCH3C3H3C2H4CH2CHNC5HCSH2CH2FeH6FeHC3HSHNH4NC2H2C2H2CHCSCHCH4C2HCHCH5S2H4CHC6HCH3C2HCHC2NSH2C2HS2H3CSHCHC2HC4H2C3SC2HC2H2CHNCH2C2HCHNH2C2H4CHCHCH2CH4CSHSC2HSH2FeHC2SH2FeH2SFeCSHSCHNH6SHCHCSC2H2C3H3C4HSH3CHFeC2H2C2HCH5CSCH3
_chemical_formula_sum              "H576 C480 S128 Fe64 N32"
_cell_length_a       29.5628
_cell_length_b       29.5352
_cell_length_c       37.3727
_cell_angle_alpha    89.941
_cell_angle_beta     90.3669
_cell_angle_gamma    90.3393

_space_group_name_H-M_alt    "P 1"
_space_group_IT_number       1

loop_
  _space_group_symop_operation_xyz
  'x, y, z'

loop_
  _atom_site_type_symbol
  _atom_site_label
  _atom_site_symmetry_multiplicity
  _atom_site_fract_x
  _atom_site_fract_y
  _atom_site_fract_z
  _atom_site_occupancy
  H   H1        1.0  0.40616  0.04101  0.06171  1.0000
  C   C1        1.0  0.46827  0.01790  0.03848  1.0000
  C   C2        1.0  0.34681  0.01678  0.31649  1.0000
  H   H2        1.0  0.45024  0.06912  0.17107  1.0000
  C   C3        1.0  0.43192  0.13867  0.27807  1.0000
  C   C4        1.0  0.48600  0.49808  0.25817  1.0000
  S   S1        1.0  0.36951  0.04568  0.21652  1.0000
  H   H3        1.0  0.46562  0.14802  0.07565  1.0000
  C   C5        1.0  0.47104  0.08027  0.14887  1.0000
  C   C6        1.0  0.41077  0.07223  0.24359  1.0000
  C   C7        1.0  0.45350  0.11089  0.12417  1.0000
  C   C8        1.0  0.43113  0.04673  0.04114  1.0000
  H   H4        1.0  0.42407  0.17251  0.28713  1.0000
  H   H5        1.0  0.45960  0.01823  0.24351  1.0000
  C   C9        1.0  0.45181  0.05171  0.25332  1.0000
  H   H6        1.0  0.31249  0.02410  0.32682  1.0000
  H   H7        1.0  0.36940  0.13148  0.24899  1.0000
  C   C10       1.0  0.47257  0.11846  0.28838  1.0000
  C   C11       1.0  0.40099  0.11548  0.25634  1.0000
  H   H8        1.0  0.41928  0.12328  0.12720  1.0000
  H   H9        1.0  0.39663  0.10449  0.01879  1.0000
  C   C12       1.0  0.42592  0.08285  0.01685  1.0000
  H   H10       1.0  0.49334  0.19564  0.21289  1.0000
  C   C13       1.0  0.48263  0.07472  0.27615  1.0000
  H   H11       1.0  0.00494  0.02657  0.27946  1.0000
  H   H12       1.0  0.36882  0.04652  0.32283  1.0000
  C   C14       1.0  0.47966  0.12482  0.09527  1.0000
  H   H13       1.0  0.34361  0.01494  0.28679  1.0000
  H   H14       1.0  0.00542  0.31043  0.28561  1.0000
  H   H15       1.0  0.01612  0.03339  0.06911  1.0000
  H   H16       1.0  0.00273  0.34342  0.24520  1.0000
  S   S2        1.0  0.44297  0.46063  0.64873  1.0000
  H   H17       1.0  0.42040  0.06803  0.49820  1.0000
  H   H18       1.0  0.05987  0.03000  0.66889  1.0000
  H   H19       1.0  0.02466  0.37008  0.67170  1.0000
  H   H20       1.0  0.02273  0.27051  0.58784  1.0000
  H   H21       1.0  0.07228  0.33826  0.58424  1.0000
  S   S3        1.0  0.36619  0.00898  0.65966  1.0000
  C   C15       1.0  0.48931  0.05202  0.48465  1.0000
  C   C16       1.0  0.44698  0.01678  0.53355  1.0000
  Fe  Fe1       1.0  0.48773  0.46184  0.60025  1.0000
  S   S4        1.0  0.01711  0.01259  0.41148  1.0000
  H   H22       1.0  0.07177  0.49175  0.47841  1.0000
  S   S5        1.0  0.46386  0.47534  0.54328  1.0000
  Fe  Fe2       1.0  0.48145  0.39819  0.66482  1.0000
  C   C17       1.0  0.00875  0.30402  0.59171  1.0000
  C   C18       1.0  0.44952  0.04759  0.50490  1.0000
  H   H23       1.0  0.00377  0.47672  0.58145  1.0000
  H   H24       1.0  0.49066  0.07570  0.46257  1.0000
  H   H25       1.0  0.04200  0.41349  0.59230  1.0000
  H   H26       1.0  0.00895  0.47052  0.62955  1.0000
  C   C19       1.0  0.03654  0.34220  0.58976  1.0000
  Fe  Fe3       1.0  0.50062  0.49773  0.67522  1.0000
  C   C20       1.0  0.01850  0.38549  0.59447  1.0000
  C   C21       1.0  0.07430  0.01788  0.64423  1.0000
  S   S6        1.0  0.39516  0.01100  0.55668  1.0000
  C   C22       1.0  0.12146  0.01579  0.64240  1.0000
  H   H27       1.0  0.14213  0.02597  0.66511  1.0000
  C   C23       1.0  0.04645  0.00446  0.61494  1.0000
  C   C24       1.0  0.45945  0.36464  0.79300  1.0000
  C   C25       1.0  0.03381  0.41361  0.75682  1.0000
  S   S7        1.0  0.46621  0.18362  0.86387  1.0000
  H   H28       1.0  0.36886  0.22594  0.72983  1.0000
  C   C26       1.0  0.02405  0.37271  0.77532  1.0000
  H   H29       1.0  0.11231  0.44284  0.78556  1.0000
  H   H30       1.0  0.00947  0.13258  0.90443  1.0000
  C   C27       1.0  0.50033  0.02592  0.01150  1.0000
  C   C28       1.0  0.47529  0.43753  0.90169  1.0000
  H   H31       1.0  0.41254  0.08839  0.72831  1.0000
  H   H32       1.0  0.34477  0.02206  0.85935  1.0000
  C   C29       1.0  0.33567  0.14084  0.78679  1.0000
  C   C30       1.0  0.41136  0.12119  0.71358  1.0000
  C   C31       1.0  0.08136  0.45120  0.80104  1.0000
  H   H33       1.0  0.36170  0.19178  0.69049  1.0000
  S   S8        1.0  0.08806  0.03021  0.85375  1.0000
  N   N1        1.0  0.44852  0.42925  0.93454  1.0000
  H   H34       1.0  0.45376  0.39417  0.80941  1.0000
  H   H35       1.0  0.41265  0.19756  0.78125  1.0000
  H   H36       1.0  0.38744  0.41299  0.90518  1.0000
  H   H37       1.0  0.45295  0.48068  0.74137  1.0000
  H   H38       1.0  0.45527  0.49893  0.95124  1.0000
  H   H39       1.0  0.45757  0.17839  0.75374  1.0000
  C   C32       1.0  0.29376  0.12466  0.79869  1.0000
  H   H40       1.0  0.00958  0.17926  0.87363  1.0000
  H   H41       1.0  0.40459  0.05727  0.89208  1.0000
  C   C33       1.0  0.42402  0.16841  0.76479  1.0000
  H   H42       1.0  0.02238  0.37173  0.80421  1.0000
  N   N2        1.0  0.04156  0.45615  0.77700  1.0000
  C   C34       1.0  0.01476  0.33174  0.71970  1.0000
  C   C35       1.0  0.49562  0.06263  0.98765  1.0000
  C   C36       1.0  0.46212  0.32944  0.73435  1.0000
  H   H43       1.0  0.31843  0.12428  0.69711  1.0000
  H   H44       1.0  0.15346  0.00824  0.79229  1.0000
  H   H45       1.0  0.00418  0.49949  0.81287  1.0000
  H   H46       1.0  0.08866  0.48302  0.81609  1.0000
  H   H47       1.0  0.04209  0.44053  0.70225  1.0000
  C   C37       1.0  0.31281  0.12498  0.72565  1.0000
  H   H48       1.0  0.44846  0.39998  0.74308  1.0000
  C   C38       1.0  0.46302  0.00518  0.75173  1.0000
  H   H49       1.0  0.42253  0.36547  0.91420  1.0000
  C   C39       1.0  0.48646  0.05798  0.79867  1.0000
  C   C40       1.0  0.27115  0.10881  0.73787  1.0000
  S   S9        1.0  0.44821  0.13529  0.95893  1.0000
  H   H50       1.0  0.37201  0.07067  0.93112  1.0000
  H   H51       1.0  0.44651  0.13000  0.70550  1.0000
  S   S10       1.0  0.47318  0.31915  0.85598  1.0000
  C   C41       1.0  0.41061  0.39804  0.92562  1.0000
  H   H52       1.0  0.22945  0.09564  0.78368  1.0000
  C   C42       1.0  0.39188  0.04349  0.91790  1.0000
  H   H53       1.0  0.41683  0.21133  0.70311  1.0000
  H   H54       1.0  0.45520  0.45580  0.88089  1.0000
  C   C43       1.0  0.45819  0.09115  0.99013  1.0000
  C   C44       1.0  0.48685  0.03098  0.72666  1.0000
  H   H55       1.0  0.00612  0.30204  0.77167  1.0000
  Fe  Fe4       1.0  0.49641  0.16551  0.91777  1.0000
  H   H56       1.0  0.07645  0.42422  0.82141  1.0000
  S   S11       1.0  0.03445  0.04665  0.94589  1.0000
  C   C45       1.0  0.45657  0.36800  0.75555  1.0000
  H   H57       1.0  0.42232  0.03770  0.93483  1.0000
  H   H58       1.0  0.41442  0.46941  0.79956  1.0000
  C   C46       1.0  0.38423  0.19816  0.71391  1.0000
  H   H59       1.0  0.40660  0.46950  0.96938  1.0000
  C   C47       1.0  0.46899  0.32298  0.80920  1.0000
  C   C48       1.0  0.48467  0.42845  0.99675  1.0000
  H   H60       1.0  0.39032  0.38989  0.94981  1.0000
  C   C49       1.0  0.47545  0.28463  0.78793  1.0000
  C   C50       1.0  0.18630  0.00331  0.78042  1.0000
  H   H61       1.0  0.24635  0.09554  0.71900  1.0000
  H   H62       1.0  0.46932  0.45997  0.00449  1.0000
  H   H63       1.0  0.16009  0.00519  0.72665  1.0000
  H   H64       1.0  0.47663  0.25817  0.73419  1.0000
  H   H65       1.0  0.43039  0.13886  0.78261  1.0000
  H   H66       1.0  0.48633  0.06814  0.82647  1.0000
  H   H67       1.0  0.35891  0.15275  0.80715  1.0000
  H   H68       1.0  0.39237  0.11511  0.68828  1.0000
  C   C51       1.0  0.42858  0.47321  0.94544  1.0000
  H   H69       1.0  0.28610  0.12422  0.82703  1.0000
  H   H70       1.0  0.48285  0.25237  0.80022  1.0000
  H   H71       1.0  0.48744  0.02043  0.69894  1.0000
  C   C52       1.0  0.03456  0.41144  0.71874  1.0000
  C   C53       1.0  0.01477  0.33249  0.75694  1.0000
  C   C54       1.0  0.26165  0.10866  0.77430  1.0000
  C   C55       1.0  0.34662  0.14107  0.74974  1.0000
  C   C56       1.0  0.47768  0.40856  0.96247  1.0000
  H   H72       1.0  0.30671  0.03941  0.89349  1.0000
  N   N3        1.0  0.39088  0.15700  0.73605  1.0000
  C   C57       1.0  0.47165  0.28782  0.75059  1.0000
  C   C58       1.0  0.46309  0.01868  0.78776  1.0000
  H   H73       1.0  0.03035  0.12510  0.85987  1.0000
  C   C59       1.0  0.32948  0.01143  0.88523  1.0000
  C   C60       1.0  0.02488  0.37101  0.70067  1.0000
  H   H74       1.0  0.49609  0.34960  0.93052  1.0000
  H   H75       1.0  0.40672  0.48779  0.92398  1.0000
  S   S12       1.0  0.45616  0.33232  0.68765  1.0000
  H   H76       1.0  0.01140  0.05683  0.71723  1.0000
  H   H77       1.0  0.48662  0.40559  0.88901  1.0000
  Fe  Fe5       1.0  0.49998  0.25100  0.87185  1.0000
  H   H78       1.0  0.00601  0.30085  0.70551  1.0000
  C   C61       1.0  0.05008  0.49599  0.75367  1.0000
  H   H79       1.0  0.08180  0.49220  0.73801  1.0000
  C   C62       1.0  0.00373  0.14216  0.87586  1.0000
  C   C63       1.0  0.50001  0.36695  0.95586  1.0000
  H   H80       1.0  0.02153  0.50163  0.73475  1.0000
  C   C64       1.0  0.19011  0.00192  0.74311  1.0000
  N   N4        1.0  0.36439  0.00174  0.91295  1.0000
  S   S13       1.0  0.03785  0.73689  0.18836  1.0000
  S   S14       1.0  0.04346  0.65109  0.13237  1.0000
  N   N5        1.0  0.19496  0.63679  0.06591  1.0000
  Fe  Fe6       1.0  0.08380  0.71473  0.14433  1.0000
  S   S15       1.0  0.15981  0.71713  0.15251  1.0000
  S   S16       1.0  0.05021  0.75642  0.10189  1.0000
  H   H81       1.0  0.42634  0.93529  0.32396  1.0000
  Fe  Fe7       1.0  0.33459  0.91597  0.13425  1.0000
  S   S17       1.0  0.39974  0.88216  0.11968  1.0000
  S   S18       1.0  0.26675  0.89634  0.10991  1.0000
  H   H82       1.0  0.10772  0.85886  0.22862  1.0000
  S   S19       1.0  0.45152  0.95712  0.17080  1.0000
  H   H83       1.0  0.40664  0.96339  0.28450  1.0000
  Fe  Fe8       1.0  0.42794  0.95293  0.11338  1.0000
  H   H84       1.0  0.37234  0.63700  0.22589  1.0000
  Fe  Fe9       1.0  0.41670  0.88991  0.17820  1.0000
  S   S20       1.0  0.44816  0.83546  0.21244  1.0000
  C   C65       1.0  0.17492  0.74087  0.25154  1.0000
  S   S21       1.0  0.34949  0.91863  0.19318  1.0000
  C   C66       1.0  0.15395  0.78518  0.31506  1.0000
  H   H85       1.0  0.49423  0.64021  0.25156  1.0000
  C   C67       1.0  0.37715  0.82202  0.30446  1.0000
  C   C68       1.0  0.38821  0.82496  0.26796  1.0000
  C   C69       1.0  0.43197  0.83762  0.25764  1.0000
  Fe  Fe10      1.0  0.38298  0.98537  0.18157  1.0000
  C   C70       1.0  0.45298  0.84615  0.32033  1.0000
  H   H86       1.0  0.34337  0.81202  0.31221  1.0000
  H   H87       1.0  0.36320  0.81634  0.24777  1.0000
  H   H88       1.0  0.27840  0.86809  0.03526  1.0000
  C   C71       1.0  0.12485  0.87951  0.29710  1.0000
  H   H89       1.0  0.07398  0.82331  0.33654  1.0000
  C   C72       1.0  0.41772  0.56623  0.28179  1.0000
  H   H90       1.0  0.04984  0.97657  0.11086  1.0000
  H   H91       1.0  0.25210  0.59148  0.06554  1.0000
  H   H92       1.0  0.33643  0.92884  0.29245  1.0000
  C   C73       1.0  0.38207  0.57708  0.33715  1.0000
  C   C74       1.0  0.24798  0.85161  0.02313  1.0000
  C   C75       1.0  0.01672  0.95822  0.02341  1.0000
  C   C76       1.0  0.18862  0.76853  0.14329  1.0000
  C   C77       1.0  0.16684  0.80419  0.12577  1.0000
  C   C78       1.0  0.19099  0.84357  0.11656  1.0000
  C   C79       1.0  0.23696  0.84817  0.12539  1.0000
  C   C80       1.0  0.25866  0.81304  0.14376  1.0000
  C   C81       1.0  0.23463  0.77315  0.15236  1.0000
  H   H93       1.0  0.13150  0.80143  0.11889  1.0000
  H   H94       1.0  0.17393  0.87061  0.10244  1.0000
  H   H95       1.0  0.29418  0.81618  0.15058  1.0000
  H   H96       1.0  0.25179  0.74581  0.16601  1.0000
  C   C82       1.0  0.18499  0.74968  0.31516  1.0000
  C   C83       1.0  0.38506  0.56304  0.02742  1.0000
  Fe  Fe11      1.0  0.00650  0.69472  0.09264  1.0000
  H   H97       1.0  0.03161  0.51279  0.25228  1.0000
  H   H98       1.0  0.05814  0.87931  0.24984  1.0000
  C   C84       1.0  0.08108  0.84968  0.24831  1.0000
  C   C85       1.0  0.37624  0.62279  0.25231  1.0000
  H   H99       1.0  0.20971  0.70466  0.08415  1.0000
  H   H100      1.0  0.43618  0.68036  0.21657  1.0000
  C   C86       1.0  0.16810  0.61440  0.03730  1.0000
  H   H101      1.0  0.18184  0.58265  0.10311  1.0000
  C   C87       1.0  0.14366  0.77632  0.25113  1.0000
  C   C88       1.0  0.07361  0.68142  0.31478  1.0000
  C   C89       1.0  0.17985  0.62022  0.10141  1.0000
  H   H102      1.0  0.35640  0.67937  0.06027  1.0000
  C   C90       1.0  0.13247  0.79986  0.28308  1.0000
  C   C91       1.0  0.19565  0.72767  0.28344  1.0000
  H   H103      1.0  0.18339  0.72369  0.22687  1.0000
  C   C92       1.0  0.28645  0.77762  0.01616  1.0000
  H   H104      1.0  0.10243  0.90971  0.29739  1.0000
  H   H105      1.0  0.28816  0.80530  0.07079  1.0000
  C   C93       1.0  0.43627  0.53111  0.07264  1.0000
  H   H106      1.0  0.45898  0.75033  0.29422  1.0000
  H   H107      1.0  0.10258  0.63824  0.05636  1.0000
  H   H108      1.0  0.44151  0.51646  0.09888  1.0000
  H   H109      1.0  0.19725  0.69978  0.03711  1.0000
  H   H110      1.0  0.26359  0.64531  0.08539  1.0000
  S   S22       1.0  0.01966  0.95687  0.33528  1.0000
  C   C94       1.0  0.32216  0.74269  0.06894  1.0000
  C   C95       1.0  0.46569  0.55659  0.01586  1.0000
  C   C96       1.0  0.45620  0.51658  0.23395  1.0000
  C   C97       1.0  0.41655  0.62258  0.32575  1.0000
  S   S23       1.0  0.47549  0.97096  0.06758  1.0000
  N   N6        1.0  0.36592  0.97449  0.33159  1.0000
  H   H111      1.0  0.15285  0.69634  0.06981  1.0000
  C   C98       1.0  0.33683  0.70647  0.04824  1.0000
  C   C99       1.0  0.24430  0.62827  0.06348  1.0000
  C   C100      1.0  0.46431  0.84808  0.28394  1.0000
  C   C101      1.0  0.41025  0.96691  0.31411  1.0000
  C   C102      1.0  0.03675  0.65569  0.30310  1.0000
  H   H112      1.0  0.02714  0.65587  0.27498  1.0000
  H   H113      1.0  0.14448  0.63010  0.10744  1.0000
  H   H114      1.0  0.29991  0.94216  0.32858  1.0000
  H   H115      1.0  0.43390  0.99587  0.31859  1.0000
  H   H116      1.0  0.15465  0.88763  0.28016  1.0000
  H   H117      1.0  0.12913  0.78465  0.22536  1.0000
  C   C103      1.0  0.48507  0.51305  0.29304  1.0000
  H   H118      1.0  0.03785  0.85641  0.30917  1.0000
  H   H119      1.0  0.25841  0.64135  0.03792  1.0000
  C   C104      1.0  0.06271  0.82825  0.30839  1.0000
  C   C105      1.0  0.34224  0.57704  0.26395  1.0000
  C   C106      1.0  0.41423  0.64530  0.28307  1.0000
  H   H120      1.0  0.02186  0.58319  0.21627  1.0000
  H   H121      1.0  0.22017  0.70044  0.28358  1.0000
  H   H122      1.0  0.20083  0.63463  0.12357  1.0000
  H   H123      1.0  0.43980  0.63584  0.34551  1.0000
  N   N7        1.0  0.10077  0.83851  0.28388  1.0000
  H   H124      1.0  0.04398  0.79720  0.29987  1.0000
  H   H125      1.0  0.33054  0.74396  0.09725  1.0000
  C   C107      1.0  0.45420  0.54594  0.30415  1.0000
  H   H126      1.0  0.34641  0.90450  0.33587  1.0000
  C   C108      1.0  0.39248  0.54415  0.06153  1.0000
  H   H127      1.0  0.22602  0.83921  0.04520  1.0000
  C   C109      1.0  0.44047  0.71891  0.30189  1.0000
  S   S24       1.0  0.36146  0.98627  0.12372  1.0000
  H   H128      1.0  0.40231  0.55671  0.22227  1.0000
  C   C110      1.0  0.34597  0.55415  0.30598  1.0000
  S   S25       1.0  0.33802  0.63721  0.30878  1.0000
  C   C111      1.0  0.31102  0.96250  0.01602  1.0000
  H   H129      1.0  0.47818  0.85439  0.34046  1.0000
  H   H130      1.0  0.31797  0.56354  0.24498  1.0000
  C   C112      1.0  0.42363  0.54807  0.24484  1.0000
  H   H131      1.0  0.40449  0.72818  0.30663  1.0000
  H   H132      1.0  0.32418  0.52619  0.31330  1.0000
  H   H133      1.0  0.36425  0.53942  0.07944  1.0000
  C   C113      1.0  0.29751  0.77791  0.05328  1.0000
  H   H134      1.0  0.38062  0.95784  0.03254  1.0000
  H   H135      1.0  0.06047  0.82108  0.23743  1.0000
  Fe  Fe12      1.0  0.00144  0.77490  0.14527  1.0000
  H   H136      1.0  0.13724  0.87560  0.32504  1.0000
  H   H137      1.0  0.45680  0.50508  0.20644  1.0000
  H   H138      1.0  0.45975  0.55355  0.33214  1.0000
  H   H139      1.0  0.45248  0.73470  0.23319  1.0000
  C   C114      1.0  0.18834  0.68649  0.06403  1.0000
  N   N8        1.0  0.44369  0.68357  0.27396  1.0000
  C   C115      1.0  0.47318  0.53757  0.04989  1.0000
  H   H140      1.0  0.14712  0.80145  0.34025  1.0000
  C   C116      1.0  0.33584  0.93595  0.32175  1.0000
  C   C117      1.0  0.12025  0.61860  0.03646  1.0000
  H   H141      1.0  0.09281  0.70137  0.29577  1.0000
  H   H142      1.0  0.39545  0.71583  0.23919  1.0000
  H   H143      1.0  0.20107  0.73934  0.34000  1.0000
  C   C118      1.0  0.40958  0.83256  0.33074  1.0000
  C   C119      1.0  0.49081  0.66728  0.27213  1.0000
  H   H144      1.0  0.45520  0.70801  0.32783  1.0000
  C   C120      1.0  0.43128  0.70427  0.23915  1.0000
  H   H145      1.0  0.29808  0.95410  0.04237  1.0000
  H   H146      1.0  0.01942  0.82846  0.03900  1.0000
  H   H147      1.0  0.01488  0.93236  0.12892  1.0000
  C   C121      1.0  0.01438  0.96722  0.11763  1.0000
  C   C122      1.0  0.01211  0.62950  0.32741  1.0000
  H   H148      1.0  0.01734  0.99390  0.01722  1.0000
  C   C123      1.0  0.01868  0.86478  0.03465  1.0000
  S   S26       1.0  0.32967  0.57979  0.01450  1.0000
  C   C124      1.0  0.00354  0.89347  0.06179  1.0000
  H   H149      1.0  0.49832  0.85738  0.27613  1.0000
  C   C125      1.0  0.00151  0.94111  0.05688  1.0000
  H   H150      1.0  0.00311  0.99003  0.13958  1.0000
  Fe  Fe13      1.0  0.10031  0.57301  0.59728  1.0000
  H   H151      1.0  0.03509  0.54099  0.37953  1.0000
  S   S27       1.0  0.09814  0.54236  0.54146  1.0000
  C   C126      1.0  0.29179  0.87476  0.45582  1.0000
  C   C127      1.0  0.08592  0.68115  0.35085  1.0000
  Fe  Fe14      1.0  0.11350  0.65945  0.64086  1.0000
  S   S28       1.0  0.13308  0.73384  0.63851  1.0000
  S   S29       1.0  0.08697  0.53111  0.64616  1.0000
  S   S30       1.0  0.16157  0.60631  0.62250  1.0000
  C   C128      1.0  0.44060  0.56507  0.55474  1.0000
  H   H152      1.0  0.04619  0.59252  0.43160  1.0000
  C   C129      1.0  0.44096  0.52858  0.53090  1.0000
  Fe  Fe15      1.0  0.04993  0.94917  0.39024  1.0000
  S   S31       1.0  0.12502  0.93375  0.39251  1.0000
  C   C130      1.0  0.41086  0.97775  0.39014  1.0000
  Fe  Fe16      1.0  0.26860  0.72184  0.40820  1.0000
  S   S32       1.0  0.32239  0.75404  0.44207  1.0000
  S   S33       1.0  0.19426  0.73315  0.41840  1.0000
  H   H153      1.0  0.11483  0.70101  0.35992  1.0000
  S   S34       1.0  0.39694  0.70028  0.39343  1.0000
  Fe  Fe17      1.0  0.35512  0.68536  0.44227  1.0000
  S   S35       1.0  0.38153  0.66632  0.49753  1.0000
  Fe  Fe18      1.0  0.35917  0.76572  0.39061  1.0000
  C   C131      1.0  0.36900  0.97828  0.37110  1.0000
  S   S36       1.0  0.29823  0.65203  0.41150  1.0000
  C   C132      1.0  0.25669  0.86584  0.47955  1.0000
  S   S37       1.0  0.41740  0.91450  0.63454  1.0000
  Fe  Fe19      1.0  0.34872  0.88065  0.63788  1.0000
  S   S38       1.0  0.33573  0.80611  0.62636  1.0000
  S   S39       1.0  0.31284  0.93551  0.60789  1.0000
  H   H154      1.0  0.10617  0.77287  0.42461  1.0000
  C   C133      1.0  0.31132  0.84494  0.52514  1.0000
  C   C134      1.0  0.42279  0.60710  0.54390  1.0000
  C   C135      1.0  0.40470  0.61302  0.50933  1.0000
  C   C136      1.0  0.40504  0.57655  0.48546  1.0000
  H   H155      1.0  0.36589  0.57479  0.66688  1.0000
  H   H156      1.0  0.39122  0.58062  0.45880  1.0000
  C   C137      1.0  0.14357  0.87784  0.40035  1.0000
  C   C138      1.0  0.18942  0.86754  0.39550  1.0000
  C   C139      1.0  0.20530  0.82327  0.40110  1.0000
  C   C140      1.0  0.17540  0.78906  0.41184  1.0000
  C   C141      1.0  0.12952  0.79923  0.41648  1.0000
  C   C142      1.0  0.11361  0.84343  0.41061  1.0000
  H   H157      1.0  0.21268  0.89389  0.38724  1.0000
  H   H158      1.0  0.24065  0.81561  0.39710  1.0000
  C   C143      1.0  0.48477  0.99050  0.54196  1.0000
  H   H159      1.0  0.07828  0.85088  0.41442  1.0000
  C   C144      1.0  0.18955  0.75296  0.63295  1.0000
  C   C145      1.0  0.19857  0.79967  0.63428  1.0000
  C   C146      1.0  0.24320  0.81629  0.63222  1.0000
  C   C147      1.0  0.27917  0.78634  0.62789  1.0000
  C   C148      1.0  0.27005  0.73974  0.62499  1.0000
  C   C149      1.0  0.22553  0.72299  0.62816  1.0000
  H   H160      1.0  0.17092  0.82314  0.63754  1.0000
  H   H161      1.0  0.24972  0.85231  0.63398  1.0000
  H   H162      1.0  0.29758  0.71653  0.62057  1.0000
  H   H163      1.0  0.21916  0.68702  0.62688  1.0000
  C   C150      1.0  0.41717  0.81321  0.48917  1.0000
  H   H164      1.0  0.45620  0.88949  0.51766  1.0000
  C   C151      1.0  0.26645  0.85096  0.51411  1.0000
  C   C152      1.0  0.04451  0.53166  0.52139  1.0000
  C   C153      1.0  0.29451  0.55938  0.58765  1.0000
  H   H165      1.0  0.23908  0.84408  0.53257  1.0000
  C   C154      1.0  0.11617  0.98751  0.58206  1.0000
  C   C155      1.0  0.37258  0.98645  0.44686  1.0000
  Fe  Fe20      1.0  0.04214  0.58836  0.66235  1.0000
  S   S40       1.0  0.05328  0.62886  0.61210  1.0000
  C   C156      1.0  0.40201  0.83331  0.54999  1.0000
  H   H166      1.0  0.33579  0.70144  0.67572  1.0000
  H   H167      1.0  0.43834  0.82962  0.55738  1.0000
  H   H168      1.0  0.38752  0.85836  0.56891  1.0000
  H   H169      1.0  0.13265  0.97583  0.55794  1.0000
  N   N9        1.0  0.22238  0.65478  0.52096  1.0000
  C   C157      1.0  0.17843  0.66685  0.53727  1.0000
  C   C158      1.0  0.24741  0.69763  0.51382  1.0000
  C   C159      1.0  0.21351  0.63258  0.48597  1.0000
  C   C160      1.0  0.24718  0.62314  0.54471  1.0000
  C   C161      1.0  0.29053  0.63324  0.55956  1.0000
  C   C162      1.0  0.22845  0.57999  0.55286  1.0000
  C   C163      1.0  0.31365  0.60162  0.58061  1.0000
  C   C164      1.0  0.25180  0.54874  0.57406  1.0000
  H   H170      1.0  0.39954  0.77990  0.49187  1.0000
  H   H171      1.0  0.18339  0.68266  0.56405  1.0000
  H   H172      1.0  0.15938  0.69139  0.52036  1.0000
  H   H173      1.0  0.15586  0.63690  0.54080  1.0000
  H   H174      1.0  0.25365  0.71714  0.53887  1.0000
  H   H175      1.0  0.22824  0.72038  0.49542  1.0000
  H   H176      1.0  0.28043  0.69096  0.50066  1.0000
  H   H177      1.0  0.24549  0.61986  0.47417  1.0000
  H   H178      1.0  0.18981  0.60336  0.48821  1.0000
  H   H179      1.0  0.19792  0.65629  0.46632  1.0000
  H   H180      1.0  0.30801  0.66482  0.55451  1.0000
  H   H181      1.0  0.19551  0.56996  0.54276  1.0000
  H   H182      1.0  0.42257  0.90233  0.47938  1.0000
  H   H183      1.0  0.45442  0.56103  0.58142  1.0000
  H   H184      1.0  0.34725  0.60952  0.59061  1.0000
  C   C165      1.0  0.06892  0.98954  0.58351  1.0000
  H   H185      1.0  0.42311  0.63524  0.56240  1.0000
  C   C166      1.0  0.00487  0.54875  0.53631  1.0000
  Fe  Fe21      1.0  0.30287  0.96720  0.66173  1.0000
  C   C167      1.0  0.06133  0.65523  0.37545  1.0000
  H   H186      1.0  0.07293  0.65658  0.40288  1.0000
  C   C168      1.0  0.42063  0.89154  0.50781  1.0000
  H   H187      1.0  0.31626  0.83341  0.55231  1.0000
  H   H188      1.0  0.37153  0.63450  0.65987  1.0000
  H   H189      1.0  0.28418  0.88591  0.42883  1.0000
  S   S41       1.0  0.39621  0.83008  0.37659  1.0000
  C   C169      1.0  0.34799  0.85380  0.50158  1.0000
  H   H190      1.0  0.42333  0.50656  0.47760  1.0000
  S   S42       1.0  0.23592  0.99348  0.68035  1.0000
  H   H191      1.0  0.28930  0.64365  0.65931  1.0000
  C   C170      1.0  0.33676  0.86886  0.46653  1.0000
  N   N10       1.0  0.39598  0.84795  0.51221  1.0000
  Fe  Fe22      1.0  0.38005  0.97203  0.60798  1.0000
  H   H192      1.0  0.38306  0.56340  0.36399  1.0000
  S   S43       1.0  0.30261  0.73924  0.35674  1.0000
  H   H193      1.0  0.05089  0.97917  0.55963  1.0000
  Fe  Fe23      1.0  0.33753  0.67230  0.36245  1.0000
  H   H194      1.0  0.40383  0.91915  0.52302  1.0000
  H   H195      1.0  0.41634  0.82253  0.46031  1.0000
  C   C171      1.0  0.14236  0.00043  0.61149  1.0000
  H   H196      1.0  0.45334  0.80783  0.49638  1.0000
  H   H197      1.0  0.27944  0.58495  0.66726  1.0000
  H   H198      1.0  0.00932  0.64098  0.43700  1.0000
  H   H199      1.0  0.17900  0.99859  0.61044  1.0000
  Fe  Fe24      1.0  0.14203  0.57081  0.67332  1.0000
  C   C172      1.0  0.42322  0.53458  0.49621  1.0000
  H   H200      1.0  0.29613  0.98405  0.37921  1.0000
  H   H201      1.0  0.38582  0.79974  0.55503  1.0000
  H   H202      1.0  0.30018  0.99066  0.44431  1.0000
  H   H203      1.0  0.36271  0.87568  0.44692  1.0000
  H   H204      1.0  0.22182  0.87029  0.47110  1.0000
  C   C173      1.0  0.01116  0.60531  0.42755  1.0000
  H   H205      1.0  0.44302  0.97433  0.37690  1.0000
  H   H206      1.0  0.23677  0.51589  0.57961  1.0000
  C   C174      1.0  0.04132  0.50523  0.49015  1.0000
  H   H207      1.0  0.31305  0.53461  0.60325  1.0000
  C   C175      1.0  0.41236  0.98184  0.42744  1.0000
  H   H208      1.0  0.48325  0.96667  0.56393  1.0000
  C   C176      1.0  0.02336  0.62870  0.36443  1.0000
  H   H209      1.0  0.00665  0.56933  0.56016  1.0000
  H   H210      1.0  0.44469  0.98183  0.44137  1.0000
  H   H211      1.0  0.37392  0.99000  0.47577  1.0000
  C   C177      1.0  0.33105  0.98692  0.42907  1.0000
  C   C178      1.0  0.32914  0.98303  0.39178  1.0000
  S   S44       1.0  0.29794  0.54168  0.91765  1.0000
  H   H212      1.0  0.41684  0.58364  0.97835  1.0000
  H   H213      1.0  0.11085  0.57934  0.81779  1.0000
  C   C179      1.0  0.03252  0.88265  0.00194  1.0000
  S   S45       1.0  0.11508  0.92741  0.82857  1.0000
  Fe  Fe25      1.0  0.08673  0.90323  0.88045  1.0000
  S   S46       1.0  0.09400  0.82891  0.89466  1.0000
  S   S47       1.0  0.12198  0.95608  0.91360  1.0000
  Fe  Fe26      1.0  0.24302  0.58615  0.89630  1.0000
  S   S48       1.0  0.28706  0.62019  0.85573  1.0000
  S   S49       1.0  0.17369  0.56597  0.87647  1.0000
  Fe  Fe27      1.0  0.31398  0.59730  0.95647  1.0000
  S   S50       1.0  0.36195  0.63433  0.92037  1.0000
  H   H214      1.0  0.48911  0.56532  0.87646  1.0000
  Fe  Fe28      1.0  0.29971  0.67056  0.89961  1.0000
  S   S51       1.0  0.29203  0.74565  0.88827  1.0000
  Fe  Fe29      1.0  0.34352  0.58010  0.88052  1.0000
  Fe  Fe30      1.0  0.14630  0.98294  0.86101  1.0000
  S   S52       1.0  0.25327  0.63821  0.93935  1.0000
  H   H215      1.0  0.04393  0.86040  0.98078  1.0000
  H   H216      1.0  0.37487  0.93311  0.89580  1.0000
  H   H217      1.0  0.22868  0.87870  0.00917  1.0000
  H   H218      1.0  0.19830  0.82232  0.96871  1.0000
  C   C180      1.0  0.41244  0.54056  0.81218  1.0000
  C   C181      1.0  0.42325  0.58428  0.80057  1.0000
  C   C182      1.0  0.44594  0.59044  0.76798  1.0000
  S   S53       1.0  0.39169  0.53076  0.85532  1.0000
  H   H219      1.0  0.17523  0.78006  0.70605  1.0000
  C   C183      1.0  0.02920  0.69506  0.82813  1.0000
  H   H220      1.0  0.41592  0.61312  0.81736  1.0000
  C   C184      1.0  0.35750  0.96476  0.01050  1.0000
  H   H221      1.0  0.22286  0.66232  0.76050  1.0000
  H   H222      1.0  0.18708  0.69864  0.70757  1.0000
  H   H223      1.0  0.15631  0.66955  0.81491  1.0000
  C   C185      1.0  0.34227  0.70273  0.77910  1.0000
  C   C186      1.0  0.39391  0.96555  0.89876  1.0000
  C   C187      1.0  0.14912  0.80618  0.89168  1.0000
  C   C188      1.0  0.15524  0.75931  0.89511  1.0000
  C   C189      1.0  0.19869  0.74027  0.89314  1.0000
  C   C190      1.0  0.23664  0.76815  0.88847  1.0000
  C   C191      1.0  0.23057  0.81511  0.88503  1.0000
  C   C192      1.0  0.18701  0.83406  0.88653  1.0000
  H   H224      1.0  0.12618  0.73767  0.89920  1.0000
  H   H225      1.0  0.20270  0.70403  0.89537  1.0000
  H   H226      1.0  0.25968  0.83696  0.88129  1.0000
  H   H227      1.0  0.18276  0.87030  0.88397  1.0000
  S   S54       1.0  0.09651  0.62554  0.69315  1.0000
  C   C193      1.0  0.05371  0.67550  0.85702  1.0000
  C   C194      1.0  0.18735  0.54486  0.75573  1.0000
  H   H228      1.0  0.19891  0.85781  0.81293  1.0000
  C   C195      1.0  0.21761  0.53748  0.81617  1.0000
  C   C196      1.0  0.17779  0.55532  0.83025  1.0000
  C   C197      1.0  0.14203  0.56626  0.80708  1.0000
  C   C198      1.0  0.14720  0.56197  0.76986  1.0000
  H   H229      1.0  0.29316  0.57958  0.74560  1.0000
  C   C199      1.0  0.30163  0.73996  0.99598  1.0000
  H   H230      1.0  0.04209  0.63544  0.94338  1.0000
  C   C200      1.0  0.45714  0.55299  0.74681  1.0000
  C   C201      1.0  0.32264  0.57569  0.72755  1.0000
  H   H231      1.0  0.24703  0.70932  0.81221  1.0000
  H   H232      1.0  0.23764  0.79047  0.81147  1.0000
  H   H233      1.0  0.19634  0.78081  0.00393  1.0000
  H   H234      1.0  0.12012  0.57193  0.75219  1.0000
  N   N11       1.0  0.19925  0.84379  0.75627  1.0000
  C   C202      1.0  0.15035  0.85415  0.75280  1.0000
  C   C203      1.0  0.21674  0.86847  0.78816  1.0000
  C   C204      1.0  0.22312  0.86208  0.72453  1.0000
  C   C205      1.0  0.20563  0.79409  0.75827  1.0000
  C   C206      1.0  0.22588  0.77217  0.78821  1.0000
  C   C207      1.0  0.19151  0.76596  0.72947  1.0000
  C   C208      1.0  0.23169  0.72518  0.78892  1.0000
  C   C209      1.0  0.19807  0.71911  0.73017  1.0000
  C   C210      1.0  0.21816  0.69871  0.75985  1.0000
  S   S55       1.0  0.48846  0.56082  0.70760  1.0000
  H   H235      1.0  0.14426  0.89139  0.75193  1.0000
  H   H236      1.0  0.45561  0.62418  0.75950  1.0000
  H   H237      1.0  0.25380  0.86357  0.79178  1.0000
  H   H238      1.0  0.30839  0.98095  0.87923  1.0000
  H   H239      1.0  0.25940  0.85217  0.72474  1.0000
  H   H240      1.0  0.20808  0.84992  0.69900  1.0000
  Fe  Fe31      1.0  0.05446  0.97268  0.82478  1.0000
  H   H241      1.0  0.31660  0.54395  0.71210  1.0000
  H   H242      1.0  0.33845  0.67708  0.99581  1.0000
  H   H243      1.0  0.22173  0.89976  0.72328  1.0000
  C   C211      1.0  0.06064  0.64337  0.91824  1.0000
  H   H244      1.0  0.07467  0.61084  0.90820  1.0000
  H   H245      1.0  0.13100  0.84011  0.77582  1.0000
  C   C212      1.0  0.10037  0.66688  0.85127  1.0000
  C   C213      1.0  0.34174  0.74180  0.72240  1.0000
  H   H246      1.0  0.25611  0.62594  0.69698  1.0000
  Fe  Fe32      1.0  0.05968  0.99808  0.90347  1.0000
  H   H247      1.0  0.22411  0.58279  0.00799  1.0000
  H   H248      1.0  0.21142  0.90565  0.78572  1.0000
  C   C214      1.0  0.37452  0.97724  0.97705  1.0000
  C   C215      1.0  0.44472  0.50952  0.75782  1.0000
  C   C216      1.0  0.22198  0.53142  0.77911  1.0000
  H   H249      1.0  0.08924  0.66610  0.92598  1.0000
  C   C217      1.0  0.33352  0.65890  0.72352  1.0000
  C   C218      1.0  0.33669  0.70049  0.70458  1.0000
  C   C219      1.0  0.12081  0.67700  0.81859  1.0000
  N   N12       1.0  0.03068  0.66492  0.89114  1.0000
  H   H250      1.0  0.39952  0.60832  0.69702  1.0000
  C   C220      1.0  0.42190  0.56892  0.00456  1.0000
  S   S56       1.0  0.02829  0.98720  0.76887  1.0000
  C   C221      1.0  0.09403  0.59721  0.01012  1.0000
  H   H251      1.0  0.34469  0.70379  0.80810  1.0000
  H   H252      1.0  0.03032  0.71903  0.77360  1.0000
  H   H253      1.0  0.04043  0.73299  0.91053  1.0000
  H   H254      1.0  0.13516  0.84003  0.72788  1.0000
  C   C222      1.0  0.09564  0.69557  0.79064  1.0000
  C   C223      1.0  0.18804  0.58811  0.00971  1.0000
  C   C224      1.0  0.34451  0.74292  0.75961  1.0000
  S   S57       1.0  0.02176  0.94304  0.87403  1.0000
  S   S58       1.0  0.19563  0.54049  0.70916  1.0000
  Fe  Fe33      1.0  0.39838  0.94903  0.68630  1.0000
  C   C225      1.0  0.33682  0.66120  0.76151  1.0000
  N   N13       1.0  0.32770  0.61573  0.70378  1.0000
  H   H255      1.0  0.25252  0.51663  0.76862  1.0000
  C   C226      1.0  0.28827  0.83472  0.96950  1.0000
  C   C227      1.0  0.11459  0.57165  0.98355  1.0000
  C   C228      1.0  0.04991  0.70462  0.79541  1.0000
  H   H256      1.0  0.11149  0.70281  0.76519  1.0000
  H   H257      1.0  0.32110  0.84786  0.98016  1.0000
  H   H258      1.0  0.34405  0.77303  0.70710  1.0000
  H   H259      1.0  0.12201  0.65209  0.87148  1.0000
  H   H260      1.0  0.34878  0.77499  0.77335  1.0000
  C   C229      1.0  0.29797  0.98388  0.95413  1.0000
  H   H261      1.0  0.04242  0.94329  0.97098  1.0000
  H   H262      1.0  0.49404  0.56190  0.99815  1.0000
  H   H263      1.0  0.09421  0.55485  0.96326  1.0000
  C   C230      1.0  0.16148  0.56746  0.98316  1.0000
  H   H264      1.0  0.33562  0.63143  0.77829  1.0000
  H   H265      1.0  0.27044  0.86328  0.95612  1.0000
  H   H266      1.0  0.35359  0.56983  0.74398  1.0000
  H   H267      1.0  0.24503  0.52793  0.83390  1.0000
  S   S59       1.0  0.43531  0.95449  0.73941  1.0000
  H   H268      1.0  0.22477  0.76890  0.96285  1.0000
  C   C231      1.0  0.34533  0.98745  0.94782  1.0000
  S   S60       1.0  0.33358  0.90959  0.69163  1.0000
  C   C232      1.0  0.28655  0.61785  0.68082  1.0000
  H   H269      1.0  0.44513  0.99849  0.80727  1.0000
  C   C233      1.0  0.21827  0.79578  0.98286  1.0000
  H   H270      1.0  0.29615  0.80999  0.94806  1.0000
  N   N14       1.0  0.26070  0.81442  0.99851  1.0000
  H   H271      1.0  0.17737  0.54785  0.96216  1.0000
  H   H272      1.0  0.05748  0.60032  0.01052  1.0000
  H   H273      1.0  0.29705  0.98974  0.80289  1.0000
  H   H274      1.0  0.00612  0.61337  0.73791  1.0000
  C   C234      1.0  0.01295  0.70728  0.90699  1.0000
  C   C235      1.0  0.03165  0.92927  0.99642  1.0000
  C   C236      1.0  0.22472  0.99882  0.80214  1.0000
  H   H275      1.0  0.40782  0.97461  0.87201  1.0000
  C   C237      1.0  0.28133  0.97181  0.98786  1.0000
  H   H276      1.0  0.29483  0.73738  0.96757  1.0000
  H   H277      1.0  0.27297  0.99101  0.93365  1.0000
  C   C238      1.0  0.42283  0.50328  0.79063  1.0000
  H   H278      1.0  0.24513  0.97058  0.99238  1.0000
  C   C239      1.0  0.27096  0.99155  0.74886  1.0000
  C   C240      1.0  0.26716  0.99320  0.78632  1.0000
  H   H279      1.0  0.30384  0.98752  0.73678  1.0000
  C   C241      1.0  0.23235  0.99588  0.72721  1.0000
  H   H280      1.0  0.05365  0.52776  0.76947  1.0000
  S   S61       1.0  0.21914  0.99871  0.84889  1.0000
  H   H281      1.0  0.42360  0.95900  0.91641  1.0000
  H   H282      1.0  0.41090  0.97973  0.97457  1.0000
  H   H283      1.0  0.00392  0.60217  0.87028  1.0000
  C   C242      1.0  0.32661  0.70518  0.01185  1.0000
  C   C243      1.0  0.36770  0.60807  0.68083  1.0000
  Fe  Fe34      1.0  0.87435  0.09788  0.14025  1.0000
  S   S62       1.0  0.83007  0.04392  0.11673  1.0000
  S   S63       1.0  0.93706  0.06847  0.16502  1.0000
  Fe  Fe35      1.0  0.81329  0.17369  0.11270  1.0000
  S   S64       1.0  0.76544  0.12453  0.08630  1.0000
  S   S65       1.0  0.80158  0.24935  0.11591  1.0000
  Fe  Fe36      1.0  0.77291  0.08536  0.13756  1.0000
  S   S66       1.0  0.71295  0.05630  0.16690  1.0000
  Fe  Fe37      1.0  0.82854  0.08865  0.06820  1.0000
  H   H284      1.0  0.65668  0.08287  0.10616  1.0000
  S   S67       1.0  0.81731  0.13634  0.16492  1.0000
  S   S68       1.0  0.87611  0.14087  0.09072  1.0000
  C   C244      1.0  0.79718  0.39294  0.02909  1.0000
  S   S69       1.0  0.61429  0.41532  0.18668  1.0000
  Fe  Fe38      1.0  0.58876  0.39198  0.13354  1.0000
  S   S70       1.0  0.59901  0.32006  0.11484  1.0000
  S   S71       1.0  0.62005  0.44948  0.10366  1.0000
  H   H285      1.0  0.59862  0.17550  0.27014  1.0000
  C   C245      1.0  0.59688  0.29435  0.34151  1.0000
  H   H286      1.0  0.70909  0.23066  0.18069  1.0000
  C   C246      1.0  0.95100  0.07432  0.28638  1.0000
  C   C247      1.0  0.75132  0.39190  0.04017  1.0000
  C   C248      1.0  0.51464  0.06298  0.14466  1.0000
  C   C249      1.0  0.74511  0.26858  0.11540  1.0000
  C   C250      1.0  0.73540  0.31213  0.12809  1.0000
  C   C251      1.0  0.69064  0.32806  0.12837  1.0000
  C   C252      1.0  0.65541  0.30085  0.11522  1.0000
  C   C253      1.0  0.66509  0.25744  0.10231  1.0000
  C   C254      1.0  0.70973  0.24126  0.10260  1.0000
  H   H287      1.0  0.76257  0.33350  0.13798  1.0000
  H   H288      1.0  0.68352  0.36150  0.13861  1.0000
  H   H289      1.0  0.63802  0.23621  0.09209  1.0000
  H   H290      1.0  0.71675  0.20784  0.09251  1.0000
  C   C255      1.0  0.71592  0.06200  0.21378  1.0000
  C   C256      1.0  0.75732  0.06980  0.23117  1.0000
  C   C257      1.0  0.75938  0.07223  0.26864  1.0000
  C   C258      1.0  0.71993  0.06768  0.28890  1.0000
  C   C259      1.0  0.67843  0.06032  0.27161  1.0000
  C   C260      1.0  0.67652  0.05709  0.23413  1.0000
  H   H291      1.0  0.78809  0.07259  0.21596  1.0000
  H   H292      1.0  0.79163  0.07740  0.28193  1.0000
  N   N15       1.0  0.58806  0.05779  0.10931  1.0000
  H   H293      1.0  0.67632  0.35743  0.24050  1.0000
  C   C261      1.0  0.94079  0.06999  0.21180  1.0000
  H   H294      1.0  0.62141  0.11274  0.13682  1.0000
  C   C262      1.0  0.59030  0.03549  0.07381  1.0000
  C   C263      1.0  0.90500  0.24606  0.18808  1.0000
  H   H295      1.0  0.63101  0.25452  0.17535  1.0000
  H   H296      1.0  0.54177  0.11900  0.06750  1.0000
  H   H297      1.0  0.88596  0.11678  0.21887  1.0000
  H   H298      1.0  0.86086  0.01151  0.22968  1.0000
  H   H299      1.0  0.68970  0.42211  0.32436  1.0000
  S   S72       1.0  0.95935  0.07995  0.33259  1.0000
  C   C264      1.0  0.53009  0.18788  0.21507  1.0000
  C   C265      1.0  0.71176  0.39171  0.32276  1.0000
  H   H300      1.0  0.88803  0.31324  0.20144  1.0000
  H   H301      1.0  0.66627  0.35628  0.05605  1.0000
  N   N16       1.0  0.93763  0.32428  0.26602  1.0000
  S   S73       1.0  0.72323  0.07010  0.33577  1.0000
  H   H302      1.0  0.50789  0.26381  0.25142  1.0000
  H   H303      1.0  0.60354  0.03859  0.16376  1.0000
  C   C266      1.0  0.93394  0.28442  0.24206  1.0000
  H   H304      1.0  0.91875  0.39469  0.27002  1.0000
  C   C267      1.0  0.90737  0.28431  0.21013  1.0000
  H   H305      1.0  0.51439  0.05919  0.28357  1.0000
  C   C268      1.0  0.97863  0.04581  0.26636  1.0000
  H   H306      1.0  0.61244  0.40327  0.28513  1.0000
  H   H307      1.0  0.58365  0.05921  0.05134  1.0000
  C   C269      1.0  0.82121  0.42614  0.08529  1.0000
  C   C270      1.0  0.91399  0.36496  0.25203  1.0000
  C   C271      1.0  0.56002  0.32132  0.33251  1.0000
  H   H308      1.0  0.92711  0.17755  0.17973  1.0000
  C   C272      1.0  0.51201  0.40771  0.02261  1.0000
  H   H309      1.0  0.70837  0.40962  0.08578  1.0000
  H   H310      1.0  0.52651  0.31245  0.34197  1.0000
  C   C273      1.0  0.77677  0.49432  0.26725  1.0000
  C   C274      1.0  0.56644  0.36007  0.31182  1.0000
  H   H311      1.0  0.88449  0.24661  0.16383  1.0000
  Fe  Fe39      1.0  0.64120  0.47553  0.15756  1.0000
  C   C275      1.0  0.76817  0.49192  0.23026  1.0000
  H   H312      1.0  0.89587  0.12170  0.28465  1.0000
  N   N17       1.0  0.55790  0.22953  0.21955  1.0000
  C   C276      1.0  0.95462  0.20585  0.22830  1.0000
  H   H313      1.0  0.62421  0.02058  0.06888  1.0000
  H   H314      1.0  0.64443  0.05086  0.22099  1.0000
  C   C277      1.0  0.54738  0.26009  0.18900  1.0000
  C   C278      1.0  0.95695  0.24371  0.25069  1.0000
  H   H315      1.0  0.91926  0.34230  0.32003  1.0000
  C   C279      1.0  0.77662  0.42552  0.09708  1.0000
  H   H316      1.0  0.55376  0.35062  0.03577  1.0000
  N   N18       1.0  0.71572  0.37366  0.01600  1.0000
  S   S74       1.0  0.63027  0.15918  0.34642  1.0000
  H   H317      1.0  0.73336  0.17997  0.22978  1.0000
  C   C280      1.0  0.72402  0.49672  0.21690  1.0000
  C   C281      1.0  0.91179  0.09697  0.23195  1.0000
  H   H318      1.0  0.88168  0.30259  0.29861  1.0000
  C   C282      1.0  0.69844  0.19091  0.22800  1.0000
  H   H319      1.0  0.64788  0.05652  0.28715  1.0000
  C   C283      1.0  0.64024  0.30574  0.32960  1.0000
  H   H320      1.0  0.75920  0.32964  0.28372  1.0000
  H   H321      1.0  0.56495  0.00755  0.07184  1.0000
  C   C284      1.0  0.91739  0.09972  0.26919  1.0000
  Fe  Fe40      1.0  0.55014  0.45516  0.18995  1.0000
  C   C285      1.0  0.62160  0.09536  0.11039  1.0000
  C   C286      1.0  0.63936  0.23256  0.19742  1.0000
  C   C287      1.0  0.72595  0.31965  0.29524  1.0000
  H   H322      1.0  0.92747  0.37543  0.22551  1.0000
  C   C288      1.0  0.60970  0.37193  0.29997  1.0000
  C   C289      1.0  0.60635  0.21723  0.22224  1.0000
  H   H323      1.0  0.72852  0.38668  0.25056  1.0000
  H   H324      1.0  0.65953  0.41191  0.03640  1.0000
  N   N19       1.0  0.69403  0.35836  0.29660  1.0000
  C   C290      1.0  0.54389  0.25295  0.25276  1.0000
  H   H325      1.0  0.53351  0.16436  0.23815  1.0000
  H   H326      1.0  0.81096  0.49108  0.27725  1.0000
  C   C291      1.0  0.68461  0.21927  0.20029  1.0000
  H   H327      1.0  0.56618  0.29283  0.19106  1.0000
  C   C292      1.0  0.83143  0.40994  0.05135  1.0000
  S   S75       1.0  0.52305  0.45425  0.24617  1.0000
  H   H328      1.0  0.84792  0.43940  0.10235  1.0000
  S   S76       1.0  0.85069  0.42244  0.32464  1.0000
  C   C293      1.0  0.74202  0.40897  0.07490  1.0000
  C   C294      1.0  0.54203  0.07592  0.11512  1.0000
  C   C295      1.0  0.52326  0.10774  0.09074  1.0000
  H   H329      1.0  0.67709  0.41312  0.26014  1.0000
  H   H330      1.0  0.76867  0.43796  0.12359  1.0000
  C   C296      1.0  0.66935  0.37627  0.03095  1.0000
  Fe  Fe41      1.0  0.55407  0.48570  0.11245  1.0000
  C   C297      1.0  0.66720  0.17619  0.25322  1.0000
  C   C298      1.0  0.62177  0.18872  0.25033  1.0000
  H   H331      1.0  0.55566  0.24424  0.16282  1.0000
  H   H332      1.0  0.52561  0.03884  0.16456  1.0000
  C   C299      1.0  0.64795  0.34455  0.30782  1.0000
  C   C300      1.0  0.92883  0.20706  0.19700  1.0000
  H   H333      1.0  0.87683  0.35927  0.24984  1.0000
  H   H334      1.0  0.79573  0.48584  0.21207  1.0000
  S   S77       1.0  0.51076  0.15181  0.31349  1.0000
  H   H335      1.0  0.66731  0.28396  0.33841  1.0000
  H   H336      1.0  0.71190  0.29138  0.27880  1.0000
  H   H337      1.0  0.61530  0.12119  0.08934  1.0000
  H   H338      1.0  0.56511  0.28361  0.25767  1.0000
  H   H339      1.0  0.93573  0.28477  0.31495  1.0000
  C   C301      1.0  0.91782  0.31298  0.30130  1.0000
  H   H340      1.0  0.67819  0.15437  0.27487  1.0000
  H   H341      1.0  0.98970  0.36834  0.28771  1.0000
  H   H342      1.0  0.73445  0.30655  0.32233  1.0000
  S   S78       1.0  0.52096  0.42558  0.13905  1.0000
  C   C302      1.0  0.97387  0.04405  0.22906  1.0000
  S   S79       1.0  0.97238  0.46689  0.30198  1.0000
  C   C303      1.0  0.69373  0.37954  0.26045  1.0000
  C   C304      1.0  0.60196  0.02370  0.13645  1.0000
  C   C305      1.0  0.98591  0.33696  0.27130  1.0000
  H   H343      1.0  0.53785  0.38157  0.30517  1.0000
  H   H344      1.0  0.72678  0.30515  0.03350  1.0000
  S   S80       1.0  0.71380  0.49343  0.17048  1.0000
  H   H345      1.0  0.54001  0.16889  0.19065  1.0000
  H   H346      1.0  0.86617  0.41079  0.04210  1.0000
  H   H347      1.0  0.97688  0.24071  0.27492  1.0000
  Fe  Fe42      1.0  0.91544  0.45640  0.34090  1.0000
  H   H348      1.0  0.97272  0.17518  0.23535  1.0000
  H   H349      1.0  0.51662  0.42355  0.04861  1.0000
  H   H350      1.0  0.95931  0.02405  0.05200  1.0000
  H   H351      1.0  0.54662  0.23091  0.27681  1.0000
  H   H352      1.0  0.50892  0.49908  0.31216  1.0000
  H   H353      1.0  0.91799  0.11191  0.02225  1.0000
  S   S81       1.0  0.83814  0.05462  0.01435  1.0000
  C   C306      1.0  0.98213  0.01922  0.07542  1.0000
  H   H354      1.0  0.96840  0.04061  0.09727  1.0000
  H   H355      1.0  0.74621  0.40392  0.31547  1.0000
  H   H356      1.0  0.99628  0.02302  0.21357  1.0000
  H   H357      1.0  0.63647  0.01039  0.13111  1.0000
  H   H358      1.0  0.51080  0.26881  0.18776  1.0000
  C   C307      1.0  0.53317  0.36679  0.01533  1.0000
  S   S82       1.0  0.92526  0.41338  0.38991  1.0000
  S   S83       1.0  0.52053  0.39512  0.61365  1.0000
  Fe  Fe43      1.0  0.85632  0.38472  0.37639  1.0000
  S   S84       1.0  0.91697  0.19319  0.66837  1.0000
  H   H359      1.0  0.59202  0.26474  0.35839  1.0000
  H   H360      1.0  0.71403  0.37692  0.35013  1.0000
  Fe  Fe44      1.0  0.88157  0.17688  0.61630  1.0000
  S   S85       1.0  0.82450  0.13777  0.64154  1.0000
  S   S86       1.0  0.92601  0.15802  0.56950  1.0000
  Fe  Fe45      1.0  0.78927  0.20526  0.64426  1.0000
  S   S87       1.0  0.71409  0.21525  0.63607  1.0000
  H   H361      1.0  0.80411  0.07019  0.51154  1.0000
  S   S88       1.0  0.84336  0.24268  0.61439  1.0000
  H   H362      1.0  0.75647  0.14125  0.41879  1.0000
  Fe  Fe46      1.0  0.57243  0.43559  0.64355  1.0000
  S   S89       1.0  0.57738  0.02894  0.46764  1.0000
  S   S90       1.0  0.64726  0.41944  0.64220  1.0000
  H   H363      1.0  0.94773  0.42834  0.66336  1.0000
  H   H364      1.0  0.53780  0.40742  0.53439  1.0000
  Fe  Fe47      1.0  0.62702  0.17182  0.40506  1.0000
  S   S91       1.0  0.66013  0.10662  0.41979  1.0000
  S   S92       1.0  0.64917  0.23919  0.42758  1.0000
  C   C308      1.0  0.83036  0.12261  0.37108  1.0000
  S   S93       1.0  0.59059  0.05613  0.36280  1.0000
  Fe  Fe48      1.0  0.58976  0.07702  0.42103  1.0000
  H   H365      1.0  0.73646  0.03650  0.48240  1.0000
  Fe  Fe49      1.0  0.65812  0.09153  0.36120  1.0000
  H   H366      1.0  0.89417  0.06745  0.43269  1.0000
  S   S94       1.0  0.55659  0.14416  0.41106  1.0000
  C   C309      1.0  0.61638  0.14974  0.50670  1.0000
  H   H367      1.0  0.97592  0.05673  0.47435  1.0000
  C   C310      1.0  0.69560  0.27201  0.63791  1.0000
  C   C311      1.0  0.72668  0.30783  0.64009  1.0000
  C   C312      1.0  0.71139  0.35282  0.64093  1.0000
  C   C313      1.0  0.66493  0.36241  0.64009  1.0000
  C   C314      1.0  0.63380  0.32658  0.63833  1.0000
  C   C315      1.0  0.64913  0.28154  0.63709  1.0000
  H   H368      1.0  0.76257  0.30095  0.64070  1.0000
  H   H369      1.0  0.73568  0.38033  0.64228  1.0000
  H   H370      1.0  0.59792  0.33348  0.63795  1.0000
  H   H371      1.0  0.56812  0.37094  0.50516  1.0000
  C   C316      1.0  0.92239  0.10750  0.54433  1.0000
  C   C317      1.0  0.89039  0.07375  0.55168  1.0000
  Fe  Fe50      1.0  0.56255  0.12574  0.35275  1.0000
  N   N20       1.0  0.60042  0.43577  0.51447  1.0000
  H   H372      1.0  0.57398  0.10872  0.56176  1.0000
  H   H373      1.0  0.86671  0.07826  0.57331  1.0000
  H   H374      1.0  0.60996  0.12153  0.48766  1.0000
  C   C318      1.0  0.78536  0.29170  0.38635  1.0000
  C   C319      1.0  0.75825  0.31910  0.40783  1.0000
  C   C320      1.0  0.71632  0.30292  0.42015  1.0000
  C   C321      1.0  0.70096  0.25955  0.41066  1.0000
  C   C322      1.0  0.72743  0.23264  0.38833  1.0000
  C   C323      1.0  0.76974  0.24847  0.37659  1.0000
  H   H375      1.0  0.77000  0.35229  0.41573  1.0000
  H   H376      1.0  0.69602  0.32386  0.43745  1.0000
  H   H377      1.0  0.71581  0.19921  0.38075  1.0000
  H   H378      1.0  0.90835  0.35390  0.60766  1.0000
  C   C324      1.0  0.58494  0.48223  0.52304  1.0000
  C   C325      1.0  0.77076  0.08266  0.51793  1.0000
  Fe  Fe51      1.0  0.88754  0.46889  0.41782  1.0000
  C   C326      1.0  0.95305  0.10106  0.51629  1.0000
  H   H379      1.0  0.91309  0.47324  0.64618  1.0000
  C   C327      1.0  0.62642  0.41789  0.54547  1.0000
  C   C328      1.0  0.62966  0.43692  0.48240  1.0000
  H   H380      1.0  0.67979  0.48323  0.50548  1.0000
  N   N21       1.0  0.95104  0.43688  0.60617  1.0000
  Fe  Fe52      1.0  0.98092  0.01479  0.35854  1.0000
  H   H381      1.0  0.90379  0.47990  0.57804  1.0000
  C   C329      1.0  0.97163  0.39166  0.60145  1.0000
  C   C330      1.0  0.98261  0.05447  0.62276  1.0000
  H   H382      1.0  0.64042  0.38379  0.53963  1.0000
  H   H383      1.0  0.89576  0.41574  0.64053  1.0000
  C   C331      1.0  0.88609  0.08604  0.40755  1.0000
  H   H384      1.0  0.91013  0.11491  0.40432  1.0000
  H   H385      1.0  0.79566  0.13198  0.55545  1.0000
  H   H386      1.0  0.63839  0.17510  0.49301  1.0000
  H   H387      1.0  0.72797  0.48685  0.45261  1.0000
  H   H388      1.0  0.58285  0.16570  0.51112  1.0000
  C   C332      1.0  0.96276  0.30891  0.59827  1.0000
  C   C333      1.0  0.64802  0.41425  0.42084  1.0000
  C   C334      1.0  0.66976  0.46367  0.48228  1.0000
  C   C335      1.0  0.99883  0.49529  0.47443  1.0000
  H   H389      1.0  0.72178  0.16192  0.56950  1.0000
  H   H390      1.0  0.93689  0.44405  0.54984  1.0000
  H   H391      1.0  0.56569  0.49721  0.50023  1.0000
  H   H392      1.0  0.79475  0.22257  0.50847  1.0000
  H   H393      1.0  0.66121  0.06459  0.49575  1.0000
  C   C336      1.0  0.55934  0.40699  0.51003  1.0000
  H   H394      1.0  0.89345  0.06244  0.38527  1.0000
  C   C337      1.0  0.91926  0.44568  0.57612  1.0000
  C   C338      1.0  0.92001  0.02743  0.50295  1.0000
  N   N22       1.0  0.83827  0.10108  0.40648  1.0000
  C   C339      1.0  0.68672  0.44143  0.42152  1.0000
  H   H395      1.0  0.65517  0.44027  0.55331  1.0000
  H   H396      1.0  0.60456  0.06813  0.53675  1.0000
  C   C340      1.0  0.82684  0.13332  0.43533  1.0000
  C   C341      1.0  0.85882  0.14835  0.46140  1.0000
  C   C342      1.0  0.78252  0.15121  0.43764  1.0000
  C   C343      1.0  0.84710  0.18008  0.48747  1.0000
  C   C344      1.0  0.77114  0.18292  0.46379  1.0000
  C   C345      1.0  0.80351  0.19765  0.48845  1.0000
  C   C346      1.0  0.92581  0.43853  0.64042  1.0000
  C   C347      1.0  0.69767  0.46590  0.45223  1.0000
  H   H397      1.0  0.97800  0.12698  0.51050  1.0000
  S   S95       1.0  0.83848  0.31052  0.37081  1.0000
  C   C348      1.0  0.80934  0.06001  0.40924  1.0000
  H   H398      1.0  0.73715  0.19650  0.46465  1.0000
  H   H399      1.0  0.81415  0.04298  0.43558  1.0000
  H   H400      1.0  0.81739  0.03496  0.38795  1.0000
  H   H401      1.0  0.85024  0.15459  0.36853  1.0000
  H   H402      1.0  0.89327  0.13648  0.46211  1.0000
  S   S96       1.0  0.81904  0.43648  0.40832  1.0000
  H   H403      1.0  0.89098  0.42074  0.57516  1.0000
  N   N23       1.0  0.63728  0.13385  0.54065  1.0000
  C   C349      1.0  0.63652  0.17221  0.56634  1.0000
  C   C350      1.0  0.73272  0.06398  0.50137  1.0000
  C   C351      1.0  0.60881  0.09694  0.55565  1.0000
  C   C352      1.0  0.68336  0.11658  0.53359  1.0000
  C   C353      1.0  0.68967  0.08042  0.50916  1.0000
  C   C354      1.0  0.72293  0.13461  0.55034  1.0000
  C   C355      1.0  0.88925  0.03385  0.53101  1.0000
  C   C356      1.0  0.76586  0.11759  0.54260  1.0000
  H   H404      1.0  0.79415  0.13078  0.36639  1.0000
  H   H405      1.0  0.65659  0.20166  0.55643  1.0000
  H   H406      1.0  0.60156  0.18469  0.57090  1.0000
  H   H407      1.0  0.65007  0.16210  0.59304  1.0000
  H   H408      1.0  0.77278  0.06771  0.40594  1.0000
  C   C357      1.0  0.95183  0.06131  0.49564  1.0000
  C   C358      1.0  0.52688  0.02533  0.49273  1.0000
  H   H409      1.0  0.62397  0.08313  0.58069  1.0000
  H   H410      1.0  0.87219  0.19129  0.50693  1.0000
  Fe  Fe53      1.0  0.87377  0.25525  0.66860  1.0000
  C   C359      1.0  0.94432  0.35199  0.60288  1.0000
  C   C360      1.0  0.98468  0.47441  0.60693  1.0000
  H   H411      1.0  0.62484  0.25405  0.63557  1.0000
  H   H412      1.0  0.56198  0.48241  0.54655  1.0000
  H   H413      1.0  0.84037  0.09993  0.34867  1.0000
  H   H414      1.0  0.63979  0.39491  0.39699  1.0000
  H   H415      1.0  0.60501  0.41468  0.56975  1.0000
  Fe  Fe54      1.0  0.81736  0.47599  0.35705  1.0000
  H   H416      1.0  0.86465  0.00765  0.53694  1.0000
  H   H417      1.0  0.99674  0.47420  0.45082  1.0000
  H   H418      1.0  0.94120  0.27910  0.59964  1.0000
  H   H419      1.0  0.79042  0.22715  0.35989  1.0000
  C   C361      1.0  0.61977  0.41185  0.45074  1.0000
  H   H420      1.0  0.53728  0.41953  0.48791  1.0000
  H   H421      1.0  0.94512  0.05786  0.62394  1.0000
  H   H422      1.0  0.98037  0.00952  0.56135  1.0000
  H   H423      1.0  0.70833  0.44376  0.39823  1.0000
  H   H424      1.0  0.59040  0.39015  0.44829  1.0000
  H   H425      1.0  0.99447  0.07616  0.60019  1.0000
  N   N24       1.0  0.99652  0.00670  0.61774  1.0000
  H   H426      1.0  0.99633  0.06927  0.64793  1.0000
  S   S97       1.0  0.90468  0.50032  0.47190  1.0000
  S   S98       1.0  0.81713  0.22243  0.69819  1.0000
  S   S99       1.0  0.92883  0.46449  0.89501  1.0000
  H   H427      1.0  0.89903  0.25642  0.74109  1.0000
  Fe  Fe55      1.0  0.79790  0.44940  0.88925  1.0000
  S   S100      1.0  0.84235  0.40555  0.92330  1.0000
  S   S101      1.0  0.72261  0.43349  0.88320  1.0000
  Fe  Fe56      1.0  0.87839  0.46987  0.93932  1.0000
  H   H428      1.0  0.83808  0.21505  0.94844  1.0000
  Fe  Fe57      1.0  0.88762  0.40547  0.87535  1.0000
  S   S102      1.0  0.91291  0.33893  0.85410  1.0000
  C   C362      1.0  0.62852  0.34763  0.73764  1.0000
  S   S103      1.0  0.84188  0.44696  0.84050  1.0000
  C   C363      1.0  0.97948  0.04791  0.96422  1.0000
  H   H429      1.0  0.63468  0.43795  0.77887  1.0000
  H   H430      1.0  0.52039  0.06826  0.96690  1.0000
  C   C364      1.0  0.78440  0.20374  0.83419  1.0000
  Fe  Fe58      1.0  0.58668  0.21074  0.90045  1.0000
  S   S104      1.0  0.52422  0.23579  0.92740  1.0000
  S   S105      1.0  0.65718  0.23250  0.91699  1.0000
  H   H431      1.0  0.63315  0.48044  0.86986  1.0000
  S   S106      1.0  0.56422  0.23069  0.84577  1.0000
  S   S107      1.0  0.56147  0.13861  0.89481  1.0000
  H   H432      1.0  0.91163  0.40727  0.79859  1.0000
  H   H433      1.0  0.90464  0.40149  0.73264  1.0000
  N   N25       1.0  0.95765  0.12877  0.86389  1.0000
  H   H434      1.0  0.75902  0.27852  0.75153  1.0000
  H   H435      1.0  0.54635  0.41607  0.82105  1.0000
  C   C365      1.0  0.86569  0.15069  0.93341  1.0000
  C   C366      1.0  0.92391  0.15161  0.88669  1.0000
  C   C367      1.0  0.90674  0.07960  0.74984  1.0000
  C   C368      1.0  0.94453  0.08224  0.72763  1.0000
  H   H436      1.0  0.68736  0.38881  0.96404  1.0000
  H   H437      1.0  0.94486  0.10570  0.70542  1.0000
  C   C369      1.0  0.79505  0.19085  0.79947  1.0000
  C   C370      1.0  0.89632  0.12785  0.91160  1.0000
  H   H438      1.0  0.64350  0.36215  0.01217  1.0000
  C   C371      1.0  0.86158  0.19758  0.93119  1.0000
  H   H439      1.0  0.97016  0.46742  0.78192  1.0000
  C   C372      1.0  0.70448  0.37730  0.89165  1.0000
  C   C373      1.0  0.73559  0.34329  0.89985  1.0000
  C   C374      1.0  0.72060  0.29932  0.90802  1.0000
  C   C375      1.0  0.67439  0.28839  0.90695  1.0000
  C   C376      1.0  0.64310  0.32213  0.89827  1.0000
  C   C377      1.0  0.65810  0.36655  0.89097  1.0000
  H   H440      1.0  0.77132  0.35069  0.90003  1.0000
  H   H441      1.0  0.74501  0.27360  0.91506  1.0000
  H   H442      1.0  0.60731  0.31415  0.89777  1.0000
  H   H443      1.0  0.63361  0.39264  0.88523  1.0000
  C   C378      1.0  0.90855  0.33527  0.80731  1.0000
  C   C379      1.0  0.90532  0.29273  0.79094  1.0000
  C   C380      1.0  0.90131  0.28938  0.75358  1.0000
  C   C381      1.0  0.90097  0.32859  0.73250  1.0000
  C   C382      1.0  0.90448  0.37111  0.74886  1.0000
  C   C383      1.0  0.90809  0.37443  0.78622  1.0000
  H   H444      1.0  0.90567  0.26236  0.80714  1.0000
  C   C384      1.0  0.76481  0.39295  0.75994  1.0000
  H   H445      1.0  0.74997  0.41883  0.77802  1.0000
  H   H446      1.0  0.55481  0.42156  0.77364  1.0000
  H   H447      1.0  0.54376  0.31461  0.97637  1.0000
  C   C385      1.0  0.76083  0.17788  0.77550  1.0000
  C   C386      1.0  0.77181  0.33730  0.80617  1.0000
  C   C387      1.0  0.54787  0.44083  0.79856  1.0000
  H   H448      1.0  0.65535  0.47921  0.81009  1.0000
  H   H449      1.0  0.80232  0.39722  0.76101  1.0000
  H   H450      1.0  0.80938  0.34074  0.80542  1.0000
  C   C388      1.0  0.70486  0.19174  0.82109  1.0000
  C   C389      1.0  0.62833  0.32475  0.79952  1.0000
  H   H451      1.0  0.76469  0.30219  0.81547  1.0000
  H   H452      1.0  0.83018  0.18944  0.79127  1.0000
  H   H453      1.0  0.75756  0.32062  0.99408  1.0000
  H   H454      1.0  0.88566  0.25859  0.90590  1.0000
  C   C390      1.0  0.98211  0.05447  0.73427  1.0000
  H   H455      1.0  0.61030  0.35472  0.71292  1.0000
  H   H456      1.0  0.97369  0.12272  0.80764  1.0000
  C   C391      1.0  0.90684  0.04924  0.77875  1.0000
  H   H457      1.0  0.53011  0.08905  0.71829  1.0000
  N   N26       1.0  0.67750  0.16481  0.76069  1.0000
  C   C392      1.0  0.64165  0.19984  0.75947  1.0000
  C   C393      1.0  0.69276  0.15749  0.72331  1.0000
  C   C394      1.0  0.65752  0.12178  0.77378  1.0000
  C   C395      1.0  0.71446  0.17888  0.78533  1.0000
  C   C396      1.0  0.92577  0.08480  0.00394  1.0000
  H   H458      1.0  0.67067  0.19128  0.83128  1.0000
  C   C397      1.0  0.73944  0.20373  0.84503  1.0000
  S   S108      1.0  0.89884  0.48450  0.99676  1.0000
  H   H459      1.0  0.75457  0.40135  0.73204  1.0000
  H   H460      1.0  0.65574  0.23344  0.75166  1.0000
  C   C398      1.0  0.94447  0.02152  0.78540  1.0000
  H   H461      1.0  0.62409  0.20364  0.78544  1.0000
  H   H462      1.0  0.99512  0.44055  0.82017  1.0000
  Fe  Fe59      1.0  0.85739  0.15863  0.69351  1.0000
  H   H463      1.0  0.71648  0.12846  0.72127  1.0000
  H   H464      1.0  0.64185  0.12561  0.80061  1.0000
  H   H465      1.0  0.75998  0.36172  0.82674  1.0000
  H   H466      1.0  0.99409  0.10793  0.99506  1.0000
  H   H467      1.0  0.92069  0.06606  0.85732  1.0000
  H   H468      1.0  0.71194  0.43650  0.98690  1.0000
  Fe  Fe60      1.0  0.53290  0.16163  0.84177  1.0000
  H   H469      1.0  0.73134  0.21188  0.87248  1.0000
  C   C399      1.0  0.94653  0.01545  0.95559  1.0000
  C   C400      1.0  0.60488  0.33379  0.76788  1.0000
  C   C401      1.0  0.51114  0.06966  0.73772  1.0000
  H   H470      1.0  0.80720  0.31478  0.74459  1.0000
  S   S109      1.0  0.89570  0.32494  0.68581  1.0000
  H   H471      1.0  0.75847  0.32064  0.71685  1.0000
  N   N27       1.0  0.75076  0.34657  0.77070  1.0000
  H   H472      1.0  0.84548  0.13179  0.95259  1.0000
  H   H473      1.0  0.60978  0.31438  0.82313  1.0000
  H   H474      1.0  0.50596  0.45807  0.90781  1.0000
  H   H475      1.0  0.68356  0.09482  0.77602  1.0000
  N   N28       1.0  0.58255  0.47636  0.80528  1.0000
  C   C402      1.0  0.96885  0.08257  0.98835  1.0000
  C   C403      1.0  0.95135  0.14225  0.82586  1.0000
  H   H476      1.0  0.63015  0.10917  0.75563  1.0000
  H   H477      1.0  0.95939  0.17848  0.82101  1.0000
  C   C404      1.0  0.70072  0.34278  0.77055  1.0000
  C   C405      1.0  0.95485  0.07856  0.86537  1.0000
  H   H478      1.0  0.69144  0.32047  0.82620  1.0000
  H   H479      1.0  0.56832  0.32998  0.76676  1.0000
  C   C406      1.0  0.67564  0.35218  0.73889  1.0000
  H   H480      1.0  0.69233  0.36277  0.71461  1.0000
  C   C407      1.0  0.67553  0.32873  0.80096  1.0000
  S   S110      1.0  0.85946  0.11460  0.74289  1.0000
  C   C408      1.0  0.98217  0.02400  0.76310  1.0000
  H   H481      1.0  0.80701  0.38067  0.00306  1.0000
  C   C409      1.0  0.76955  0.31374  0.74483  1.0000
  H   H482      1.0  0.70954  0.18832  0.71229  1.0000
  H   H483      1.0  0.93989  0.22013  0.86808  1.0000
  H   H484      1.0  0.96299  0.06549  0.89248  1.0000
  H   H485      1.0  0.77179  0.16596  0.74973  1.0000
  C   C410      1.0  0.71564  0.39953  0.98195  1.0000
  C   C411      1.0  0.88829  0.22194  0.90725  1.0000
  H   H486      1.0  0.62994  0.42698  0.82558  1.0000
  C   C412      1.0  0.91918  0.19947  0.88545  1.0000
  H   H487      1.0  0.74721  0.39492  0.96643  1.0000
  C   C413      1.0  0.89280  0.05233  0.99551  1.0000
  H   H488      1.0  0.91580  0.13609  0.81688  1.0000
  H   H489      1.0  0.81108  0.21263  0.85300  1.0000
  H   H490      1.0  0.89808  0.09163  0.91521  1.0000
  H   H491      1.0  0.87748  0.04680  0.79582  1.0000
  H   H492      1.0  0.97989  0.06240  0.84734  1.0000
  S   S111      1.0  0.53528  0.43530  0.69561  1.0000
  S   S112      1.0  0.54109  0.13246  0.78627  1.0000
  H   H493      1.0  0.69829  0.30986  0.99089  1.0000
  H   H494      1.0  0.51344  0.45523  0.79517  1.0000
  H   H495      1.0  0.61430  0.19086  0.74001  1.0000
  H   H496      1.0  0.52884  0.00339  0.00885  1.0000
  C   C414      1.0  0.72501  0.32533  0.00826  1.0000
  H   H497      1.0  0.66398  0.14939  0.70496  1.0000
  C   C415      1.0  0.62761  0.45424  0.80510  1.0000
  C   C416      1.0  0.90322  0.01791  0.97100  1.0000
  C   C417      1.0  0.57226  0.49974  0.83932  1.0000
  C   C418      1.0  0.52737  0.34656  0.98193  1.0000
  C   C419      1.0  0.60134  0.49829  0.86980  1.0000
  C   C420      1.0  0.51088  0.08331  0.77368  1.0000
  H   H498      1.0  0.59179  0.49355  0.74940  1.0000
  C   C421      1.0  0.00115  0.46624  0.79894  1.0000
  H   H499      1.0  0.78051  0.53268  0.11907  1.0000
  H   H500      1.0  0.86770  0.89774  0.18674  1.0000
  H   H501      1.0  0.83361  0.67699  0.14385  1.0000
  C   C422      1.0  0.84931  0.64777  0.15793  1.0000
  C   C423      1.0  0.74706  0.95723  0.29681  1.0000
  H   H502      1.0  0.75865  0.63526  0.14875  1.0000
  C   C424      1.0  0.80250  0.95837  0.19188  1.0000
  H   H503      1.0  0.93724  0.92185  0.10795  1.0000
  C   C425      1.0  0.93959  0.54564  0.04239  1.0000
  C   C426      1.0  0.94437  0.81360  0.25980  1.0000
  N   N29       1.0  0.98442  0.97070  0.08578  1.0000
  S   S113      1.0  0.57886  0.51775  0.16405  1.0000
  H   H504      1.0  0.50215  0.65254  0.29808  1.0000
  H   H505      1.0  0.87200  0.92181  0.28622  1.0000
  C   C427      1.0  0.91967  0.57984  0.25753  1.0000
  C   C428      1.0  0.00025  0.53139  0.25361  1.0000
  H   H506      1.0  0.77886  0.51126  0.05598  1.0000
  S   S114      1.0  0.52914  0.52195  0.06205  1.0000
  S   S115      1.0  0.93616  0.85581  0.32424  1.0000
  H   H507      1.0  0.51465  0.69524  0.26520  1.0000
  H   H508      1.0  0.82186  0.87368  0.21231  1.0000
  H   H509      1.0  0.88845  0.59864  0.25936  1.0000
  C   C429      1.0  0.92489  0.54003  0.27745  1.0000
  S   S116      1.0  0.95401  0.71810  0.13148  1.0000
  H   H510      1.0  0.71238  0.96802  0.30052  1.0000
  C   C430      1.0  0.79724  0.54137  0.06425  1.0000
  H   H511      1.0  0.77823  0.62081  0.19309  1.0000
  C   C431      1.0  0.79851  0.55396  0.10031  1.0000
  C   C432      1.0  0.84584  0.61840  0.08523  1.0000
  H   H512      1.0  0.89745  0.52802  0.29393  1.0000
  C   C433      1.0  0.76598  0.95729  0.26258  1.0000
  C   C434      1.0  0.83694  0.93171  0.28801  1.0000
  C   C435      1.0  0.84773  0.56829  0.17062  1.0000
  C   C436      1.0  0.85012  0.89874  0.21301  1.0000
  H   H513      1.0  0.75856  0.57771  0.16389  1.0000
  H   H514      1.0  0.86603  0.64802  0.09132  1.0000
  C   C437      1.0  0.81174  0.94452  0.25715  1.0000
  C   C438      1.0  0.96545  0.62098  0.02545  1.0000
  C   C439      1.0  0.77808  0.60992  0.16455  1.0000
  S   S117      1.0  0.94552  0.64585  0.21141  1.0000
  C   C440      1.0  0.96528  0.51588  0.27580  1.0000
  C   C441      1.0  0.95449  0.59551  0.23539  1.0000
  H   H515      1.0  0.74419  0.96831  0.24100  1.0000
  C   C442      1.0  0.96256  0.89356  0.25978  1.0000
  C   C443      1.0  0.94888  0.85457  0.27830  1.0000
  H   H516      1.0  0.88546  0.64543  0.15001  1.0000
  H   H517      1.0  0.83762  0.92113  0.34502  1.0000
  C   C444      1.0  0.81759  0.93148  0.32202  1.0000
  H   H518      1.0  0.95047  0.77929  0.20928  1.0000
  N   N30       1.0  0.82462  0.60484  0.15047  1.0000
  C   C445      1.0  0.95957  0.58754  0.05158  1.0000
  H   H519      1.0  0.99331  0.87800  0.08669  1.0000
  H   H520      1.0  0.93349  0.78342  0.27387  1.0000
  C   C446      1.0  0.95415  0.81122  0.22319  1.0000
  C   C447      1.0  0.77279  0.94451  0.32645  1.0000
  H   H521      1.0  0.87481  0.88624  0.23310  1.0000
  C   C448      1.0  0.82291  0.59290  0.11198  1.0000
  H   H522      1.0  0.84988  0.57606  0.19975  1.0000
  N   N31       1.0  0.83336  0.94475  0.22149  1.0000
  H   H523      1.0  0.84985  0.65599  0.18704  1.0000
  H   H524      1.0  0.98412  0.60976  0.31689  1.0000
  C   C449      1.0  0.93804  0.95636  0.09602  1.0000
  C   C450      1.0  0.84398  0.60562  0.04922  1.0000
  H   H525      1.0  0.79027  0.99361  0.19532  1.0000
  H   H526      1.0  0.86230  0.62509  0.02933  1.0000
  H   H527      1.0  0.77263  0.93538  0.18980  1.0000
  H   H528      1.0  0.96551  0.92550  0.27373  1.0000
  C   C451      1.0  0.97137  0.89140  0.22283  1.0000
  H   H529      1.0  0.82980  0.53530  0.16805  1.0000
  C   C452      1.0  0.82009  0.56703  0.03880  1.0000
  H   H530      1.0  0.81971  0.95754  0.16547  1.0000
  C   C453      1.0  0.96783  0.85000  0.20461  1.0000
  H   H531      1.0  0.89909  0.96691  0.24096  1.0000
  H   H532      1.0  0.88301  0.56366  0.16098  1.0000
  C   C454      1.0  0.87205  0.97698  0.22182  1.0000
  H   H533      1.0  0.65432  0.50802  0.23064  1.0000
  H   H534      1.0  0.88837  0.97986  0.19512  1.0000
  H   H535      1.0  0.98174  0.92161  0.20858  1.0000
  H   H536      1.0  0.57858  0.99395  0.13651  1.0000
  C   C455      1.0  0.99484  0.57120  0.23328  1.0000
  S   S118      1.0  0.99134  0.67373  0.03533  1.0000
  H   H537      1.0  0.91491  0.95651  0.07234  1.0000
  S   S119      1.0  0.98122  0.84649  0.15889  1.0000
  C   C456      1.0  0.69717  0.50700  0.27765  1.0000
  C   C457      1.0  0.68850  0.50411  0.24070  1.0000
  H   H538      1.0  0.92345  0.97948  0.11645  1.0000
  S   S120      1.0  0.75074  0.50373  0.33769  1.0000
  H   H539      1.0  0.97037  0.59389  0.07883  1.0000
  H   H540      1.0  0.93481  0.52004  0.06276  1.0000
  Fe  Fe61      1.0  0.99359  0.67833  0.17223  1.0000
  H   H541      1.0  0.66955  0.51299  0.29589  1.0000
  C   C458      1.0  0.74126  0.50188  0.29107  1.0000
  C   C459      1.0  0.95920  0.51203  0.48976  1.0000
  S   S121      1.0  0.97375  0.56011  0.67762  1.0000
  H   H542      1.0  0.93242  0.60804  0.36124  1.0000
  H   H543      1.0  0.93215  0.55215  0.53265  1.0000
  Fe  Fe62      1.0  0.96010  0.96678  0.42794  1.0000
  H   H544      1.0  0.94459  0.65187  0.39319  1.0000
  H   H545      1.0  0.96828  0.50802  0.61043  1.0000
  S   S122      1.0  0.88173  0.51379  0.36938  1.0000
  Fe  Fe63      1.0  0.96383  0.91382  0.35690  1.0000
  C   C460      1.0  0.96255  0.53884  0.52068  1.0000
  S   S123      1.0  0.92236  0.97195  0.37584  1.0000
  H   H546      1.0  0.98027  0.53046  0.39855  1.0000
  S   S124      1.0  0.91887  0.97604  0.47870  1.0000
  C   C461      1.0  0.94809  0.61498  0.38782  1.0000
  H   H547      1.0  0.99240  0.94380  0.64673  1.0000
  N   N32       1.0  0.99624  0.60103  0.38962  1.0000
  H   H548      1.0  0.92703  0.59639  0.40776  1.0000
  H   H549      1.0  0.55349  0.97398  0.52798  1.0000
  H   H550      1.0  0.98925  0.58514  0.44583  1.0000
  H   H551      1.0  0.75799  0.94500  0.35290  1.0000
  H   H552      1.0  0.93503  0.99035  0.58870  1.0000
  H   H553      1.0  0.98511  0.54566  0.35253  1.0000
  S   S125      1.0  0.54349  0.50242  0.62588  1.0000
  H   H554      1.0  0.98103  0.95306  0.58021  1.0000
  C   C462      1.0  0.98100  0.97958  0.64888  1.0000
  H   H555      1.0  0.94344  0.97935  0.65114  1.0000
  C   C463      1.0  0.52451  0.99472  0.52154  1.0000
  S   S126      1.0  0.99565  0.90281  0.41098  1.0000
  C   C464      1.0  0.99931  0.55255  0.37963  1.0000
  C   C465      1.0  0.97243  0.98906  0.58559  1.0000
  H   H556      1.0  0.61327  0.50558  0.52984  1.0000
  H   H557      1.0  0.99398  0.99283  0.67482  1.0000
  C   C466      1.0  0.54999  0.54498  0.90390  1.0000
  C   C467      1.0  0.95130  0.61216  0.99019  1.0000
  C   C468      1.0  0.93134  0.57033  0.98098  1.0000
  H   H558      1.0  0.82004  0.55653  0.01098  1.0000
  H   H559      1.0  0.92015  0.56410  0.95379  1.0000
  H   H560      1.0  0.99365  0.70278  0.83055  1.0000
  C   C469      1.0  0.95667  0.56314  0.72247  1.0000
  C   C470      1.0  0.92929  0.56501  0.79435  1.0000
  C   C471      1.0  0.90780  0.53576  0.77019  1.0000
  C   C472      1.0  0.92129  0.53508  0.73423  1.0000
  H   H561      1.0  0.98146  0.61560  0.80118  1.0000
  S   S127      1.0  0.91241  0.56783  0.83926  1.0000
  H   H562      1.0  0.97554  0.62224  0.90936  1.0000
  H   H563      1.0  0.54160  0.56247  0.92848  1.0000
  H   H564      1.0  0.60485  0.53840  0.78040  1.0000
  C   C473      1.0  0.97875  0.59173  0.74679  1.0000
  H   H565      1.0  0.95515  0.63813  0.97006  1.0000
  Fe  Fe64      1.0  0.87914  0.50657  0.86416  1.0000
  C   C474      1.0  0.96475  0.59296  0.78260  1.0000
  C   C475      1.0  0.53149  0.52444  0.84288  1.0000
  H   H566      1.0  0.50765  0.52689  0.82097  1.0000
  H   H567      1.0  0.54737  0.52341  0.77018  1.0000
  C   C476      1.0  0.52061  0.54669  0.87465  1.0000
  C   C477      1.0  0.92532  0.53687  0.00709  1.0000
  H   H568      1.0  0.96532  0.64850  0.86740  1.0000
  C   C478      1.0  0.58163  0.50929  0.77518  1.0000
  H   H569      1.0  0.95436  0.98846  0.93713  1.0000
  H   H570      1.0  0.87779  0.99280  0.96418  1.0000
  H   H571      1.0  0.88030  0.51431  0.77908  1.0000
  H   H572      1.0  0.94386  0.99736  0.80719  1.0000
  H   H573      1.0  0.98641  0.72311  0.88998  1.0000
  C   C479      1.0  0.59016  0.52072  0.90150  1.0000
  S   S128      1.0  0.82991  0.51433  0.90944  1.0000
  C   C480      1.0  0.99238  0.63329  0.88426  1.0000
  H   H574      1.0  0.90427  0.51277  0.71550  1.0000
  H   H575      1.0  0.61305  0.51953  0.92431  1.0000
  H   H576      1.0  0.99741  0.70122  0.93369  1.0000
