data_image0
_chemical_formula_structural       HCH2C2H2NC2HC2HSHCHC2H2CHCH2C2H2C3HCH5CHCH4C2H2NC2H4C2H2CH2S2FeSHSC3H2CH2CHC3HC2HCHNHCHCHCFeH2SH3C2HFeCH3SHCHCH3C3H3C2H2CHC4HNHNHCHSCH2FeSCSC2SHCFeSHC2HC3HS2H2CHC2H5C2H2C3H2CSH2CNCS2C2SC3H4CHCH7CHSCHSCHC2HSHC2H2FeHNC2HSCHNC7H7CHCH3FeSC3HCH7C3HCHSCHCHC4H3SHCH2CSCHC2HFeNCS2HCH3S2HNHCH6C3H3C2S2HCFeSHFeSCFeSFeS2FeSHFeSHFeSFeSHSC2HC6H5CH2CH6SHCHC2FeC5HCH6CH3CSH2C2HC3SC2SH2C2H3SH2CHC3H6CH2CNH2C7HCFeCNCH3C3H5CH2CHSHNH5C2SHC3H3CHC3FeS2FeS2FeSFeHSCFeHFeC2H2S2FeSHFeSHFeSFeS2CFeSFeH2CFeHS2CSH9C2NH2CH2C2SH3C3S2C2H2CH2CFeC7H4C2SC2H2C3H2CH3CH8CH2CHC2SC2H3CHCSHCH3CH2C2SHCSC2H3NCH2C3H2CH4NC9H11CHCNCHC8HNH3CH7C2HCH2FeCHCHC2HC3HC2H2SH3NCHC2H2CHC2FeHC4H3CH2SH2CNC2HC3H6CH2NC2S2C5H3CHCSCH4CH3CHCS2HSCFeHFeCHCHSCFeSHCHS2HSFeSH2CFeSCFeCFeSHCFeHS2HC3HCH4C2HCH2C5H3C2HSC2HCH3CH2SHSNH2FeNHCH2SCHC3HSH5NC4H8CHNHCHC2H6CHCNC5HC3HSH2C3H2C3H2FeSC2H2C2FeC2H2CHSCHCHC2SH3SHSCH2CH3CHCH2NH3CHC2SHC2HC3HCH2SHFeHC4HCHCHCH3CHFe2H5CHCHCHC2H4CHCH2SNHCH3C2H3CHCH2CHCH4CH2C2HC2FeSFeSFe2H2S2FeHFeHCFeHS2FeS2FeCSC5HC2NS2CSHCSH4SC2HC3HCSCSHCH2CHCHC3H3CH2SH2CHFeCSHSCH2FeHC2H3SH2CHCFeNC9H14CFeCH2FeCH2FeHSCH3CHCH3SC4H2C3H2NSHC5HNCH2CH2CHC2SC4HSHSHCFeH2C2SHC4H4CSFeSHFeS2FeCFeSCSFeS2FeS2FeCFeCS2C2HC4H3CH2C5HC4HNCH2C6H6C2H4C2H5C2H4CH3CHCH4NH2CH2CH4CNC3HC2HSH4C3H2CHC2H4SC2H7NC4NC2H2CSC2H2SCHCH4CH2SC2SFeS2FeSCFeSFeS2CFeSHFeS2FeSFeHS2HC2HC3HC6H4C2H2CH4CHC3HCH2CH3C2H4CHC2NCH5SC2NH2CH2NHC6HC2H5SH4C2HCHC2SCSH3C3H2C2HSHCHCH3CHNH2CHC4H3CHCSFeSC2SFeSH2C2S2HFeCSCHCHSH2FeCH3SH3C2HS2HFeSC2HS2H3C3H2SC2H2CH3C2SCFeCHSCHC2HNHFeCHC3HFeHCHC2HCH3CNHCHCNC3H4CH2CFeH4FeCHC3NSC3H3CHC2H2C2HCHSHC2HC2HC2HCFeC2HCH3SHCH7SCH2C2H4C2HFeSCSH4Fe2SHSNSFe2SCSFeSFe2HFeSCH2FeSH2CSFeHFeCH2CS2HC3HCHCH3C3H2CSC3FeH2CH2CHSHCHC2HCH3C2HCN2SH4CHSCFeC4HNC9H12CHCHCH2CSHCHC2SH7SH3CHSCHCNHCHSCH2CH2CH4C3HC4H2CFeS2HCHSC3HCH3C2HC2H2C2HC2FeCHCHSC2FeH6CSCHCH5SC3H4C5HCH3C2NSC2HC2H2NCH2C3H3SHFeH2CFeH3CHCHSHC2H2CH2NC3HSC3H2CHFeSHFeSHFeCFeSHSFeHFeSHFeS3FeSHFeSCFeCFeSCSHFeSHSFeSFeH3CH3CH5C3HC7H3CHCHC6H6CHCNH3C2H3CFeCHCH2SC3HNC3HCNHSC3HC2H2CH3CHCH2C7SC3HC6SCS2NSCH2CHNHCHCH3CH4CHC2H2CHCH2C2H4C2SCH2NC3H2CSC8H2NCH2CH7C2H2C2NH2CH4CH2CH3CHC2SH2S2H4SH8C2H8CHC3HC3H5CHCH2SH3CH2C4H8FeCFeS2FeHFeNS2FeSCFeSCFeHFeS3HC6H4CHSC2HSH2CHC5H2NHCHC2H3CHC6H2CH3C2HC2HSCHCHC4HCH2SHCHC2HCNH4SHC2H7CH3SC2HSCHCHC3HC3H3C3HNCH2S2C3FeHSFeSHC2SHSC2HFeHCSHFeCH2SCH2CHCH2C3HSHCH4NCH2C2H4C3SC2FeC2H2SH2NH3SHCHFeH3CHCHC2H2C2HCH3FeCH2FeCHCHCHSH3C3H3CHCHC2SCHSHC2H2N2CHCS2C2H2CH2C3HNCH2CH3CH3FeHC2HSC5HCH2CHNH2CH5C2HCHCH4CFeC2SHSHFeCHCH2CH5CH3CHCNC6H5CS2HCHC3H3C2H
_chemical_formula_sum              "H1296 C1080 N72 S288 Fe144"
_cell_length_a       80.4945
_cell_length_b       80.0404
_cell_length_c       37.0083
_cell_angle_alpha    91.6349
_cell_angle_beta     91.4061
_cell_angle_gamma    116.219

_space_group_name_H-M_alt    "P 1"
_space_group_IT_number       1

loop_
  _space_group_symop_operation_xyz
  'x, y, z'

loop_
  _atom_site_type_symbol
  _atom_site_label
  _atom_site_symmetry_multiplicity
  _atom_site_fract_x
  _atom_site_fract_y
  _atom_site_fract_z
  _atom_site_occupancy
  H   H1        1.0  0.39665  0.02921  0.27034  1.0000
  C   C1        1.0  0.48912  0.20305  0.36074  1.0000
  H   H2        1.0  0.44524  0.02019  0.27187  1.0000
  H   H3        1.0  0.43341  0.02205  0.99380  1.0000
  C   C2        1.0  0.44470  0.05460  0.47800  1.0000
  C   C3        1.0  0.48702  0.21906  0.35303  1.0000
  H   H4        1.0  0.44814  0.08763  0.02945  1.0000
  H   H5        1.0  0.44319  0.06357  0.24105  1.0000
  N   N1        1.0  0.42278  0.02790  0.26860  1.0000
  C   C4        1.0  0.48453  0.20718  0.42388  1.0000
  C   C5        1.0  0.43676  0.05227  0.22106  1.0000
  H   H6        1.0  0.39942  0.01394  0.30237  1.0000
  C   C6        1.0  0.41842  0.01989  0.20163  1.0000
  C   C7        1.0  0.48353  0.22960  0.38084  1.0000
  H   H7        1.0  0.44709  0.05045  0.29390  1.0000
  S   S1        1.0  0.41594  0.02191  0.06287  1.0000
  H   H8        1.0  0.41028  0.00528  0.20653  1.0000
  C   C8        1.0  0.43042  0.04006  0.03464  1.0000
  H   H9        1.0  0.47133  0.23550  0.03118  1.0000
  C   C9        1.0  0.44504  0.07343  0.02152  1.0000
  C   C10       1.0  0.42111  0.02478  0.16555  1.0000
  H   H10       1.0  0.42885  0.03872  0.32395  1.0000
  H   H11       1.0  0.43374  0.04685  0.12899  1.0000
  C   C11       1.0  0.43009  0.01421  0.27602  1.0000
  H   H12       1.0  0.48381  0.20273  0.45152  1.0000
  C   C12       1.0  0.47413  0.21107  0.01158  1.0000
  H   H13       1.0  0.43727  0.04667  0.45377  1.0000
  H   H14       1.0  0.42977  0.06188  0.06924  1.0000
  C   C13       1.0  0.42608  0.03349  0.23059  1.0000
  C   C14       1.0  0.43174  0.04361  0.29582  1.0000
  H   H15       1.0  0.44769  0.07132  0.17794  1.0000
  H   H16       1.0  0.48833  0.22296  0.32520  1.0000
  C   C15       1.0  0.43948  0.05696  0.18478  1.0000
  C   C16       1.0  0.43468  0.05876  0.04421  1.0000
  C   C17       1.0  0.40258  0.01919  0.27451  1.0000
  H   H17       1.0  0.39475  0.00701  0.25572  1.0000
  C   C18       1.0  0.43165  0.04325  0.15712  1.0000
  H   H18       1.0  0.48977  0.18488  0.40210  1.0000
  H   H19       1.0  0.42644  0.05422  0.29280  1.0000
  H   H20       1.0  0.48556  0.06982  0.00279  1.0000
  H   H21       1.0  0.47082  0.24013  0.31930  1.0000
  H   H22       1.0  0.41501  0.01418  0.14385  1.0000
  C   C19       1.0  0.43672  0.03630  0.00190  1.0000
  H   H23       1.0  0.44314  0.12779  0.02687  1.0000
  C   C20       1.0  0.48084  0.23016  0.02238  1.0000
  H   H24       1.0  0.47980  0.23043  0.43893  1.0000
  H   H25       1.0  0.45945  0.20198  0.01226  1.0000
  H   H26       1.0  0.45887  0.99866  0.01546  1.0000
  H   H27       1.0  0.42345  0.00152  0.25805  1.0000
  C   C21       1.0  0.48227  0.22308  0.41641  1.0000
  C   C22       1.0  0.48794  0.19716  0.39610  1.0000
  H   H28       1.0  0.40831  0.10982  0.01963  1.0000
  H   H29       1.0  0.45284  0.08136  0.45440  1.0000
  N   N2        1.0  0.48205  0.24707  0.37425  1.0000
  C   C23       1.0  0.45358  0.07431  0.47845  1.0000
  C   C24       1.0  0.48943  0.00260  0.44311  1.0000
  H   H30       1.0  0.46428  0.24555  0.41854  1.0000
  H   H31       1.0  0.49033  0.04326  0.00922  1.0000
  H   H32       1.0  0.42755  0.00933  0.30420  1.0000
  H   H33       1.0  0.45232  0.23349  0.37709  1.0000
  C   C25       1.0  0.48618  0.20367  0.99993  1.0000
  C   C26       1.0  0.44398  0.12574  0.99722  1.0000
  H   H34       1.0  0.42264  0.14228  0.01456  1.0000
  H   H35       1.0  0.49186  0.19523  0.33923  1.0000
  C   C27       1.0  0.46454  0.24604  0.38852  1.0000
  H   H36       1.0  0.44167  0.08714  0.67123  1.0000
  H   H37       1.0  0.43615  0.11149  0.83609  1.0000
  S   S2        1.0  0.43306  0.02050  0.51140  1.0000
  S   S3        1.0  0.47868  0.15221  0.57842  1.0000
  Fe  Fe1       1.0  0.48015  0.11898  0.95614  1.0000
  S   S4        1.0  0.46236  0.08714  0.95654  1.0000
  H   H38       1.0  0.46122  0.10731  0.58459  1.0000
  S   S5        1.0  0.47615  0.13962  0.92045  1.0000
  C   C28       1.0  0.42608  0.08126  0.56106  1.0000
  C   C29       1.0  0.41625  0.06479  0.54014  1.0000
  C   C30       1.0  0.42991  0.10375  0.92573  1.0000
  H   H39       1.0  0.47574  0.20579  0.54392  1.0000
  H   H40       1.0  0.45057  0.04759  0.95279  1.0000
  C   C31       1.0  0.42702  0.08130  0.59945  1.0000
  H   H41       1.0  0.46586  0.14000  0.75296  1.0000
  H   H42       1.0  0.47871  0.14193  0.81569  1.0000
  C   C32       1.0  0.48040  0.14362  0.75734  1.0000
  H   H43       1.0  0.44504  0.11055  0.67566  1.0000
  C   C33       1.0  0.40787  0.04735  0.59423  1.0000
  C   C34       1.0  0.43658  0.09698  0.66058  1.0000
  C   C35       1.0  0.40732  0.04784  0.55664  1.0000
  H   H44       1.0  0.45618  0.13822  0.98835  1.0000
  C   C36       1.0  0.46398  0.07557  0.54061  1.0000
  C   C37       1.0  0.45473  0.05592  0.54046  1.0000
  H   H45       1.0  0.47152  0.08343  0.56473  1.0000
  C   C38       1.0  0.44496  0.04527  0.50924  1.0000
  H   H46       1.0  0.43397  0.08833  0.88105  1.0000
  N   N3        1.0  0.43859  0.09873  0.62085  1.0000
  H   H47       1.0  0.43361  0.09384  0.54671  1.0000
  C   C39       1.0  0.41752  0.06378  0.61551  1.0000
  H   H48       1.0  0.41758  0.06231  0.64439  1.0000
  C   C40       1.0  0.44649  0.05088  0.97863  1.0000
  H   H49       1.0  0.48977  0.99967  0.55089  1.0000
  C   C41       1.0  0.47781  0.00486  0.97201  1.0000
  Fe  Fe2       1.0  0.49062  0.16113  0.96644  1.0000
  H   H50       1.0  0.47370  0.00924  0.50829  1.0000
  H   H51       1.0  0.43741  0.11809  0.58210  1.0000
  S   S6        1.0  0.47282  0.10978  0.50952  1.0000
  H   H52       1.0  0.47130  0.03006  0.51493  1.0000
  H   H53       1.0  0.42192  0.09238  0.66790  1.0000
  H   H54       1.0  0.46443  0.22895  0.52685  1.0000
  C   C42       1.0  0.43388  0.11396  0.61036  1.0000
  C   C43       1.0  0.48487  0.21835  0.53105  1.0000
  H   H55       1.0  0.43387  0.14019  0.85552  1.0000
  Fe  Fe3       1.0  0.48967  0.13372  0.55087  1.0000
  C   C44       1.0  0.42867  0.12012  0.93806  1.0000
  H   H56       1.0  0.46240  0.09320  0.62051  1.0000
  H   H57       1.0  0.45656  0.01942  0.57360  1.0000
  H   H58       1.0  0.45806  0.99825  0.56255  1.0000
  S   S7        1.0  0.48178  0.14549  0.68277  1.0000
  H   H59       1.0  0.44179  0.12695  0.62751  1.0000
  C   C45       1.0  0.48063  0.02355  0.52116  1.0000
  H   H60       1.0  0.41883  0.10980  0.61303  1.0000
  C   C46       1.0  0.45829  0.10432  0.61352  1.0000
  H   H61       1.0  0.46759  0.11714  0.62960  1.0000
  H   H62       1.0  0.40031  0.03502  0.54019  1.0000
  H   H63       1.0  0.45500  0.04895  0.56488  1.0000
  C   C47       1.0  0.43376  0.11373  0.86412  1.0000
  C   C48       1.0  0.45074  0.06955  0.98817  1.0000
  C   C49       1.0  0.46563  0.01226  0.57649  1.0000
  H   H64       1.0  0.40100  0.03406  0.60683  1.0000
  H   H65       1.0  0.42973  0.14624  0.91829  1.0000
  H   H66       1.0  0.46688  0.00996  0.60568  1.0000
  C   C50       1.0  0.47850  0.23159  0.52138  1.0000
  C   C51       1.0  0.48766  0.14472  0.79304  1.0000
  H   H67       1.0  0.43653  0.15329  0.97786  1.0000
  H   H68       1.0  0.47328  0.01432  0.95964  1.0000
  C   C52       1.0  0.46309  0.08495  0.50985  1.0000
  H   H69       1.0  0.42956  0.09343  0.94432  1.0000
  C   C53       1.0  0.43247  0.10068  0.88938  1.0000
  C   C54       1.0  0.43002  0.13316  0.91155  1.0000
  C   C55       1.0  0.43247  0.12989  0.87516  1.0000
  C   C56       1.0  0.49179  0.14727  0.72734  1.0000
  H   H70       1.0  0.41616  0.06505  0.51085  1.0000
  N   N4        1.0  0.48389  0.02322  0.56076  1.0000
  H   H71       1.0  0.39797  0.10401  0.97451  1.0000
  N   N5        1.0  0.42690  0.12341  0.97708  1.0000
  H   H72       1.0  0.41169  0.13966  0.97054  1.0000
  C   C57       1.0  0.42424  0.14036  0.98515  1.0000
  H   H73       1.0  0.48370  0.05179  0.94744  1.0000
  S   S8        1.0  0.47679  0.17934  0.98667  1.0000
  C   C58       1.0  0.41085  0.10723  0.99104  1.0000
  H   H74       1.0  0.41299  0.09440  0.99093  1.0000
  H   H75       1.0  0.44698  0.11353  0.99301  1.0000
  Fe  Fe4       1.0  0.01265  0.44050  0.45014  1.0000
  S   S9        1.0  0.00958  0.45199  0.39684  1.0000
  C   C59       1.0  0.09921  0.45651  0.00616  1.0000
  S   S10       1.0  0.99554  0.41031  0.43182  1.0000
  C   C60       1.0  0.44199  0.36793  0.08631  1.0000
  C   C61       1.0  0.49168  0.30881  0.22372  1.0000
  S   S11       1.0  0.38853  0.42781  0.99669  1.0000
  H   H76       1.0  0.06928  0.45969  0.16633  1.0000
  C   C62       1.0  0.05547  0.45128  0.15263  1.0000
  Fe  Fe5       1.0  0.01948  0.43334  0.05303  1.0000
  S   S12       1.0  0.04801  0.43319  0.05057  1.0000
  H   H77       1.0  0.40102  0.34924  0.44556  1.0000
  C   C63       1.0  0.48239  0.25143  0.33540  1.0000
  C   C64       1.0  0.45912  0.34104  0.01035  1.0000
  H   H78       1.0  0.27948  0.48741  0.42543  1.0000
  C   C65       1.0  0.47396  0.35757  0.02359  1.0000
  C   C66       1.0  0.21875  0.49310  0.42596  1.0000
  C   C67       1.0  0.25748  0.49242  0.02963  1.0000
  H   H79       1.0  0.45611  0.48561  0.05713  1.0000
  S   S13       1.0  0.48025  0.29997  0.42025  1.0000
  S   S14       1.0  0.47429  0.28866  0.07797  1.0000
  H   H80       1.0  0.46815  0.37953  0.45659  1.0000
  H   H81       1.0  0.01876  0.42883  0.15558  1.0000
  C   C68       1.0  0.42954  0.33472  0.09929  1.0000
  H   H82       1.0  0.99956  0.39634  0.25478  1.0000
  C   C69       1.0  0.04936  0.42399  0.26737  1.0000
  C   C70       1.0  0.02778  0.42195  0.14928  1.0000
  H   H83       1.0  0.36197  0.49732  0.12138  1.0000
  H   H84       1.0  0.36096  0.47649  0.10166  1.0000
  H   H85       1.0  0.38538  0.48074  0.19001  1.0000
  H   H86       1.0  0.05746  0.45108  0.12294  1.0000
  H   H87       1.0  0.45123  0.40515  0.42193  1.0000
  C   C71       1.0  0.40017  0.45849  0.09029  1.0000
  C   C72       1.0  0.25083  0.49355  0.39474  1.0000
  H   H88       1.0  0.04698  0.45893  0.15672  1.0000
  H   H89       1.0  0.48101  0.26456  0.33157  1.0000
  C   C73       1.0  0.42482  0.38767  0.44374  1.0000
  C   C74       1.0  0.07010  0.45760  0.45978  1.0000
  C   C75       1.0  0.47320  0.37473  0.02059  1.0000
  H   H90       1.0  0.02685  0.45111  0.27068  1.0000
  H   H91       1.0  0.44978  0.48097  0.46499  1.0000
  C   C76       1.0  0.37573  0.36242  0.45079  1.0000
  S   S15       1.0  0.01178  0.49199  0.04885  1.0000
  H   H92       1.0  0.35870  0.43067  0.03331  1.0000
  H   H93       1.0  0.08663  0.44083  0.05292  1.0000
  C   C77       1.0  0.99441  0.40657  0.25055  1.0000
  N   N6        1.0  0.43184  0.31817  0.11031  1.0000
  C   C78       1.0  0.46420  0.35440  0.48283  1.0000
  S   S16       1.0  0.37181  0.49402  0.48902  1.0000
  S   S17       1.0  0.45945  0.31907  0.01355  1.0000
  C   C79       1.0  0.42764  0.48648  0.10816  1.0000
  C   C80       1.0  0.04060  0.43409  0.28192  1.0000
  S   S18       1.0  0.48290  0.31071  0.18001  1.0000
  C   C81       1.0  0.44471  0.35270  0.09723  1.0000
  C   C82       1.0  0.45766  0.37563  0.00426  1.0000
  C   C83       1.0  0.39895  0.35376  0.47310  1.0000
  H   H94       1.0  0.28828  0.48396  0.38368  1.0000
  H   H95       1.0  0.42244  0.37754  0.06721  1.0000
  H   H96       1.0  0.03016  0.45014  0.20553  1.0000
  H   H97       1.0  0.26008  0.49745  0.32347  1.0000
  C   C84       1.0  0.26406  0.48826  0.33981  1.0000
  H   H98       1.0  0.39940  0.32002  0.09193  1.0000
  C   C85       1.0  0.05172  0.42345  0.23006  1.0000
  H   H99       1.0  0.27655  0.48829  0.32723  1.0000
  H   H100      1.0  0.45888  0.35534  0.10307  1.0000
  H   H101      1.0  0.36606  0.46600  0.16047  1.0000
  H   H102      1.0  0.09458  0.48766  0.04636  1.0000
  H   H103      1.0  0.09545  0.45963  0.43738  1.0000
  H   H104      1.0  0.06158  0.45046  0.43594  1.0000
  H   H105      1.0  0.48468  0.38740  0.03133  1.0000
  C   C86       1.0  0.36639  0.44384  0.02088  1.0000
  H   H106      1.0  0.45890  0.33226  0.13753  1.0000
  S   S19       1.0  0.00604  0.44296  0.00980  1.0000
  C   C87       1.0  0.37529  0.48075  0.16891  1.0000
  H   H107      1.0  0.06179  0.47894  0.04995  1.0000
  S   S20       1.0  0.99565  0.41006  0.32501  1.0000
  C   C88       1.0  0.27549  0.48289  0.39648  1.0000
  H   H108      1.0  0.42855  0.37629  0.44492  1.0000
  C   C89       1.0  0.40761  0.38625  0.45580  1.0000
  C   C90       1.0  0.03424  0.44381  0.25930  1.0000
  H   H109      1.0  0.48606  0.35716  0.03609  1.0000
  S   S21       1.0  0.45694  0.39752  0.00421  1.0000
  H   H110      1.0  0.49063  0.44448  0.03232  1.0000
  C   C91       1.0  0.42430  0.36576  0.07680  1.0000
  C   C92       1.0  0.08432  0.44715  0.02907  1.0000
  H   H111      1.0  0.45376  0.38143  0.08396  1.0000
  H   H112      1.0  0.34856  0.45575  0.04022  1.0000
  Fe  Fe6       1.0  0.00451  0.46180  0.05405  1.0000
  H   H113      1.0  0.26545  0.46787  0.39473  1.0000
  N   N7        1.0  0.38494  0.49191  0.13799  1.0000
  C   C93       1.0  0.39700  0.48425  0.12212  1.0000
  C   C94       1.0  0.48397  0.31275  0.25469  1.0000
  H   H114      1.0  0.39382  0.44464  0.07719  1.0000
  S   S22       1.0  0.01928  0.45357  0.09641  1.0000
  C   C95       1.0  0.36666  0.44069  0.49242  1.0000
  H   H115      1.0  0.36633  0.48640  0.18196  1.0000
  N   N8        1.0  0.04663  0.43216  0.16636  1.0000
  C   C96       1.0  0.24266  0.48252  0.42476  1.0000
  C   C97       1.0  0.22676  0.48223  0.43974  1.0000
  C   C98       1.0  0.40911  0.34844  0.07910  1.0000
  C   C99       1.0  0.40437  0.40220  0.45246  1.0000
  C   C100      1.0  0.04518  0.43306  0.20614  1.0000
  C   C101      1.0  0.41162  0.33315  0.09047  1.0000
  C   C102      1.0  0.46222  0.37092  0.47928  1.0000
  H   H116      1.0  0.05400  0.41622  0.28517  1.0000
  H   H117      1.0  0.05116  0.40754  0.16095  1.0000
  H   H118      1.0  0.30093  0.49169  0.26439  1.0000
  H   H119      1.0  0.02073  0.40752  0.15893  1.0000
  H   H120      1.0  0.40763  0.29695  0.08106  1.0000
  H   H121      1.0  0.39535  0.34685  0.07169  1.0000
  H   H122      1.0  0.07209  0.42937  0.16634  1.0000
  C   C103      1.0  0.42297  0.30277  0.08241  1.0000
  H   H123      1.0  0.05840  0.41515  0.22066  1.0000
  C   C104      1.0  0.03628  0.44318  0.22197  1.0000
  H   H124      1.0  0.03540  0.48815  0.45829  1.0000
  H   H125      1.0  0.45898  0.32660  0.08976  1.0000
  H   H126      1.0  0.41506  0.43088  0.43811  1.0000
  Fe  Fe7       1.0  0.48948  0.32811  0.44956  1.0000
  S   S23       1.0  0.32097  0.48897  0.43815  1.0000
  C   C105      1.0  0.05774  0.42250  0.15421  1.0000
  C   C106      1.0  0.45152  0.32176  0.11516  1.0000
  C   C107      1.0  0.42289  0.31192  0.14517  1.0000
  H   H127      1.0  0.22098  0.47404  0.46308  1.0000
  C   C108      1.0  0.41771  0.41873  0.43916  1.0000
  H   H128      1.0  0.42902  0.32326  0.16662  1.0000
  H   H129      1.0  0.42470  0.29971  0.15475  1.0000
  H   H130      1.0  0.40775  0.30768  0.14314  1.0000
  H   H131      1.0  0.42623  0.29086  0.08751  1.0000
  H   H132      1.0  0.25268  0.47384  0.33657  1.0000
  H   H133      1.0  0.42778  0.46259  0.07990  1.0000
  H   H134      1.0  0.47286  0.31677  0.25148  1.0000
  C   C109      1.0  0.43807  0.40427  0.43032  1.0000
  C   C110      1.0  0.37021  0.47509  0.00856  1.0000
  C   C111      1.0  0.08935  0.46284  0.46069  1.0000
  H   H135      1.0  0.00053  0.47972  0.47581  1.0000
  C   C112      1.0  0.38912  0.46604  0.10551  1.0000
  H   H136      1.0  0.03819  0.43394  0.31068  1.0000
  S   S24       1.0  0.47588  0.34796  0.44905  1.0000
  C   C113      1.0  0.06647  0.44563  0.02110  1.0000
  H   H137      1.0  0.37431  0.45745  0.10400  1.0000
  C   C114      1.0  0.46756  0.48911  0.03958  1.0000
  H   H138      1.0  0.35665  0.42677  0.48360  1.0000
  C   C115      1.0  0.37077  0.49098  0.11055  1.0000
  C   C116      1.0  0.41670  0.49426  0.12318  1.0000
  C   C117      1.0  0.06189  0.46125  0.48996  1.0000
  C   C118      1.0  0.49056  0.31164  0.28987  1.0000
  H   H139      1.0  0.48455  0.31486  0.31331  1.0000
  H   H140      1.0  0.44499  0.43274  0.41850  1.0000
  H   H141      1.0  0.05894  0.42261  0.12419  1.0000
  S   S25       1.0  0.27439  0.49266  0.06240  1.0000
  H   H142      1.0  0.11270  0.45721  0.01248  1.0000
  C   C119      1.0  0.41936  0.46866  0.09159  1.0000
  H   H143      1.0  0.42788  0.30766  0.05504  1.0000
  H   H144      1.0  0.02820  0.42089  0.11926  1.0000
  C   C120      1.0  0.46168  0.48534  0.48356  1.0000
  S   S26       1.0  0.32230  0.48701  0.08779  1.0000
  C   C121      1.0  0.43457  0.41980  0.42826  1.0000
  H   H145      1.0  0.45291  0.30899  0.12232  1.0000
  C   C122      1.0  0.38184  0.44634  0.00053  1.0000
  C   C123      1.0  0.46445  0.48139  0.00425  1.0000
  H   H146      1.0  0.37757  0.35985  0.42176  1.0000
  Fe  Fe8       1.0  0.48142  0.31455  0.04623  1.0000
  N   N9        1.0  0.26788  0.49455  0.37853  1.0000
  C   C124      1.0  0.36064  0.45810  0.02500  1.0000
  S   S27       1.0  0.36334  0.49350  0.01158  1.0000
  S   S28       1.0  0.12493  0.47805  0.49113  1.0000
  H   H147      1.0  0.35015  0.45375  0.47101  1.0000
  C   C125      1.0  0.07110  0.49289  0.04223  1.0000
  H   H148      1.0  0.45052  0.47225  0.99447  1.0000
  H   H149      1.0  0.46255  0.25857  0.38207  1.0000
  H   H150      1.0  0.24853  0.47435  0.43786  1.0000
  S   S29       1.0  0.03762  0.45478  0.49091  1.0000
  S   S30       1.0  0.48078  0.26365  0.49062  1.0000
  H   H151      1.0  0.36966  0.37248  0.45211  1.0000
  N   N10       1.0  0.39359  0.36929  0.47192  1.0000
  H   H152      1.0  0.39164  0.40222  0.46104  1.0000
  C   C126      1.0  0.22794  0.49382  0.01685  1.0000
  H   H153      1.0  0.38821  0.34128  0.48555  1.0000
  H   H154      1.0  0.44266  0.49423  0.10971  1.0000
  H   H155      1.0  0.41188  0.35776  0.49007  1.0000
  H   H156      1.0  0.36512  0.34917  0.46115  1.0000
  H   H157      1.0  0.20687  0.49340  0.43871  1.0000
  H   H158      1.0  0.21603  0.49518  0.02662  1.0000
  C   C127      1.0  0.00449  0.49641  0.00680  1.0000
  C   C128      1.0  0.24188  0.49434  0.04157  1.0000
  C   C129      1.0  0.36293  0.45598  0.48518  1.0000
  H   H159      1.0  0.99336  0.40326  0.19221  1.0000
  H   H160      1.0  0.12258  0.49520  0.02240  1.0000
  H   H161      1.0  0.24047  0.49608  0.07024  1.0000
  C   C130      1.0  0.10073  0.47197  0.49155  1.0000
  C   C131      1.0  0.44360  0.34192  0.99385  1.0000
  S   S31       1.0  0.11425  0.47529  0.94301  1.0000
  S   S32       1.0  0.16398  0.48363  0.90138  1.0000
  H   H162      1.0  0.05021  0.45276  0.98314  1.0000
  C   C132      1.0  0.12435  0.48545  0.70854  1.0000
  Fe  Fe9       1.0  0.41137  0.42351  0.55354  1.0000
  S   S33       1.0  0.42995  0.44644  0.59257  1.0000
  H   H163      1.0  0.40385  0.47804  0.66112  1.0000
  Fe  Fe10      1.0  0.43023  0.39856  0.57370  1.0000
  S   S34       1.0  0.44978  0.41968  0.61520  1.0000
  C   C133      1.0  0.12852  0.47333  0.83888  1.0000
  Fe  Fe11      1.0  0.42529  0.42405  0.63227  1.0000
  S   S35       1.0  0.41886  0.43198  0.68813  1.0000
  Fe  Fe12      1.0  0.45257  0.44002  0.57266  1.0000
  S   S36       1.0  0.48044  0.46277  0.56157  1.0000
  S   S37       1.0  0.40518  0.40125  0.59422  1.0000
  Fe  Fe13      1.0  0.41166  0.42542  0.96472  1.0000
  S   S38       1.0  0.42282  0.43950  0.91267  1.0000
  H   H164      1.0  0.47195  0.33424  0.93945  1.0000
  Fe  Fe14      1.0  0.44029  0.40880  0.97004  1.0000
  S   S39       1.0  0.45342  0.42249  0.91944  1.0000
  H   H165      1.0  0.45262  0.38501  0.92697  1.0000
  Fe  Fe15      1.0  0.45058  0.44741  0.94032  1.0000
  S   S40       1.0  0.47563  0.47506  0.93846  1.0000
  Fe  Fe16      1.0  0.42456  0.41300  0.89588  1.0000
  S   S41       1.0  0.41974  0.39739  0.84111  1.0000
  H   H166      1.0  0.49141  0.35934  0.55573  1.0000
  S   S42       1.0  0.41119  0.39785  0.94596  1.0000
  C   C134      1.0  0.49042  0.38049  0.88912  1.0000
  C   C135      1.0  0.39156  0.46344  0.98448  1.0000
  H   H167      1.0  0.47470  0.40532  0.88047  1.0000
  C   C136      1.0  0.42039  0.42260  0.73034  1.0000
  C   C137      1.0  0.42127  0.40560  0.73274  1.0000
  C   C138      1.0  0.42121  0.39813  0.76686  1.0000
  C   C139      1.0  0.42059  0.40771  0.79890  1.0000
  C   C140      1.0  0.42015  0.42492  0.79652  1.0000
  C   C141      1.0  0.41986  0.43221  0.76240  1.0000
  H   H168      1.0  0.42157  0.39800  0.70831  1.0000
  H   H169      1.0  0.42147  0.38478  0.76838  1.0000
  H   H170      1.0  0.41960  0.43241  0.82090  1.0000
  H   H171      1.0  0.41915  0.44535  0.76087  1.0000
  H   H172      1.0  0.45511  0.36118  0.82377  1.0000
  C   C142      1.0  0.99537  0.48192  0.98082  1.0000
  H   H173      1.0  0.11624  0.49517  0.87279  1.0000
  H   H174      1.0  0.43057  0.35951  0.97921  1.0000
  C   C143      1.0  0.25892  0.48999  0.99241  1.0000
  H   H175      1.0  0.32967  0.44379  0.57209  1.0000
  H   H176      1.0  0.47486  0.39482  0.83641  1.0000
  H   H177      1.0  0.22070  0.48134  0.66005  1.0000
  H   H178      1.0  0.99324  0.46796  0.98603  1.0000
  H   H179      1.0  0.08590  0.46982  0.81682  1.0000
  H   H180      1.0  0.25218  0.49504  0.65847  1.0000
  S   S43       1.0  0.17034  0.48791  0.55598  1.0000
  H   H181      1.0  0.14310  0.48342  0.83417  1.0000
  C   C144      1.0  0.39071  0.37388  0.50965  1.0000
  H   H182      1.0  0.37380  0.45689  0.68677  1.0000
  C   C145      1.0  0.46614  0.39444  0.85953  1.0000
  C   C146      1.0  0.17048  0.49600  0.77177  1.0000
  Fe  Fe17      1.0  0.14899  0.49596  0.53117  1.0000
  C   C147      1.0  0.40316  0.46606  0.64412  1.0000
  C   C148      1.0  0.22911  0.49082  0.97972  1.0000
  C   C149      1.0  0.44654  0.34867  0.53742  1.0000
  C   C150      1.0  0.49009  0.24814  0.50470  1.0000
  C   C151      1.0  0.45266  0.37640  0.50487  1.0000
  H   H183      1.0  0.45779  0.33063  0.51534  1.0000
  C   C152      1.0  0.37265  0.45915  0.61466  1.0000
  H   H184      1.0  0.24577  0.48649  0.93923  1.0000
  H   H185      1.0  0.43597  0.36644  0.83243  1.0000
  H   H186      1.0  0.25476  0.48490  0.53350  1.0000
  H   H187      1.0  0.19795  0.49415  0.61696  1.0000
  H   H188      1.0  0.22766  0.49179  0.53867  1.0000
  H   H189      1.0  0.45560  0.39869  0.84866  1.0000
  C   C153      1.0  0.34359  0.45337  0.58165  1.0000
  H   H190      1.0  0.07612  0.46876  0.94239  1.0000
  H   H191      1.0  0.47876  0.40920  0.55748  1.0000
  H   H192      1.0  0.00446  0.49412  0.53716  1.0000
  C   C154      1.0  0.09258  0.47594  0.52149  1.0000
  S   S44       1.0  0.43467  0.41880  0.53003  1.0000
  H   H193      1.0  0.06715  0.47333  0.54436  1.0000
  H   H194      1.0  0.10105  0.48280  0.54554  1.0000
  C   C155      1.0  0.99316  0.49310  0.51937  1.0000
  C   C156      1.0  0.44283  0.35911  0.99086  1.0000
  H   H195      1.0  0.44020  0.33981  0.55960  1.0000
  C   C157      1.0  0.11525  0.46636  0.76076  1.0000
  C   C158      1.0  0.35106  0.47188  0.57201  1.0000
  C   C159      1.0  0.38315  0.44326  0.51100  1.0000
  S   S45       1.0  0.16927  0.49144  0.66133  1.0000
  C   C160      1.0  0.11839  0.46814  0.72375  1.0000
  C   C161      1.0  0.09622  0.46585  0.82962  1.0000
  S   S46       1.0  0.38716  0.42348  0.51958  1.0000
  H   H196      1.0  0.12701  0.47172  0.86861  1.0000
  H   H197      1.0  0.34772  0.43259  0.60957  1.0000
  C   C162      1.0  0.07330  0.47052  0.52072  1.0000
  C   C163      1.0  0.47089  0.36977  0.89086  1.0000
  H   H198      1.0  0.45003  0.34377  0.91115  1.0000
  H   H199      1.0  0.09362  0.46447  0.85916  1.0000
  H   H200      1.0  0.43798  0.34795  0.85510  1.0000
  S   S47       1.0  0.43063  0.37038  0.56448  1.0000
  H   H201      1.0  0.38333  0.44033  0.68811  1.0000
  H   H202      1.0  0.40874  0.46363  0.53633  1.0000
  C   C164      1.0  0.11817  0.48201  0.78381  1.0000
  H   H203      1.0  0.38555  0.38468  0.51138  1.0000
  C   C165      1.0  0.44450  0.36514  0.53380  1.0000
  C   C166      1.0  0.45652  0.34344  0.51236  1.0000
  C   C167      1.0  0.35412  0.44708  0.60290  1.0000
  H   H204      1.0  0.37060  0.42396  0.61120  1.0000
  H   H205      1.0  0.00875  0.43230  0.54712  1.0000
  H   H206      1.0  0.45133  0.38916  0.50188  1.0000
  H   H207      1.0  0.48587  0.38317  0.54337  1.0000
  H   H208      1.0  0.43559  0.36210  0.91247  1.0000
  H   H209      1.0  0.11096  0.45270  0.77135  1.0000
  C   C168      1.0  0.44469  0.37613  0.90295  1.0000
  H   H210      1.0  0.03121  0.46266  0.57408  1.0000
  H   H211      1.0  0.21371  0.48654  0.59745  1.0000
  C   C169      1.0  0.47709  0.34713  0.92517  1.0000
  N   N11       1.0  0.11542  0.47983  0.82316  1.0000
  H   H212      1.0  0.12638  0.45958  0.82710  1.0000
  H   H213      1.0  0.40391  0.37926  0.52616  1.0000
  C   C170      1.0  0.09640  0.46430  0.97452  1.0000
  C   C171      1.0  0.24473  0.48895  0.96779  1.0000
  C   C172      1.0  0.47802  0.47860  0.53271  1.0000
  C   C173      1.0  0.37502  0.44544  0.67105  1.0000
  C   C174      1.0  0.38572  0.47765  0.98837  1.0000
  C   C175      1.0  0.46464  0.35277  0.90897  1.0000
  C   C176      1.0  0.01026  0.47095  0.59013  1.0000
  H   H214      1.0  0.36092  0.43367  0.66736  1.0000
  C   C177      1.0  0.37975  0.47806  0.60476  1.0000
  Fe  Fe18      1.0  0.14624  0.48984  0.94142  1.0000
  C   C178      1.0  0.39594  0.46136  0.52222  1.0000
  N   N12       1.0  0.38371  0.45195  0.63606  1.0000
  C   C179      1.0  0.25481  0.49686  0.52054  1.0000
  H   H215      1.0  0.12736  0.48690  0.68005  1.0000
  H   H216      1.0  0.34308  0.47665  0.55470  1.0000
  H   H217      1.0  0.27066  0.48828  0.98265  1.0000
  C   C180      1.0  0.38442  0.43600  0.61595  1.0000
  C   C181      1.0  0.07858  0.46286  0.96670  1.0000
  C   C182      1.0  0.47920  0.48616  0.98119  1.0000
  H   H218      1.0  0.02021  0.48446  0.60128  1.0000
  H   H219      1.0  0.40343  0.46560  0.96873  1.0000
  H   H220      1.0  0.43510  0.38170  0.89261  1.0000
  H   H221      1.0  0.41065  0.47123  0.61882  1.0000
  H   H222      1.0  0.16966  0.48713  0.79383  1.0000
  C   C183      1.0  0.16981  0.48946  0.73562  1.0000
  H   H223      1.0  0.39037  0.44021  0.58907  1.0000
  H   H224      1.0  0.39307  0.43056  0.63082  1.0000
  C   C184      1.0  0.44614  0.36219  0.84530  1.0000
  H   H225      1.0  0.40219  0.49049  0.52401  1.0000
  S   S48       1.0  0.21123  0.48843  0.94720  1.0000
  H   H226      1.0  0.38051  0.36146  0.52317  1.0000
  N   N13       1.0  0.45735  0.37566  0.87487  1.0000
  H   H227      1.0  0.41123  0.46013  0.65955  1.0000
  H   H228      1.0  0.16836  0.47551  0.73029  1.0000
  H   H229      1.0  0.11662  0.45614  0.70681  1.0000
  H   H230      1.0  0.39319  0.49062  0.97524  1.0000
  H   H231      1.0  0.09328  0.45168  0.81882  1.0000
  C   C185      1.0  0.37571  0.47407  0.49643  1.0000
  C   C186      1.0  0.01650  0.45872  0.57499  1.0000
  S   S49       1.0  0.43957  0.43473  0.99300  1.0000
  H   H232      1.0  0.43201  0.32920  0.98365  1.0000
  C   C187      1.0  0.46238  0.47312  0.50939  1.0000
  C   C188      1.0  0.06378  0.45376  0.98986  1.0000
  C   C189      1.0  0.39222  0.47662  0.51495  1.0000
  H   H233      1.0  0.45105  0.45932  0.51055  1.0000
  H   H234      1.0  0.05952  0.49712  0.50692  1.0000
  H   H235      1.0  0.39366  0.48830  0.61218  1.0000
  C   C190      1.0  0.22093  0.49483  0.66900  1.0000
  H   H236      1.0  0.20672  0.49131  0.67839  1.0000
  C   C191      1.0  0.36900  0.48422  0.58382  1.0000
  C   C192      1.0  0.00380  0.44155  0.55989  1.0000
  C   C193      1.0  0.11857  0.49737  0.84336  1.0000
  Fe  Fe19      1.0  0.16179  0.66696  0.05038  1.0000
  S   S50       1.0  0.16474  0.64208  0.07071  1.0000
  S   S51       1.0  0.19023  0.69305  0.05185  1.0000
  Fe  Fe20      1.0  0.11845  0.64404  0.04685  1.0000
  S   S52       1.0  0.11955  0.61850  0.06754  1.0000
  S   S53       1.0  0.09023  0.64425  0.03684  1.0000
  Fe  Fe21      1.0  0.14159  0.63809  0.10769  1.0000
  S   S54       1.0  0.14432  0.62983  0.16553  1.0000
  Fe  Fe22      1.0  0.14257  0.62511  0.02908  1.0000
  H   H237      1.0  0.12566  0.50541  0.06795  1.0000
  S   S55       1.0  0.13941  0.66362  0.08958  1.0000
  C   C194      1.0  0.34682  0.51489  0.28751  1.0000
  Fe  Fe23      1.0  0.33820  0.51393  0.12059  1.0000
  H   H238      1.0  0.23679  0.56658  0.04137  1.0000
  Fe  Fe24      1.0  0.34055  0.53753  0.05414  1.0000
  C   C195      1.0  0.41561  0.55320  0.05356  1.0000
  C   C196      1.0  0.29461  0.54115  0.01802  1.0000
  H   H239      1.0  0.39938  0.50906  0.42469  1.0000
  H   H240      1.0  0.07052  0.60475  0.00556  1.0000
  S   S56       1.0  0.32089  0.52742  0.09928  1.0000
  S   S57       1.0  0.35939  0.52666  0.07809  1.0000
  Fe  Fe25      1.0  0.12066  0.63313  0.45305  1.0000
  S   S58       1.0  0.12591  0.61966  0.40303  1.0000
  H   H241      1.0  0.24666  0.72116  0.46076  1.0000
  Fe  Fe26      1.0  0.16059  0.66701  0.45303  1.0000
  S   S59       1.0  0.16794  0.65544  0.40303  1.0000
  H   H242      1.0  0.29722  0.57940  0.06417  1.0000
  Fe  Fe27      1.0  0.13911  0.64849  0.38104  1.0000
  S   S60       1.0  0.13271  0.65595  0.32441  1.0000
  Fe  Fe28      1.0  0.15411  0.62764  0.42892  1.0000
  S   S61       1.0  0.16756  0.60800  0.42851  1.0000
  S   S62       1.0  0.13226  0.66179  0.42996  1.0000
  C   C197      1.0  0.48533  0.50194  0.05160  1.0000
  Fe  Fe29      1.0  0.33145  0.50930  0.39318  1.0000
  S   S63       1.0  0.43067  0.62600  0.01995  1.0000
  Fe  Fe30      1.0  0.35526  0.54124  0.44741  1.0000
  H   H243      1.0  0.08880  0.62016  0.29127  1.0000
  H   H244      1.0  0.04957  0.55860  0.43589  1.0000
  C   C198      1.0  0.47592  0.74620  0.37768  1.0000
  Fe  Fe31      1.0  0.31683  0.51184  0.46813  1.0000
  H   H245      1.0  0.18640  0.70773  0.12365  1.0000
  S   S64       1.0  0.36092  0.52042  0.41442  1.0000
  S   S65       1.0  0.32645  0.53165  0.42261  1.0000
  C   C199      1.0  0.47305  0.72984  0.39491  1.0000
  S   S66       1.0  0.31818  0.49968  0.33588  1.0000
  H   H246      1.0  0.43844  0.58063  0.05759  1.0000
  H   H247      1.0  0.10465  0.60778  0.24986  1.0000
  H   H248      1.0  0.28180  0.53268  0.46941  1.0000
  H   H249      1.0  0.42064  0.50210  0.45861  1.0000
  H   H250      1.0  0.24950  0.74606  0.02383  1.0000
  H   H251      1.0  0.41739  0.51349  0.02602  1.0000
  H   H252      1.0  0.01785  0.53317  0.42178  1.0000
  H   H253      1.0  0.18201  0.66489  0.16375  1.0000
  H   H254      1.0  0.02717  0.63355  0.00332  1.0000
  C   C200      1.0  0.48891  0.61500  0.01069  1.0000
  C   C201      1.0  0.06106  0.61101  0.00520  1.0000
  N   N14       1.0  0.11698  0.53197  0.47333  1.0000
  H   H255      1.0  0.14420  0.51366  0.03719  1.0000
  H   H256      1.0  0.48427  0.58027  0.46994  1.0000
  C   C202      1.0  0.17630  0.58187  0.02179  1.0000
  H   H257      1.0  0.19085  0.72178  0.16431  1.0000
  H   H258      1.0  0.40514  0.51331  0.17419  1.0000
  C   C203      1.0  0.43408  0.56598  0.05056  1.0000
  C   C204      1.0  0.37464  0.59720  0.00382  1.0000
  S   S67       1.0  0.45241  0.71683  0.99742  1.0000
  H   H259      1.0  0.22725  0.72261  0.06336  1.0000
  H   H260      1.0  0.05562  0.56904  0.48071  1.0000
  H   H261      1.0  0.05918  0.65157  0.02752  1.0000
  C   C205      1.0  0.05472  0.63734  0.01755  1.0000
  C   C206      1.0  0.47669  0.50294  0.48096  1.0000
  C   C207      1.0  0.25463  0.52763  0.48768  1.0000
  S   S68       1.0  0.46653  0.67524  0.01198  1.0000
  S   S69       1.0  0.32502  0.51221  0.01759  1.0000
  C   C208      1.0  0.07570  0.52309  0.02295  1.0000
  C   C209      1.0  0.38456  0.58053  0.04598  1.0000
  H   H262      1.0  0.10321  0.54234  0.01162  1.0000
  H   H263      1.0  0.38133  0.56903  0.06352  1.0000
  C   C210      1.0  0.04335  0.60878  0.46905  1.0000
  H   H264      1.0  0.06998  0.53262  0.01598  1.0000
  H   H265      1.0  0.41053  0.60594  0.45573  1.0000
  C   C211      1.0  0.06256  0.61447  0.46591  1.0000
  Fe  Fe32      1.0  0.30584  0.50139  0.06354  1.0000
  C   C212      1.0  0.17788  0.67548  0.15346  1.0000
  C   C213      1.0  0.13660  0.64888  0.28056  1.0000
  C   C214      1.0  0.14315  0.63549  0.27534  1.0000
  C   C215      1.0  0.14563  0.63007  0.24001  1.0000
  C   C216      1.0  0.14175  0.63802  0.20942  1.0000
  C   C217      1.0  0.13556  0.65170  0.21464  1.0000
  C   C218      1.0  0.13287  0.65696  0.24995  1.0000
  H   H266      1.0  0.14611  0.62917  0.29853  1.0000
  H   H267      1.0  0.15045  0.61950  0.23639  1.0000
  H   H268      1.0  0.13258  0.65806  0.19161  1.0000
  H   H269      1.0  0.12786  0.66738  0.25368  1.0000
  C   C219      1.0  0.04378  0.56139  0.46109  1.0000
  C   C220      1.0  0.42948  0.51714  0.46585  1.0000
  S   S70       1.0  0.47664  0.51756  0.44661  1.0000
  C   C221      1.0  0.46020  0.72320  0.42185  1.0000
  C   C222      1.0  0.43443  0.52542  0.40359  1.0000
  H   H270      1.0  0.10054  0.55118  0.43886  1.0000
  H   H271      1.0  0.40270  0.52088  0.12935  1.0000
  C   C223      1.0  0.39307  0.61092  0.00166  1.0000
  C   C224      1.0  0.40229  0.60408  0.47930  1.0000
  C   C225      1.0  0.18687  0.68009  0.23287  1.0000
  H   H272      1.0  0.40503  0.53207  0.41057  1.0000
  H   H273      1.0  0.44892  0.52715  0.40648  1.0000
  C   C226      1.0  0.28250  0.51408  0.38111  1.0000
  H   H274      1.0  0.30778  0.54225  0.03061  1.0000
  H   H275      1.0  0.30058  0.73046  0.46511  1.0000
  H   H276      1.0  0.16272  0.66998  0.15695  1.0000
  C   C227      1.0  0.40726  0.60950  0.02189  1.0000
  H   H277      1.0  0.25473  0.53965  0.47488  1.0000
  H   H278      1.0  0.14116  0.55313  0.45054  1.0000
  H   H279      1.0  0.14874  0.54418  0.04686  1.0000
  H   H280      1.0  0.12949  0.53912  0.07553  1.0000
  H   H281      1.0  0.39559  0.52452  0.04707  1.0000
  H   H282      1.0  0.30317  0.57797  0.01799  1.0000
  H   H283      1.0  0.06950  0.62157  0.44228  1.0000
  H   H284      1.0  0.18169  0.58149  0.44231  1.0000
  C   C228      1.0  0.17591  0.70373  0.22820  1.0000
  H   H285      1.0  0.09183  0.51877  0.43952  1.0000
  H   H286      1.0  0.27859  0.52373  0.36618  1.0000
  C   C229      1.0  0.00678  0.51438  0.00008  1.0000
  H   H287      1.0  0.16791  0.70310  0.15340  1.0000
  C   C230      1.0  0.10253  0.51626  0.02955  1.0000
  C   C231      1.0  0.06394  0.50531  0.03365  1.0000
  S   S71       1.0  0.09676  0.61673  0.49038  1.0000
  C   C232      1.0  0.12906  0.53970  0.44234  1.0000
  C   C233      1.0  0.09971  0.56919  0.48136  1.0000
  H   H288      1.0  0.40568  0.55788  0.06311  1.0000
  H   H289      1.0  0.24743  0.51285  0.35813  1.0000
  H   H290      1.0  0.42404  0.50806  0.13572  1.0000
  C   C234      1.0  0.06730  0.62961  0.01836  1.0000
  H   H291      1.0  0.44041  0.72781  0.45315  1.0000
  C   C235      1.0  0.04039  0.50174  0.47219  1.0000
  S   S72       1.0  0.14066  0.65001  0.00618  1.0000
  H   H292      1.0  0.21212  0.70181  0.14002  1.0000
  C   C236      1.0  0.28308  0.54321  0.07626  1.0000
  H   H293      1.0  0.41385  0.59327  0.05995  1.0000
  H   H294      1.0  0.44388  0.51881  0.46924  1.0000
  H   H295      1.0  0.01385  0.52563  0.02010  1.0000
  C   C237      1.0  0.17510  0.68940  0.28534  1.0000
  H   H296      1.0  0.46287  0.52983  0.06829  1.0000
  H   H297      1.0  0.19244  0.67109  0.22175  1.0000
  C   C238      1.0  0.18305  0.70727  0.15281  1.0000
  C   C239      1.0  0.12893  0.50847  0.03914  1.0000
  S   S73       1.0  0.37990  0.56982  0.44777  1.0000
  H   H298      1.0  0.18472  0.66834  0.28535  1.0000
  C   C240      1.0  0.01371  0.53593  0.44893  1.0000
  S   S74       1.0  0.18538  0.55434  0.99762  1.0000
  C   C241      1.0  0.13358  0.54009  0.04688  1.0000
  C   C242      1.0  0.20821  0.70022  0.16890  1.0000
  H   H299      1.0  0.02193  0.50878  0.44214  1.0000
  H   H300      1.0  0.04919  0.50107  0.03493  1.0000
  H   H301      1.0  0.22048  0.65588  0.03231  1.0000
  N   N15       1.0  0.45556  0.53518  0.01489  1.0000
  C   C243      1.0  0.32774  0.50521  0.29222  1.0000
  H   H302      1.0  0.19642  0.63994  0.03497  1.0000
  H   H303      1.0  0.12172  0.54239  0.41913  1.0000
  C   C244      1.0  0.24202  0.50412  0.38083  1.0000
  C   C245      1.0  0.27003  0.52364  0.48433  1.0000
  C   C246      1.0  0.03645  0.62706  0.00368  1.0000
  H   H304      1.0  0.21281  0.69012  0.18005  1.0000
  H   H305      1.0  0.21639  0.71390  0.18361  1.0000
  C   C247      1.0  0.17507  0.58302  0.46643  1.0000
  H   H306      1.0  0.43419  0.53497  0.38249  1.0000
  H   H307      1.0  0.43878  0.73979  0.03569  1.0000
  H   H308      1.0  0.38082  0.54346  0.00367  1.0000
  H   H309      1.0  0.27807  0.55076  0.09536  1.0000
  N   N16       1.0  0.08128  0.62370  0.14663  1.0000
  C   C248      1.0  0.06726  0.62993  0.13437  1.0000
  C   C249      1.0  0.09968  0.63787  0.13646  1.0000
  C   C250      1.0  0.07702  0.60586  0.12643  1.0000
  C   C251      1.0  0.08189  0.62145  0.18617  1.0000
  C   C252      1.0  0.09331  0.61387  0.20143  1.0000
  C   C253      1.0  0.07263  0.62810  0.21079  1.0000
  C   C254      1.0  0.09539  0.61308  0.23885  1.0000
  C   C255      1.0  0.07499  0.62741  0.24825  1.0000
  C   C256      1.0  0.08645  0.62006  0.26223  1.0000
  H   H310      1.0  0.07058  0.64418  0.14536  1.0000
  H   H311      1.0  0.06677  0.63081  0.10430  1.0000
  H   H312      1.0  0.05309  0.62006  0.14205  1.0000
  H   H313      1.0  0.10358  0.65143  0.15140  1.0000
  H   H314      1.0  0.09988  0.64041  0.10712  1.0000
  H   H315      1.0  0.11078  0.63353  0.14241  1.0000
  H   H316      1.0  0.06389  0.59445  0.13526  1.0000
  H   H317      1.0  0.07551  0.60705  0.09666  1.0000
  H   H318      1.0  0.08819  0.60138  0.12984  1.0000
  H   H319      1.0  0.10146  0.60928  0.18468  1.0000
  H   H320      1.0  0.06383  0.63429  0.20188  1.0000
  C   C257      1.0  0.17366  0.56839  0.99421  1.0000
  H   H321      1.0  0.06823  0.63299  0.26667  1.0000
  C   C258      1.0  0.30864  0.72920  0.48885  1.0000
  N   N17       1.0  0.42765  0.52936  0.43820  1.0000
  C   C259      1.0  0.10363  0.55495  0.46734  1.0000
  H   H322      1.0  0.45839  0.71082  0.43591  1.0000
  C   C260      1.0  0.42273  0.52829  0.03216  1.0000
  C   C261      1.0  0.43888  0.54920  0.44983  1.0000
  C   C262      1.0  0.45831  0.55631  0.45646  1.0000
  C   C263      1.0  0.43118  0.56209  0.45385  1.0000
  C   C264      1.0  0.46938  0.57512  0.46592  1.0000
  C   C265      1.0  0.44240  0.58089  0.46346  1.0000
  C   C266      1.0  0.46147  0.58740  0.46935  1.0000
  C   C267      1.0  0.40998  0.53441  0.04456  1.0000
  H   H323      1.0  0.48013  0.53377  0.03558  1.0000
  N   N18       1.0  0.28662  0.55138  0.04015  1.0000
  H   H324      1.0  0.29581  0.54347  0.08916  1.0000
  H   H325      1.0  0.42587  0.51082  0.39313  1.0000
  H   H326      1.0  0.35629  0.51957  0.31094  1.0000
  C   C268      1.0  0.35372  0.51835  0.25232  1.0000
  H   H327      1.0  0.44147  0.50573  0.02466  1.0000
  H   H328      1.0  0.48371  0.61520  0.11577  1.0000
  H   H329      1.0  0.46522  0.54745  0.45368  1.0000
  H   H330      1.0  0.41658  0.55815  0.44928  1.0000
  H   H331      1.0  0.29559  0.51532  0.36938  1.0000
  H   H332      1.0  0.09079  0.50888  0.48284  1.0000
  H   H333      1.0  0.31457  0.57208  0.05419  1.0000
  C   C269      1.0  0.34168  0.51244  0.22134  1.0000
  C   C270      1.0  0.18264  0.67848  0.26941  1.0000
  H   H334      1.0  0.47538  0.60375  0.01467  1.0000
  C   C271      1.0  0.46943  0.53807  0.04444  1.0000
  H   H335      1.0  0.21361  0.69805  0.45071  1.0000
  H   H336      1.0  0.17282  0.71366  0.21398  1.0000
  Fe  Fe33      1.0  0.35041  0.50204  0.46178  1.0000
  C   C272      1.0  0.22338  0.72263  0.03518  1.0000
  H   H337      1.0  0.20778  0.65515  0.46508  1.0000
  C   C273      1.0  0.17175  0.70198  0.26482  1.0000
  H   H338      1.0  0.27244  0.52839  0.07420  1.0000
  C   C274      1.0  0.16659  0.59280  0.02029  1.0000
  C   C275      1.0  0.21746  0.70893  0.47169  1.0000
  H   H339      1.0  0.13119  0.51530  0.48599  1.0000
  C   C276      1.0  0.23487  0.54811  0.99669  1.0000
  C   C277      1.0  0.20573  0.70947  0.02166  1.0000
  C   C278      1.0  0.38591  0.58755  0.48210  1.0000
  H   H340      1.0  0.17136  0.68772  0.31347  1.0000
  C   C279      1.0  0.40759  0.52414  0.43251  1.0000
  C   C280      1.0  0.40293  0.59428  0.04401  1.0000
  H   H341      1.0  0.00257  0.52273  0.45831  1.0000
  H   H342      1.0  0.19260  0.66477  0.47730  1.0000
  S   S75       1.0  0.34719  0.56483  0.02761  1.0000
  H   H343      1.0  0.47022  0.60204  0.47610  1.0000
  H   H344      1.0  0.38569  0.51718  0.16218  1.0000
  H   H345      1.0  0.40151  0.52656  0.45764  1.0000
  N   N19       1.0  0.18805  0.69402  0.17228  1.0000
  C   C281      1.0  0.37036  0.58199  0.02601  1.0000
  H   H346      1.0  0.22388  0.64100  0.48689  1.0000
  C   C282      1.0  0.26913  0.55043  0.02424  1.0000
  C   C283      1.0  0.24346  0.55915  0.02767  1.0000
  H   H347      1.0  0.18578  0.58377  0.04450  1.0000
  H   H348      1.0  0.43627  0.59051  0.46566  1.0000
  C   C284      1.0  0.09998  0.51537  0.46018  1.0000
  H   H349      1.0  0.03568  0.61159  0.44762  1.0000
  C   C285      1.0  0.03832  0.53122  0.48246  1.0000
  C   C286      1.0  0.18357  0.69272  0.21103  1.0000
  Fe  Fe34      1.0  0.34292  0.50036  0.04428  1.0000
  H   H350      1.0  0.16867  0.60313  0.04163  1.0000
  C   C287      1.0  0.09471  0.52852  0.02077  1.0000
  C   C288      1.0  0.22632  0.50397  0.39647  1.0000
  C   C289      1.0  0.16696  0.59536  0.46721  1.0000
  C   C290      1.0  0.39520  0.51167  0.15138  1.0000
  H   H351      1.0  0.28524  0.52600  0.01550  1.0000
  H   H352      1.0  0.18028  0.67607  0.12393  1.0000
  H   H353      1.0  0.47702  0.55293  0.05397  1.0000
  C   C291      1.0  0.32258  0.50294  0.22605  1.0000
  H   H354      1.0  0.16559  0.71019  0.27739  1.0000
  H   H355      1.0  0.36851  0.52573  0.24914  1.0000
  S   S76       1.0  0.35135  0.51664  0.17761  1.0000
  H   H356      1.0  0.46122  0.57040  0.03743  1.0000
  H   H357      1.0  0.20399  0.66479  0.03792  1.0000
  C   C292      1.0  0.44697  0.56000  0.03849  1.0000
  N   N20       1.0  0.12263  0.52220  0.02606  1.0000
  C   C293      1.0  0.19677  0.65364  0.48397  1.0000
  C   C294      1.0  0.20621  0.65344  0.02400  1.0000
  H   H358      1.0  0.13197  0.55199  0.03529  1.0000
  C   C295      1.0  0.44165  0.54103  0.02820  1.0000
  C   C296      1.0  0.23611  0.73601  0.01275  1.0000
  C   C297      1.0  0.11193  0.54621  0.48936  1.0000
  H   H359      1.0  0.31553  0.72047  0.48003  1.0000
  H   H360      1.0  0.22012  0.51254  0.38611  1.0000
  H   H361      1.0  0.00731  0.54561  0.44504  1.0000
  H   H362      1.0  0.47144  0.63303  0.08169  1.0000
  H   H363      1.0  0.28564  0.51936  0.40986  1.0000
  H   H364      1.0  0.48100  0.72237  0.38776  1.0000
  C   C298      1.0  0.26032  0.56033  0.04134  1.0000
  H   H365      1.0  0.26625  0.56878  0.06585  1.0000
  H   H366      1.0  0.03779  0.57117  0.45471  1.0000
  N   N21       1.0  0.02974  0.54387  0.47544  1.0000
  C   C299      1.0  0.48621  0.63891  0.08834  1.0000
  C   C300      1.0  0.46330  0.74114  0.01086  1.0000
  S   S77       1.0  0.14839  0.63947  0.47990  1.0000
  S   S78       1.0  0.17975  0.69328  0.48818  1.0000
  C   C301      1.0  0.03268  0.51378  0.46335  1.0000
  C   C302      1.0  0.45003  0.73276  0.43148  1.0000
  C   C303      1.0  0.30091  0.57106  0.04433  1.0000
  C   C304      1.0  0.49022  0.63190  0.99773  1.0000
  C   C305      1.0  0.23626  0.72212  0.47748  1.0000
  H   H367      1.0  0.10333  0.50442  0.44769  1.0000
  H   H368      1.0  0.09418  0.57633  0.46379  1.0000
  H   H369      1.0  0.13456  0.53004  0.43169  1.0000
  C   C306      1.0  0.31570  0.49927  0.26122  1.0000
  H   H370      1.0  0.18475  0.63995  0.47708  1.0000
  C   C307      1.0  0.09009  0.49816  0.04015  1.0000
  S   S79       1.0  0.48859  0.51345  0.09381  1.0000
  C   C308      1.0  0.44748  0.51528  0.00216  1.0000
  H   H371      1.0  0.37735  0.49840  0.08602  1.0000
  H   H372      1.0  0.31311  0.49820  0.20262  1.0000
  H   H373      1.0  0.42538  0.52023  0.49264  1.0000
  H   H374      1.0  0.49219  0.66398  0.06028  1.0000
  C   C309      1.0  0.20373  0.70992  0.49299  1.0000
  H   H375      1.0  0.20986  0.72350  0.93459  1.0000
  H   H376      1.0  0.42085  0.63082  0.50440  1.0000
  H   H377      1.0  0.21861  0.68482  0.52409  1.0000
  C   C310      1.0  0.23140  0.73656  0.97625  1.0000
  H   H378      1.0  0.48988  0.64433  0.90169  1.0000
  C   C311      1.0  0.15855  0.59734  0.49859  1.0000
  S   S80       1.0  0.14214  0.60389  0.98696  1.0000
  S   S81       1.0  0.15361  0.51793  0.91881  1.0000
  H   H379      1.0  0.29825  0.72146  0.50906  1.0000
  S   S82       1.0  0.19680  0.52604  0.92059  1.0000
  C   C312      1.0  0.46471  0.68788  0.80426  1.0000
  Fe  Fe35      1.0  0.17725  0.52898  0.95958  1.0000
  H   H380      1.0  0.26527  0.53090  0.97814  1.0000
  Fe  Fe36      1.0  0.17227  0.51237  0.88121  1.0000
  C   C313      1.0  0.25640  0.50553  0.63846  1.0000
  H   H381      1.0  0.29781  0.54669  0.99051  1.0000
  C   C314      1.0  0.41123  0.56799  0.54205  1.0000
  H   H382      1.0  0.07151  0.52822  0.53850  1.0000
  S   S83       1.0  0.40540  0.63266  0.57403  1.0000
  C   C315      1.0  0.20724  0.60491  0.93765  1.0000
  Fe  Fe37      1.0  0.45418  0.66773  0.90821  1.0000
  S   S84       1.0  0.44732  0.65771  0.84860  1.0000
  H   H383      1.0  0.43167  0.60477  0.52911  1.0000
  C   C316      1.0  0.26944  0.53213  0.58571  1.0000
  H   H384      1.0  0.41824  0.71411  0.93686  1.0000
  S   S85       1.0  0.46008  0.64747  0.94041  1.0000
  S   S86       1.0  0.43429  0.66869  0.94946  1.0000
  H   H385      1.0  0.17344  0.52756  0.69166  1.0000
  S   S87       1.0  0.14622  0.50989  0.58262  1.0000
  Fe  Fe38      1.0  0.19241  0.51534  0.53838  1.0000
  S   S88       1.0  0.19209  0.53113  0.58981  1.0000
  H   H386      1.0  0.23620  0.52938  0.95542  1.0000
  H   H387      1.0  0.12761  0.51232  0.78274  1.0000
  C   C317      1.0  0.41937  0.55914  0.95494  1.0000
  Fe  Fe39      1.0  0.16933  0.53567  0.56197  1.0000
  S   S89       1.0  0.16578  0.56218  0.56698  1.0000
  C   C318      1.0  0.02292  0.54830  0.50961  1.0000
  Fe  Fe40      1.0  0.46315  0.68095  0.63867  1.0000
  C   C319      1.0  0.44701  0.74345  0.91700  1.0000
  Fe  Fe41      1.0  0.43507  0.65529  0.57963  1.0000
  S   S90       1.0  0.45606  0.66321  0.53648  1.0000
  H   H388      1.0  0.01541  0.55693  0.50505  1.0000
  C   C320      1.0  0.04423  0.59602  0.52698  1.0000
  Fe  Fe42      1.0  0.46579  0.69285  0.55969  1.0000
  H   H389      1.0  0.29339  0.52685  0.58540  1.0000
  S   S91       1.0  0.45307  0.65089  0.62189  1.0000
  S   S92       1.0  0.44322  0.68489  0.59976  1.0000
  H   H390      1.0  0.40379  0.73621  0.88987  1.0000
  C   C321      1.0  0.43482  0.56184  0.57242  1.0000
  C   C322      1.0  0.03002  0.60861  0.99028  1.0000
  C   C323      1.0  0.99285  0.63432  0.87859  1.0000
  H   H391      1.0  0.13315  0.50822  0.84156  1.0000
  C   C324      1.0  0.17076  0.50070  0.70637  1.0000
  H   H392      1.0  0.45508  0.74539  0.94283  1.0000
  H   H393      1.0  0.41604  0.58777  0.62108  1.0000
  H   H394      1.0  0.12177  0.54643  0.54549  1.0000
  H   H395      1.0  0.19880  0.72541  0.53655  1.0000
  C   C325      1.0  0.27030  0.50823  0.50088  1.0000
  C   C326      1.0  0.16624  0.57462  0.52807  1.0000
  H   H396      1.0  0.48973  0.74759  0.98837  1.0000
  C   C327      1.0  0.99429  0.53233  0.81411  1.0000
  H   H397      1.0  0.19375  0.60308  0.59092  1.0000
  H   H398      1.0  0.21445  0.50843  0.58602  1.0000
  C   C328      1.0  0.46958  0.69578  0.77012  1.0000
  C   C329      1.0  0.45388  0.66866  0.80651  1.0000
  C   C330      1.0  0.46366  0.68462  0.73784  1.0000
  C   C331      1.0  0.45287  0.66541  0.74015  1.0000
  C   C332      1.0  0.44803  0.65753  0.77424  1.0000
  H   H399      1.0  0.44823  0.65662  0.71568  1.0000
  H   H400      1.0  0.43964  0.64265  0.77559  1.0000
  H   H401      1.0  0.47348  0.56151  0.99198  1.0000
  C   C333      1.0  0.45204  0.59861  0.60548  1.0000
  C   C334      1.0  0.17267  0.51871  0.71375  1.0000
  H   H402      1.0  0.14229  0.57502  0.94067  1.0000
  S   S93       1.0  0.00956  0.59154  0.50116  1.0000
  C   C335      1.0  0.22043  0.67204  0.52916  1.0000
  C   C336      1.0  0.43557  0.59284  0.95455  1.0000
  H   H403      1.0  0.36048  0.52860  0.90895  1.0000
  C   C337      1.0  0.40211  0.54937  0.52963  1.0000
  H   H404      1.0  0.11857  0.51840  0.52216  1.0000
  H   H405      1.0  0.48814  0.67581  0.86379  1.0000
  H   H406      1.0  0.99781  0.57852  0.74848  1.0000
  C   C338      1.0  0.00024  0.62197  0.76770  1.0000
  H   H407      1.0  0.22572  0.67326  0.55765  1.0000
  H   H408      1.0  0.23219  0.67212  0.97687  1.0000
  S   S94       1.0  0.47667  0.71939  0.52627  1.0000
  H   H409      1.0  0.18760  0.69998  0.97405  1.0000
  S   S95       1.0  0.47055  0.69525  0.69553  1.0000
  N   N22       1.0  0.22595  0.50812  0.63932  1.0000
  H   H410      1.0  0.38949  0.57863  0.94348  1.0000
  H   H411      1.0  0.15960  0.55602  0.94317  1.0000
  Fe  Fe43      1.0  0.16914  0.50413  0.60643  1.0000
  N   N23       1.0  0.38413  0.54226  0.94627  1.0000
  H   H412      1.0  0.18254  0.65419  0.94755  1.0000
  C   C339      1.0  0.16145  0.56606  0.96492  1.0000
  H   H413      1.0  0.07111  0.59896  0.54533  1.0000
  H   H414      1.0  0.38189  0.54320  0.88836  1.0000
  S   S96       1.0  0.99805  0.56229  0.59331  1.0000
  C   C340      1.0  0.46723  0.73095  0.62868  1.0000
  H   H415      1.0  0.42059  0.54638  0.95812  1.0000
  C   C341      1.0  0.22180  0.61812  0.95920  1.0000
  C   C342      1.0  0.24492  0.51381  0.62657  1.0000
  C   C343      1.0  0.40217  0.57717  0.94633  1.0000
  H   H416      1.0  0.39481  0.52411  0.92295  1.0000
  S   S97       1.0  0.17188  0.52267  0.82397  1.0000
  H   H417      1.0  0.33763  0.73557  0.53348  1.0000
  H   H418      1.0  0.13239  0.51459  0.71844  1.0000
  H   H419      1.0  0.45533  0.54530  0.96166  1.0000
  H   H420      1.0  0.00782  0.63969  0.87329  1.0000
  H   H421      1.0  0.21291  0.59414  0.55136  1.0000
  N   N24       1.0  0.48632  0.74578  0.63603  1.0000
  C   C344      1.0  0.40195  0.55941  0.94890  1.0000
  C   C345      1.0  0.11106  0.56611  0.54043  1.0000
  C   C346      1.0  0.20571  0.63844  0.53143  1.0000
  C   C347      1.0  0.41878  0.59354  0.94842  1.0000
  H   H422      1.0  0.27426  0.54200  0.56437  1.0000
  H   H423      1.0  0.99402  0.53067  0.84394  1.0000
  H   H424      1.0  0.44756  0.56583  0.58821  1.0000
  H   H425      1.0  0.23141  0.67230  0.51124  1.0000
  H   H426      1.0  0.26318  0.73450  0.83447  1.0000
  H   H427      1.0  0.43662  0.51200  0.98030  1.0000
  H   H428      1.0  0.03738  0.58909  0.55080  1.0000
  H   H429      1.0  0.23396  0.61597  0.96507  1.0000
  C   C348      1.0  0.42756  0.57470  0.56473  1.0000
  H   H430      1.0  0.01352  0.62695  0.75512  1.0000
  N   N25       1.0  0.20280  0.65493  0.52263  1.0000
  H   H431      1.0  0.42794  0.61211  0.61196  1.0000
  C   C349      1.0  0.15843  0.58719  0.52904  1.0000
  H   H432      1.0  0.15214  0.58901  0.55338  1.0000
  C   C350      1.0  0.41850  0.72745  0.94711  1.0000
  C   C351      1.0  0.20920  0.72440  0.51989  1.0000
  H   H433      1.0  0.44608  0.72767  0.54995  1.0000
  H   H434      1.0  0.18593  0.66891  0.53616  1.0000
  H   H435      1.0  0.36895  0.55369  0.97763  1.0000
  H   H436      1.0  0.19281  0.65978  0.57374  1.0000
  H   H437      1.0  0.40526  0.57710  0.53399  1.0000
  H   H438      1.0  0.00601  0.52365  0.68389  1.0000
  C   C352      1.0  0.41849  0.73895  0.88753  1.0000
  H   H439      1.0  0.47555  0.54204  0.97309  1.0000
  C   C353      1.0  0.17453  0.57250  0.49661  1.0000
  N   N26       1.0  0.43607  0.59417  0.57968  1.0000
  C   C354      1.0  0.12706  0.52493  0.98747  1.0000
  C   C355      1.0  0.23238  0.73955  0.83512  1.0000
  C   C356      1.0  0.15426  0.59030  0.99106  1.0000
  C   C357      1.0  0.19769  0.62739  0.56152  1.0000
  C   C358      1.0  0.38638  0.52480  0.94580  1.0000
  H   H440      1.0  0.23421  0.53233  0.67522  1.0000
  C   C359      1.0  0.25203  0.52730  0.59978  1.0000
  C   C360      1.0  0.12718  0.50105  0.73025  1.0000
  C   C361      1.0  0.37300  0.54209  0.97768  1.0000
  H   H441      1.0  0.44804  0.58936  0.62879  1.0000
  S   S98       1.0  0.22031  0.52244  0.51130  1.0000
  H   H442      1.0  0.20978  0.52074  0.66341  1.0000
  H   H443      1.0  0.00750  0.53256  0.80550  1.0000
  C   C362      1.0  0.06341  0.60168  0.52383  1.0000
  C   C363      1.0  0.27376  0.51038  0.62394  1.0000
  C   C364      1.0  0.21381  0.72325  0.96264  1.0000
  H   H444      1.0  0.41820  0.72631  0.87350  1.0000
  H   H445      1.0  0.01319  0.53535  0.52241  1.0000
  C   C365      1.0  0.45515  0.73891  0.53385  1.0000
  C   C366      1.0  0.17205  0.51390  0.77915  1.0000
  C   C367      1.0  0.06061  0.52419  0.51758  1.0000
  H   H446      1.0  0.47798  0.71064  0.76873  1.0000
  H   H447      1.0  0.44830  0.60568  0.95755  1.0000
  Fe  Fe44      1.0  0.44285  0.65077  0.98390  1.0000
  S   S99       1.0  0.00644  0.59716  0.97274  1.0000
  C   C368      1.0  0.38111  0.59953  0.53999  1.0000
  C   C369      1.0  0.20057  0.61178  0.56871  1.0000
  H   H448      1.0  0.99494  0.54625  0.80907  1.0000
  H   H449      1.0  0.45821  0.51165  0.99074  1.0000
  C   C370      1.0  0.22385  0.52470  0.65289  1.0000
  C   C371      1.0  0.20460  0.63676  0.96727  1.0000
  Fe  Fe45      1.0  0.18786  0.49763  0.94313  1.0000
  C   C372      1.0  0.99938  0.62228  0.80541  1.0000
  C   C373      1.0  0.05293  0.53629  0.50911  1.0000
  H   H450      1.0  0.36261  0.57266  0.51491  1.0000
  H   H451      1.0  0.18466  0.66574  0.99052  1.0000
  C   C374      1.0  0.21801  0.67053  0.97029  1.0000
  H   H452      1.0  0.38951  0.54461  0.51268  1.0000
  S   S100      1.0  0.48833  0.64022  0.57906  1.0000
  C   C375      1.0  0.23940  0.50082  0.52379  1.0000
  H   H453      1.0  0.12414  0.53612  0.97615  1.0000
  C   C376      1.0  0.44277  0.60714  0.54975  1.0000
  H   H454      1.0  0.23061  0.50081  0.69303  1.0000
  C   C377      1.0  0.05408  0.50681  0.49960  1.0000
  C   C378      1.0  0.39770  0.61592  0.53748  1.0000
  S   S101      1.0  0.16935  0.50134  0.98467  1.0000
  H   H455      1.0  0.41862  0.60698  0.94661  1.0000
  H   H456      1.0  0.24385  0.53367  0.58823  1.0000
  H   H457      1.0  0.17449  0.53909  0.75520  1.0000
  S   S102      1.0  0.34551  0.52334  0.49530  1.0000
  H   H458      1.0  0.47549  0.64192  0.86187  1.0000
  S   S103      1.0  0.48618  0.69002  0.59939  1.0000
  C   C379      1.0  0.10350  0.57481  0.51778  1.0000
  H   H459      1.0  0.21650  0.67078  0.94035  1.0000
  H   H460      1.0  0.03780  0.58632  0.98101  1.0000
  C   C380      1.0  0.24170  0.73669  0.50425  1.0000
  H   H461      1.0  0.36909  0.55317  0.91255  1.0000
  H   H462      1.0  0.45645  0.73553  0.63511  1.0000
  H   H463      1.0  0.22556  0.53471  0.63149  1.0000
  C   C381      1.0  0.99346  0.52056  0.73578  1.0000
  H   H464      1.0  0.46383  0.59768  0.59196  1.0000
  C   C382      1.0  0.40910  0.53693  0.53906  1.0000
  H   H465      1.0  0.26221  0.74613  0.87584  1.0000
  H   H466      1.0  0.45768  0.61322  0.61687  1.0000
  N   N27       1.0  0.42865  0.74301  0.92319  1.0000
  H   H467      1.0  0.40177  0.52244  0.52992  1.0000
  H   H468      1.0  0.17366  0.64082  0.98716  1.0000
  H   H469      1.0  0.31990  0.73783  0.55833  1.0000
  C   C383      1.0  0.15169  0.57687  0.96352  1.0000
  H   H470      1.0  0.17724  0.62384  0.93860  1.0000
  C   C384      1.0  0.17325  0.52522  0.74988  1.0000
  C   C385      1.0  0.28021  0.52356  0.59748  1.0000
  S   S104      1.0  0.17118  0.52216  0.50948  1.0000
  H   H471      1.0  0.22163  0.54698  0.98655  1.0000
  C   C386      1.0  0.33063  0.74467  0.53814  1.0000
  C   C387      1.0  0.21137  0.60668  0.54637  1.0000
  H   H472      1.0  0.28216  0.50364  0.63270  1.0000
  C   C388      1.0  0.11528  0.55204  0.52662  1.0000
  C   C389      1.0  0.21712  0.63316  0.50989  1.0000
  C   C390      1.0  0.18527  0.65343  0.97692  1.0000
  H   H473      1.0  0.23043  0.73694  0.86456  1.0000
  C   C391      1.0  0.43589  0.57569  0.95774  1.0000
  H   H474      1.0  0.17497  0.64429  0.54137  1.0000
  H   H475      1.0  0.43124  0.53355  0.56628  1.0000
  S   S105      1.0  0.47884  0.69293  0.93236  1.0000
  H   H476      1.0  0.46930  0.69666  0.82875  1.0000
  Fe  Fe46      1.0  0.47458  0.65993  0.57950  1.0000
  H   H477      1.0  0.45419  0.60571  0.53579  1.0000
  C   C392      1.0  0.19010  0.62313  0.94469  1.0000
  C   C393      1.0  0.47065  0.73816  0.51897  1.0000
  C   C394      1.0  0.37527  0.58533  0.51250  1.0000
  C   C395      1.0  0.22796  0.73770  0.52541  1.0000
  H   H478      1.0  0.18878  0.63019  0.57946  1.0000
  C   C396      1.0  0.19158  0.60757  0.92999  1.0000
  H   H479      1.0  0.01233  0.62762  0.82103  1.0000
  C   C397      1.0  0.42203  0.59778  0.59934  1.0000
  H   H480      1.0  0.46439  0.71860  0.64506  1.0000
  C   C398      1.0  0.18851  0.65696  0.54456  1.0000
  H   H481      1.0  0.10088  0.58619  0.52828  1.0000
  H   H482      1.0  0.44825  0.62195  0.55971  1.0000
  H   H483      1.0  0.22942  0.72608  0.82065  1.0000
  C   C399      1.0  0.22063  0.63391  0.97356  1.0000
  H   H484      1.0  0.37289  0.59769  0.56357  1.0000
  Fe  Fe47      1.0  0.48340  0.67224  0.96715  1.0000
  Fe  Fe48      1.0  0.45935  0.69340  0.97531  1.0000
  H   H485      1.0  0.40392  0.72495  0.95030  1.0000
  H   H486      1.0  0.20797  0.59247  0.92714  1.0000
  H   H487      1.0  0.15212  0.60664  0.49949  1.0000
  H   H488      1.0  0.03428  0.55636  0.52986  1.0000
  H   H489      1.0  0.18086  0.56308  0.49575  1.0000
  C   C400      1.0  0.42559  0.54320  0.55982  1.0000
  H   H490      1.0  0.41039  0.59676  0.58132  1.0000
  C   C401      1.0  0.23922  0.51636  0.50761  1.0000
  H   H491      1.0  0.18024  0.59719  0.91335  1.0000
  C   C402      1.0  0.99947  0.51775  0.96791  1.0000
  H   H492      1.0  0.14198  0.52893  0.98372  1.0000
  C   C403      1.0  0.37350  0.54183  0.91257  1.0000
  C   C404      1.0  0.03402  0.59940  0.49946  1.0000
  H   H493      1.0  0.00424  0.60770  0.86946  1.0000
  H   H494      1.0  0.11429  0.57075  0.56865  1.0000
  H   H495      1.0  0.00120  0.53165  0.96294  1.0000
  H   H496      1.0  0.44569  0.73007  0.90445  1.0000
  C   C405      1.0  0.46528  0.54649  0.98409  1.0000
  H   H497      1.0  0.39277  0.52329  0.97171  1.0000
  C   C406      1.0  0.21246  0.49896  0.60863  1.0000
  H   H498      1.0  0.22793  0.61323  0.49955  1.0000
  H   H499      1.0  0.48714  0.73940  0.69215  1.0000
  S   S106      1.0  0.28951  0.50257  0.49856  1.0000
  N   N28       1.0  0.20340  0.65319  0.98416  1.0000
  H   H500      1.0  0.14021  0.53732  0.50995  1.0000
  C   C407      1.0  0.48943  0.64363  0.87152  1.0000
  H   H501      1.0  0.05839  0.54962  0.52386  1.0000
  H   H502      1.0  0.35993  0.52892  0.97797  1.0000
  H   H503      1.0  0.46507  0.72618  0.59967  1.0000
  C   C408      1.0  0.40817  0.61821  0.50684  1.0000
  C   C409      1.0  0.24314  0.53828  0.97916  1.0000
  H   H504      1.0  0.42527  0.73039  0.97465  1.0000
  H   H505      1.0  0.44904  0.57536  0.96289  1.0000
  H   H506      1.0  0.11884  0.51190  0.97071  1.0000
  C   C410      1.0  0.21971  0.61739  0.51711  1.0000
  H   H507      1.0  0.37276  0.51217  0.94273  1.0000
  C   C411      1.0  0.12715  0.52556  0.49914  1.0000
  H   H508      1.0  0.21736  0.68318  0.98220  1.0000
  H   H509      1.0  0.00461  0.51866  0.74887  1.0000
  C   C412      1.0  0.04245  0.60053  0.99121  1.0000
  H   H510      1.0  0.10905  0.50303  0.83322  1.0000
  C   C413      1.0  0.99442  0.52339  0.69861  1.0000
  H   H511      1.0  0.22157  0.74379  0.82624  1.0000
  H   H512      1.0  0.49052  0.63072  0.86327  1.0000
  H   H513      1.0  0.36369  0.59841  0.98831  1.0000
  H   H514      1.0  0.23230  0.64377  0.99005  1.0000
  C   C414      1.0  0.20110  0.70982  0.98504  1.0000
  H   H515      1.0  0.39629  0.62262  0.98459  1.0000
  H   H516      1.0  0.47776  0.63349  0.99243  1.0000
  C   C415      1.0  0.49196  0.50858  0.50520  1.0000
  C   C416      1.0  0.12431  0.49949  0.76739  1.0000
  H   H517      1.0  0.37478  0.49852  0.57552  1.0000
  C   C417      1.0  0.25999  0.53932  0.99261  1.0000
  C   C418      1.0  0.07273  0.61091  0.49329  1.0000
  Fe  Fe49      1.0  0.46002  0.83806  0.11906  1.0000
  S   S107      1.0  0.44777  0.83684  0.17514  1.0000
  Fe  Fe50      1.0  0.44595  0.83756  0.04045  1.0000
  S   S108      1.0  0.47388  0.84556  0.01776  1.0000
  Fe  Fe51      1.0  0.39897  0.97458  0.39878  1.0000
  Fe  Fe52      1.0  0.47541  0.82451  0.05577  1.0000
  H   H518      1.0  0.33898  0.77433  0.39174  1.0000
  H   H519      1.0  0.44703  0.87799  0.45339  1.0000
  S   S109      1.0  0.44640  0.81519  0.07526  1.0000
  S   S110      1.0  0.45706  0.85950  0.08505  1.0000
  Fe  Fe53      1.0  0.46540  0.82957  0.38982  1.0000
  H   H520      1.0  0.48684  0.77919  0.47457  1.0000
  Fe  Fe54      1.0  0.43312  0.82658  0.43561  1.0000
  H   H521      1.0  0.42544  0.92134  0.02337  1.0000
  C   C419      1.0  0.34682  0.90055  0.47443  1.0000
  Fe  Fe55      1.0  0.46046  0.81260  0.46478  1.0000
  H   H522      1.0  0.42361  0.86078  0.44968  1.0000
  S   S111      1.0  0.45494  0.85015  0.40694  1.0000
  S   S112      1.0  0.44199  0.80541  0.41426  1.0000
  Fe  Fe56      1.0  0.38821  0.95411  0.46986  1.0000
  S   S113      1.0  0.39625  0.94673  0.41613  1.0000
  S   S114      1.0  0.38598  0.92054  0.02645  1.0000
  Fe  Fe57      1.0  0.39798  0.94958  0.05634  1.0000
  C   C420      1.0  0.47747  0.82891  0.25938  1.0000
  S   S115      1.0  0.41886  0.94886  0.09666  1.0000
  C   C421      1.0  0.48999  0.98100  0.00494  1.0000
  C   C422      1.0  0.43275  0.93369  0.00692  1.0000
  C   C423      1.0  0.36222  0.77544  0.42322  1.0000
  C   C424      1.0  0.37530  0.79324  0.01286  1.0000
  C   C425      1.0  0.44640  0.83535  0.24963  1.0000
  H   H523      1.0  0.37044  0.77957  0.02387  1.0000
  C   C426      1.0  0.38614  0.89561  0.43156  1.0000
  C   C427      1.0  0.47703  0.78952  0.39938  1.0000
  N   N29       1.0  0.46922  0.77431  0.37103  1.0000
  S   S116      1.0  0.42910  0.99101  0.41631  1.0000
  S   S117      1.0  0.40352  0.82284  0.43152  1.0000
  C   C428      1.0  0.40964  0.96692  0.30071  1.0000
  S   S118      1.0  0.43600  0.99354  0.11116  1.0000
  H   H524      1.0  0.44463  0.83403  0.30797  1.0000
  C   C429      1.0  0.41571  0.96354  0.26707  1.0000
  S   S119      1.0  0.48475  0.83602  0.43954  1.0000
  H   H525      1.0  0.44134  0.91486  0.40679  1.0000
  H   H526      1.0  0.48751  0.92139  0.13552  1.0000
  H   H527      1.0  0.48954  0.82639  0.26285  1.0000
  H   H528      1.0  0.35098  0.90794  0.44970  1.0000
  S   S120      1.0  0.47566  0.82670  0.33373  1.0000
  C   C430      1.0  0.45605  0.83431  0.21901  1.0000
  C   C431      1.0  0.47169  0.83113  0.22418  1.0000
  H   H529      1.0  0.44528  0.75655  0.42453  1.0000
  C   C432      1.0  0.46785  0.82997  0.28999  1.0000
  C   C433      1.0  0.44283  0.90623  0.42857  1.0000
  C   C434      1.0  0.38531  0.97138  0.26945  1.0000
  H   H530      1.0  0.36738  0.82015  0.44325  1.0000
  C   C435      1.0  0.45291  0.74921  0.41474  1.0000
  S   S121      1.0  0.44602  0.95164  0.43695  1.0000
  C   C436      1.0  0.46594  0.75646  0.38727  1.0000
  S   S122      1.0  0.46666  0.97369  0.06054  1.0000
  H   H531      1.0  0.44136  0.77141  0.37732  1.0000
  C   C437      1.0  0.47938  0.96816  0.47415  1.0000
  H   H532      1.0  0.44176  0.91250  0.45510  1.0000
  H   H533      1.0  0.31635  0.75833  0.43690  1.0000
  C   C438      1.0  0.33631  0.75717  0.47664  1.0000
  H   H534      1.0  0.47384  0.91430  0.35388  1.0000
  C   C439      1.0  0.45148  0.77330  0.35613  1.0000
  H   H535      1.0  0.41686  0.96661  0.32555  1.0000
  C   C440      1.0  0.44442  0.89602  0.06258  1.0000
  C   C441      1.0  0.36817  0.77109  0.45569  1.0000
  C   C442      1.0  0.42696  0.88395  0.04745  1.0000
  H   H536      1.0  0.43427  0.83775  0.24610  1.0000
  H   H537      1.0  0.35757  0.87533  0.42608  1.0000
  H   H538      1.0  0.48620  0.75062  0.35733  1.0000
  C   C443      1.0  0.39156  0.96831  0.23572  1.0000
  H   H539      1.0  0.48060  0.92239  0.05680  1.0000
  H   H540      1.0  0.45359  0.78636  0.34268  1.0000
  S   S123      1.0  0.41655  0.96205  0.19303  1.0000
  H   H541      1.0  0.40404  0.80164  0.02873  1.0000
  H   H542      1.0  0.39783  0.87661  0.04507  1.0000
  C   C444      1.0  0.39460  0.97121  0.30205  1.0000
  H   H543      1.0  0.42783  0.88571  0.36555  1.0000
  Fe  Fe58      1.0  0.43957  0.97404  0.07147  1.0000
  C   C445      1.0  0.37228  0.81673  0.46812  1.0000
  S   S124      1.0  0.41761  0.96933  0.49166  1.0000
  H   H544      1.0  0.47927  0.83026  0.20105  1.0000
  S   S125      1.0  0.39091  0.96789  0.09545  1.0000
  C   C446      1.0  0.39449  0.86565  0.41976  1.0000
  H   H545      1.0  0.45620  0.89414  0.05350  1.0000
  H   H546      1.0  0.42755  0.96054  0.26636  1.0000
  Fe  Fe59      1.0  0.41873  0.99576  0.46988  1.0000
  H   H547      1.0  0.46754  0.78733  0.42201  1.0000
  C   C447      1.0  0.47787  0.78034  0.02640  1.0000
  C   C448      1.0  0.45988  0.76828  0.03581  1.0000
  H   H548      1.0  0.42562  0.87324  0.02746  1.0000
  H   H549      1.0  0.47986  0.80327  0.38829  1.0000
  H   H550      1.0  0.45145  0.77391  0.04883  1.0000
  S   S126      1.0  0.44993  0.83260  0.48739  1.0000
  H   H551      1.0  0.49032  0.79065  0.41137  1.0000
  H   H552      1.0  0.38451  0.96885  0.21084  1.0000
  C   C449      1.0  0.37604  0.86270  0.42017  1.0000
  H   H553      1.0  0.37341  0.97429  0.27027  1.0000
  C   C450      1.0  0.44668  0.91022  0.08885  1.0000
  Fe  Fe60      1.0  0.41334  0.96820  0.13388  1.0000
  N   N30       1.0  0.39835  0.83775  0.12555  1.0000
  C   C451      1.0  0.39099  0.82364  0.15345  1.0000
  C   C452      1.0  0.40868  0.83171  0.09977  1.0000
  C   C453      1.0  0.41197  0.85551  0.14378  1.0000
  C   C454      1.0  0.38275  0.83934  0.10634  1.0000
  C   C455      1.0  0.37963  0.85548  0.10980  1.0000
  C   C456      1.0  0.36978  0.82425  0.08401  1.0000
  C   C457      1.0  0.36496  0.85663  0.09068  1.0000
  C   C458      1.0  0.35510  0.82551  0.06527  1.0000
  C   C459      1.0  0.35279  0.84173  0.06831  1.0000
  H   H554      1.0  0.38298  0.82750  0.17333  1.0000
  H   H555      1.0  0.38162  0.80960  0.14138  1.0000
  H   H556      1.0  0.40241  0.82218  0.16868  1.0000
  H   H557      1.0  0.40034  0.81735  0.08830  1.0000
  H   H558      1.0  0.42112  0.83144  0.11309  1.0000
  H   H559      1.0  0.41338  0.84121  0.07686  1.0000
  H   H560      1.0  0.40573  0.86017  0.16602  1.0000
  H   H561      1.0  0.42390  0.85401  0.15663  1.0000
  H   H562      1.0  0.41791  0.86674  0.12412  1.0000
  H   H563      1.0  0.38837  0.86746  0.12692  1.0000
  H   H564      1.0  0.37082  0.81129  0.08074  1.0000
  H   H565      1.0  0.36294  0.86916  0.09316  1.0000
  H   H566      1.0  0.32840  0.87435  0.44716  1.0000
  H   H567      1.0  0.34144  0.84266  0.05351  1.0000
  C   C460      1.0  0.40700  0.96463  0.23437  1.0000
  Fe  Fe61      1.0  0.47260  0.85544  0.45820  1.0000
  C   C461      1.0  0.45226  0.83326  0.28486  1.0000
  H   H568      1.0  0.36488  0.84873  0.41588  1.0000
  H   H569      1.0  0.42515  0.94234  0.00916  1.0000
  Fe  Fe62      1.0  0.42547  0.96354  0.43714  1.0000
  C   C462      1.0  0.38991  0.81718  0.47014  1.0000
  H   H570      1.0  0.38278  0.90718  0.43638  1.0000
  H   H571      1.0  0.44483  0.76153  0.33571  1.0000
  Fe  Fe63      1.0  0.48526  0.86674  0.06420  1.0000
  H   H572      1.0  0.41497  0.91308  0.43485  1.0000
  S   S127      1.0  0.38850  0.98099  0.45145  1.0000
  C   C463      1.0  0.47776  0.93231  0.07418  1.0000
  H   H573      1.0  0.43053  0.92134  0.11980  1.0000
  H   H574      1.0  0.40073  0.90102  0.09090  1.0000
  H   H575      1.0  0.44650  0.88201  0.38560  1.0000
  C   C464      1.0  0.48857  0.77259  0.00960  1.0000
  H   H576      1.0  0.46366  0.98887  0.41208  1.0000
  C   C465      1.0  0.46754  0.97020  0.44830  1.0000
  H   H577      1.0  0.45751  0.93219  0.15346  1.0000
  H   H578      1.0  0.39697  0.85359  0.41509  1.0000
  H   H579      1.0  0.42352  0.86381  0.38460  1.0000
  S   S128      1.0  0.38821  0.97826  0.34329  1.0000
  C   C466      1.0  0.43176  0.87920  0.38833  1.0000
  C   C467      1.0  0.33070  0.76163  0.44303  1.0000
  C   C468      1.0  0.39429  0.80573  0.01574  1.0000
  C   C469      1.0  0.43029  0.91126  0.09953  1.0000
  H   H580      1.0  0.34545  0.81382  0.04814  1.0000
  H   H581      1.0  0.45726  0.90771  0.42815  1.0000
  C   C470      1.0  0.43246  0.87602  0.45286  1.0000
  C   C471      1.0  0.40467  0.89876  0.43079  1.0000
  C   C472      1.0  0.40941  0.88378  0.42488  1.0000
  H   H582      1.0  0.45978  0.94663  0.11533  1.0000
  H   H583      1.0  0.47729  0.76859  0.31868  1.0000
  N   N31       1.0  0.42881  0.88644  0.42373  1.0000
  S   S129      1.0  0.41952  0.97450  0.02900  1.0000
  H   H584      1.0  0.44670  0.94188  0.01980  1.0000
  C   C473      1.0  0.47263  0.98736  0.43259  1.0000
  C   C474      1.0  0.33406  0.88148  0.47308  1.0000
  C   C475      1.0  0.37189  0.87766  0.42603  1.0000
  C   C476      1.0  0.41128  0.88577  0.05750  1.0000
  C   C477      1.0  0.41293  0.89939  0.08354  1.0000
  H   H585      1.0  0.47546  0.95488  0.48636  1.0000
  N   N32       1.0  0.46539  0.92304  0.10398  1.0000
  C   C478      1.0  0.47602  0.98435  0.02040  1.0000
  H   H586      1.0  0.47169  0.93945  0.05667  1.0000
  H   H587      1.0  0.47985  0.94775  0.13890  1.0000
  C   C479      1.0  0.36256  0.79834  0.99564  1.0000
  H   H588      1.0  0.37225  0.78290  0.40334  1.0000
  H   H589      1.0  0.38284  0.77523  0.46077  1.0000
  C   C480      1.0  0.46553  0.93797  0.12902  1.0000
  H   H590      1.0  0.46445  0.90507  0.14693  1.0000
  C   C481      1.0  0.34352  0.77071  0.41688  1.0000
  C   C482      1.0  0.47327  0.91229  0.12423  1.0000
  S   S130      1.0  0.48750  0.80509  0.03405  1.0000
  C   C483      1.0  0.36455  0.90073  0.01419  1.0000
  C   C484      1.0  0.46964  0.99598  0.00355  1.0000
  C   C485      1.0  0.48138  0.75318  0.00185  1.0000
  C   C486      1.0  0.48233  0.77945  0.34109  1.0000
  H   H591      1.0  0.30450  0.76056  0.49025  1.0000
  S   S131      1.0  0.48921  0.84655  0.10140  1.0000
  H   H592      1.0  0.47455  0.90143  0.10676  1.0000
  S   S132      1.0  0.48223  0.88548  0.48158  1.0000
  H   H593      1.0  0.42995  0.88065  0.47980  1.0000
  C   C487      1.0  0.45271  0.74887  0.02820  1.0000
  Fe  Fe64      1.0  0.41441  0.99275  0.07045  1.0000
  H   H594      1.0  0.48405  0.79275  0.32909  1.0000
  H   H595      1.0  0.37807  0.88359  0.99981  1.0000
  C   C488      1.0  0.47785  0.76800  0.49078  1.0000
  C   C489      1.0  0.36496  0.88419  0.00113  1.0000
  S   S133      1.0  0.42418  0.83941  0.00321  1.0000
  H   H596      1.0  0.34673  0.91365  0.02573  1.0000
  C   C490      1.0  0.35552  0.76221  0.48223  1.0000
  C   C491      1.0  0.40058  0.82334  0.00129  1.0000
  C   C492      1.0  0.34737  0.90110  0.01585  1.0000
  C   C493      1.0  0.48635  0.91947  0.37107  1.0000
  H   H597      1.0  0.49155  0.94309  0.08458  1.0000
  H   H598      1.0  0.49052  0.94741  0.36883  1.0000
  H   H599      1.0  0.48490  0.89217  0.37773  1.0000
  H   H600      1.0  0.31778  0.88586  0.00524  1.0000
  C   C494      1.0  0.33094  0.88529  0.00410  1.0000
  S   S134      1.0  0.29719  0.79560  0.99375  1.0000
  Fe  Fe65      1.0  0.30495  0.81984  0.95707  1.0000
  S   S135      1.0  0.32701  0.81538  0.92868  1.0000
  H   H601      1.0  0.35354  0.87154  0.87144  1.0000
  Fe  Fe66      1.0  0.27661  0.77751  0.94940  1.0000
  S   S136      1.0  0.29780  0.77106  0.92148  1.0000
  S   S137      1.0  0.24668  0.75345  0.94646  1.0000
  Fe  Fe67      1.0  0.31857  0.79057  0.96323  1.0000
  C   C495      1.0  0.24437  0.76443  0.73107  1.0000
  Fe  Fe68      1.0  0.30425  0.79645  0.88920  1.0000
  S   S138      1.0  0.31064  0.79486  0.82947  1.0000
  C   C496      1.0  0.27048  0.75731  0.73370  1.0000
  S   S139      1.0  0.28238  0.80243  0.91514  1.0000
  Fe  Fe69      1.0  0.32505  0.80102  0.56703  1.0000
  S   S140      1.0  0.30922  0.79992  0.51597  1.0000
  S   S141      1.0  0.35251  0.79939  0.56746  1.0000
  Fe  Fe70      1.0  0.29650  0.80521  0.61413  1.0000
  S   S142      1.0  0.27875  0.80469  0.56484  1.0000
  S   S143      1.0  0.28721  0.80914  0.67076  1.0000
  Fe  Fe71      1.0  0.28350  0.78041  0.54358  1.0000
  C   C497      1.0  0.32928  0.84753  0.76378  1.0000
  Fe  Fe72      1.0  0.30600  0.82411  0.54121  1.0000
  C   C498      1.0  0.25863  0.76242  0.71397  1.0000
  S   S144      1.0  0.29991  0.78012  0.59389  1.0000
  S   S145      1.0  0.32316  0.82610  0.59138  1.0000
  C   C499      1.0  0.41354  0.76284  0.94529  1.0000
  C   C500      1.0  0.44229  0.94526  0.94781  1.0000
  H   H602      1.0  0.36068  0.85835  0.58908  1.0000
  C   C501      1.0  0.25418  0.77175  0.84638  1.0000
  C   C502      1.0  0.45123  0.75420  0.52770  1.0000
  C   C503      1.0  0.35372  0.91010  0.50780  1.0000
  C   C504      1.0  0.32563  0.86051  0.74526  1.0000
  H   H603      1.0  0.45545  0.95596  0.96080  1.0000
  H   H604      1.0  0.44526  0.94196  0.92000  1.0000
  H   H605      1.0  0.44506  0.90849  0.53877  1.0000
  C   C505      1.0  0.33540  0.88109  0.53824  1.0000
  H   H606      1.0  0.47543  0.89061  0.97183  1.0000
  H   H607      1.0  0.33094  0.87375  0.56295  1.0000
  C   C506      1.0  0.43133  0.79405  0.97143  1.0000
  C   C507      1.0  0.36665  0.80631  0.52964  1.0000
  C   C508      1.0  0.33136  0.86878  0.99097  1.0000
  C   C509      1.0  0.47520  0.91737  0.97618  1.0000
  C   C510      1.0  0.32169  0.87513  0.87976  1.0000
  H   H608      1.0  0.46079  0.80351  0.97639  1.0000
  C   C511      1.0  0.41433  0.77937  0.96062  1.0000
  C   C512      1.0  0.48192  0.75283  0.49735  1.0000
  C   C513      1.0  0.30764  0.84195  0.86968  1.0000
  C   C514      1.0  0.24194  0.76138  0.76801  1.0000
  H   H609      1.0  0.34712  0.81090  0.49561  1.0000
  N   N33       1.0  0.25140  0.75388  0.82845  1.0000
  C   C515      1.0  0.48870  0.75128  0.67515  1.0000
  H   H610      1.0  0.43931  0.75463  0.53974  1.0000
  H   H611      1.0  0.30840  0.87522  0.87108  1.0000
  C   C516      1.0  0.30382  0.79905  0.78575  1.0000
  C   C517      1.0  0.29066  0.80584  0.78048  1.0000
  C   C518      1.0  0.28587  0.80894  0.74517  1.0000
  C   C519      1.0  0.29414  0.80534  0.71468  1.0000
  C   C520      1.0  0.30740  0.79870  0.72001  1.0000
  C   C521      1.0  0.31218  0.79559  0.75530  1.0000
  H   H612      1.0  0.28425  0.80884  0.80345  1.0000
  H   H613      1.0  0.27563  0.81411  0.74136  1.0000
  H   H614      1.0  0.31389  0.79587  0.69691  1.0000
  H   H615      1.0  0.32242  0.79041  0.75900  1.0000
  H   H616      1.0  0.39265  0.84206  0.97309  1.0000
  H   H617      1.0  0.37534  0.85522  0.49561  1.0000
  C   C522      1.0  0.46439  0.92702  0.97539  1.0000
  C   C523      1.0  0.47817  0.77155  0.61891  1.0000
  H   H618      1.0  0.46015  0.77531  0.94996  1.0000
  H   H619      1.0  0.36638  0.88075  0.57210  1.0000
  H   H620      1.0  0.35279  0.90760  0.56565  1.0000
  H   H621      1.0  0.26086  0.76541  0.68558  1.0000
  C   C524      1.0  0.32849  0.87155  0.50486  1.0000
  C   C525      1.0  0.41439  0.91716  0.95414  1.0000
  H   H622      1.0  0.40169  0.78082  0.96437  1.0000
  H   H623      1.0  0.34078  0.75820  0.55129  1.0000
  H   H624      1.0  0.41413  0.91189  0.92590  1.0000
  H   H625      1.0  0.39744  0.85821  0.58708  1.0000
  H   H626      1.0  0.23177  0.74873  0.54610  1.0000
  C   C526      1.0  0.36071  0.81136  0.49774  1.0000
  C   C527      1.0  0.32912  0.84751  0.80154  1.0000
  H   H627      1.0  0.30550  0.84078  0.89925  1.0000
  H   H628      1.0  0.40631  0.90525  0.97122  1.0000
  H   H629      1.0  0.47143  0.94189  0.98121  1.0000
  H   H630      1.0  0.30910  0.82939  0.85996  1.0000
  C   C528      1.0  0.32545  0.86069  0.82204  1.0000
  H   H631      1.0  0.42074  0.87861  0.55459  1.0000
  H   H632      1.0  0.47124  0.79324  0.60102  1.0000
  H   H633      1.0  0.40650  0.92565  0.95415  1.0000
  C   C529      1.0  0.36856  0.85829  0.51899  1.0000
  H   H634      1.0  0.27922  0.75870  0.84434  1.0000
  C   C530      1.0  0.25388  0.75633  0.78908  1.0000
  H   H635      1.0  0.33122  0.83658  0.81439  1.0000
  H   H636      1.0  0.34030  0.85910  0.90876  1.0000
  H   H637      1.0  0.47819  0.75576  0.68424  1.0000
  H   H638      1.0  0.49004  0.92491  0.98153  1.0000
  N   N34       1.0  0.32398  0.85945  0.86180  1.0000
  H   H639      1.0  0.25232  0.77042  0.87608  1.0000
  H   H640      1.0  0.44162  0.87333  0.95929  1.0000
  C   C531      1.0  0.26831  0.75441  0.77074  1.0000
  H   H641      1.0  0.34233  0.84647  0.87039  1.0000
  H   H642      1.0  0.48672  0.92103  0.50968  1.0000
  C   C532      1.0  0.43700  0.89796  0.96204  1.0000
  H   H643      1.0  0.33165  0.83701  0.74870  1.0000
  H   H644      1.0  0.29476  0.84124  0.85645  1.0000
  H   H645      1.0  0.43739  0.93286  0.51409  1.0000
  H   H646      1.0  0.38910  0.80313  0.55643  1.0000
  C   C533      1.0  0.46701  0.89808  0.97046  1.0000
  N   N35       1.0  0.43370  0.92814  0.96888  1.0000
  C   C534      1.0  0.44699  0.77580  0.95163  1.0000
  C   C535      1.0  0.42988  0.76061  0.93986  1.0000
  C   C536      1.0  0.38786  0.82844  0.98428  1.0000
  H   H647      1.0  0.33343  0.88881  0.87441  1.0000
  C   C537      1.0  0.32217  0.87378  0.76448  1.0000
  C   C538      1.0  0.32207  0.87397  0.80233  1.0000
  H   H648      1.0  0.31921  0.88377  0.74984  1.0000
  S   S146      1.0  0.26583  0.75276  0.51051  1.0000
  H   H649      1.0  0.23086  0.76343  0.78010  1.0000
  H   H650      1.0  0.36126  0.75984  0.50712  1.0000
  H   H651      1.0  0.32122  0.87400  0.90978  1.0000
  H   H652      1.0  0.35685  0.84490  0.52622  1.0000
  C   C539      1.0  0.48034  0.78660  0.59797  1.0000
  C   C540      1.0  0.43067  0.90580  0.53498  1.0000
  C   C541      1.0  0.36893  0.81604  0.98161  1.0000
  H   H653      1.0  0.27850  0.75125  0.78451  1.0000
  H   H654      1.0  0.37610  0.84005  0.57004  1.0000
  C   C542      1.0  0.39749  0.88473  0.53928  1.0000
  H   H655      1.0  0.24422  0.77679  0.83602  1.0000
  C   C543      1.0  0.39377  0.89909  0.52520  1.0000
  C   C544      1.0  0.38437  0.80698  0.53183  1.0000
  H   H656      1.0  0.42512  0.75085  0.86953  1.0000
  H   H657      1.0  0.39515  0.84901  0.54081  1.0000
  H   H658      1.0  0.38204  0.87800  0.60379  1.0000
  H   H659      1.0  0.46737  0.76714  0.63824  1.0000
  S   S147      1.0  0.36996  0.93410  0.51147  1.0000
  C   C545      1.0  0.34774  0.90029  0.53967  1.0000
  C   C546      1.0  0.34078  0.85916  0.87865  1.0000
  H   H660      1.0  0.23544  0.76879  0.71565  1.0000
  H   H661      1.0  0.32520  0.86004  0.71590  1.0000
  H   H662      1.0  0.39999  0.75175  0.93800  1.0000
  H   H663      1.0  0.31897  0.88443  0.81540  1.0000
  H   H664      1.0  0.43193  0.80682  0.98348  1.0000
  H   H665      1.0  0.43321  0.95244  0.94549  1.0000
  H   H666      1.0  0.28190  0.75633  0.72042  1.0000
  N   N36       1.0  0.38205  0.86711  0.54997  1.0000
  C   C547      1.0  0.44495  0.91767  0.96791  1.0000
  C   C548      1.0  0.44759  0.79222  0.96712  1.0000
  C   C549      1.0  0.41647  0.88860  0.54398  1.0000
  C   C550      1.0  0.38810  0.85311  0.56244  1.0000
  N   N37       1.0  0.32243  0.74765  0.50394  1.0000
  C   C551      1.0  0.39600  0.81246  0.50226  1.0000
  C   C552      1.0  0.44796  0.88841  0.96334  1.0000
  H   H667      1.0  0.42231  0.88953  0.95700  1.0000
  H   H668      1.0  0.35929  0.82023  0.96881  1.0000
  C   C553      1.0  0.42643  0.91955  0.52117  1.0000
  S   S148      1.0  0.31022  0.84953  0.97509  1.0000
  C   C554      1.0  0.48931  0.76203  0.61419  1.0000
  C   C555      1.0  0.37239  0.87123  0.58003  1.0000
  H   H669      1.0  0.26841  0.78281  0.84222  1.0000
  H   H670      1.0  0.37976  0.89731  0.52122  1.0000
  S   S149      1.0  0.31288  0.84738  0.50118  1.0000
  C   C556      1.0  0.40800  0.91620  0.51641  1.0000
  H   H671      1.0  0.45538  0.75480  0.89902  1.0000
  C   C557      1.0  0.46245  0.76884  0.50600  1.0000
  H   H672      1.0  0.32266  0.77310  0.52367  1.0000
  H   H673      1.0  0.34915  0.85575  0.97996  1.0000
  H   H674      1.0  0.30244  0.75260  0.53487  1.0000
  H   H675      1.0  0.40947  0.81257  0.50408  1.0000
  C   C558      1.0  0.34852  0.86831  0.98979  1.0000
  H   H676      1.0  0.36198  0.86708  0.50955  1.0000
  H   H677      1.0  0.40463  0.92693  0.50592  1.0000
  S   S150      1.0  0.45697  0.78807  0.50043  1.0000
  C   C559      1.0  0.31261  0.75894  0.51348  1.0000
  C   C560      1.0  0.26459  0.74800  0.84634  1.0000
  S   S151      1.0  0.33879  0.78253  0.99285  1.0000
  Fe  Fe73      1.0  0.67740  0.19565  0.45846  1.0000
  S   S152      1.0  0.66321  0.20820  0.42316  1.0000
  S   S153      1.0  0.70503  0.21259  0.49120  1.0000
  Fe  Fe74      1.0  0.64800  0.15536  0.43704  1.0000
  S   S154      1.0  0.63281  0.16591  0.39890  1.0000
  C   C561      1.0  0.59957  0.18188  0.14600  1.0000
  Fe  Fe75      1.0  0.66052  0.18633  0.38038  1.0000
  S   S155      1.0  0.66796  0.19854  0.32414  1.0000
  Fe  Fe76      1.0  0.63658  0.18660  0.44415  1.0000
  S   S156      1.0  0.61150  0.19182  0.45331  1.0000
  S   S157      1.0  0.67587  0.17444  0.41491  1.0000
  C   C562      1.0  0.61948  0.18904  0.20068  1.0000
  Fe  Fe77      1.0  0.64767  0.19370  0.05142  1.0000
  S   S158      1.0  0.66602  0.19371  0.00645  1.0000
  H   H678      1.0  0.62848  0.21588  0.12756  1.0000
  Fe  Fe78      1.0  0.66610  0.17899  0.10658  1.0000
  S   S159      1.0  0.68581  0.17761  0.06544  1.0000
  S   S160      1.0  0.66202  0.16554  0.16175  1.0000
  Fe  Fe79      1.0  0.68960  0.20610  0.04854  1.0000
  S   S161      1.0  0.71886  0.23101  0.04641  1.0000
  Fe  Fe80      1.0  0.66091  0.16539  0.02628  1.0000
  H   H679      1.0  0.61858  0.21877  0.16950  1.0000
  S   S162      1.0  0.67127  0.20797  0.09249  1.0000
  S   S163      1.0  0.64123  0.16485  0.06815  1.0000
  H   H680      1.0  0.62356  0.12157  0.03675  1.0000
  C   C563      1.0  0.70994  0.19607  0.33801  1.0000
  C   C564      1.0  0.62702  0.21253  0.15675  1.0000
  H   H681      1.0  0.54976  0.15327  0.10118  1.0000
  C   C565      1.0  0.52547  0.09085  0.47589  1.0000
  C   C566      1.0  0.66089  0.09799  0.02444  1.0000
  C   C567      1.0  0.50526  0.05102  0.00315  1.0000
  H   H682      1.0  0.56425  0.13735  0.13749  1.0000
  C   C568      1.0  0.66335  0.17503  0.20658  1.0000
  C   C569      1.0  0.65741  0.16285  0.23537  1.0000
  C   C570      1.0  0.65845  0.16970  0.27141  1.0000
  C   C571      1.0  0.66558  0.18888  0.27918  1.0000
  C   C572      1.0  0.67143  0.20104  0.25036  1.0000
  C   C573      1.0  0.67030  0.19420  0.21432  1.0000
  H   H683      1.0  0.65204  0.14800  0.22981  1.0000
  H   H684      1.0  0.65392  0.16015  0.29320  1.0000
  H   H685      1.0  0.67706  0.21592  0.25602  1.0000
  H   H686      1.0  0.67519  0.20380  0.19268  1.0000
  C   C574      1.0  0.61316  0.08780  0.46102  1.0000
  C   C575      1.0  0.62181  0.11211  0.01398  1.0000
  H   H687      1.0  0.62631  0.16997  0.14692  1.0000
  H   H688      1.0  0.70050  0.15028  0.33895  1.0000
  C   C576      1.0  0.70276  0.17729  0.32677  1.0000
  H   H689      1.0  0.74534  0.24341  0.42337  1.0000
  H   H690      1.0  0.59808  0.13783  0.42823  1.0000
  H   H691      1.0  0.59406  0.20771  0.01548  1.0000
  H   H692      1.0  0.69399  0.17228  0.30230  1.0000
  C   C577      1.0  0.56335  0.16121  0.11428  1.0000
  H   H693      1.0  0.70375  0.21737  0.41329  1.0000
  C   C578      1.0  0.60261  0.18743  0.03483  1.0000
  C   C579      1.0  0.60615  0.07384  0.48664  1.0000
  C   C580      1.0  0.57291  0.18029  0.10958  1.0000
  H   H694      1.0  0.60969  0.19293  0.21531  1.0000
  C   C581      1.0  0.62529  0.10640  0.47159  1.0000
  H   H695      1.0  0.56667  0.18705  0.09276  1.0000
  H   H696      1.0  0.50749  0.08442  0.02472  1.0000
  C   C582      1.0  0.55419  0.12642  0.49029  1.0000
  H   H697      1.0  0.59706  0.05960  0.47785  1.0000
  H   H698      1.0  0.64536  0.19249  0.15289  1.0000
  H   H699      1.0  0.63363  0.19742  0.21323  1.0000
  C   C583      1.0  0.50052  0.07836  0.99793  1.0000
  C   C584      1.0  0.50513  0.21574  0.99925  1.0000
  H   H700      1.0  0.70623  0.20494  0.32153  1.0000
  H   H701      1.0  0.51338  0.05568  0.02934  1.0000
  H   H702      1.0  0.60926  0.08411  0.43268  1.0000
  H   H703      1.0  0.67184  0.10803  0.00921  1.0000
  C   C585      1.0  0.58410  0.13439  0.43859  1.0000
  H   H704      1.0  0.69486  0.14494  0.07776  1.0000
  C   C586      1.0  0.59688  0.16862  0.04128  1.0000
  C   C587      1.0  0.58942  0.16240  0.15021  1.0000
  N   N38       1.0  0.61879  0.19208  0.16136  1.0000
  C   C588      1.0  0.73778  0.23525  0.35312  1.0000
  H   H705      1.0  0.60650  0.16408  0.05295  1.0000
  H   H706      1.0  0.59542  0.15475  0.16484  1.0000
  H   H707      1.0  0.61608  0.17435  0.20635  1.0000
  H   H708      1.0  0.70568  0.24735  0.46438  1.0000
  H   H709      1.0  0.59763  0.20509  0.11881  1.0000
  S   S164      1.0  0.54283  0.14399  0.00875  1.0000
  C   C589      1.0  0.57159  0.15227  0.13456  1.0000
  C   C590      1.0  0.58973  0.19313  0.02033  1.0000
  N   N39       1.0  0.72772  0.22291  0.38243  1.0000
  H   H710      1.0  0.63019  0.18689  0.11324  1.0000
  H   H711      1.0  0.57636  0.09042  0.45728  1.0000
  C   C591      1.0  0.63065  0.18502  0.14285  1.0000
  H   H712      1.0  0.61849  0.06073  0.07052  1.0000
  H   H713      1.0  0.64130  0.21981  0.16932  1.0000
  N   N40       1.0  0.66970  0.11932  0.08139  1.0000
  H   H714      1.0  0.73233  0.19390  0.41633  1.0000
  C   C592      1.0  0.67690  0.11515  0.11554  1.0000
  C   C593      1.0  0.68594  0.13202  0.06132  1.0000
  C   C594      1.0  0.65771  0.10174  0.06077  1.0000
  C   C595      1.0  0.64212  0.08777  0.07694  1.0000
  C   C596      1.0  0.72444  0.19006  0.39091  1.0000
  C   C597      1.0  0.54351  0.09479  0.46621  1.0000
  H   H715      1.0  0.71973  0.16153  0.39568  1.0000
  C   C598      1.0  0.63436  0.06765  0.02289  1.0000
  C   C599      1.0  0.65876  0.12956  0.09045  1.0000
  H   H716      1.0  0.54540  0.08341  0.45375  1.0000
  H   H717      1.0  0.65345  0.13328  0.06546  1.0000
  H   H718      1.0  0.66570  0.10750  0.13426  1.0000
  H   H719      1.0  0.68666  0.12814  0.13088  1.0000
  H   H720      1.0  0.68437  0.10656  0.11000  1.0000
  S   S165      1.0  0.65065  0.17546  0.48318  1.0000
  H   H721      1.0  0.75302  0.22630  0.41008  1.0000
  H   H722      1.0  0.69487  0.12524  0.05364  1.0000
  H   H723      1.0  0.63847  0.08982  0.10403  1.0000
  H   H724      1.0  0.68155  0.13677  0.03636  1.0000
  C   C600      1.0  0.71722  0.17128  0.37935  1.0000
  C   C601      1.0  0.64941  0.08111  0.00605  1.0000
  H   H725      1.0  0.57507  0.18790  0.46528  1.0000
  C   C602      1.0  0.59079  0.19054  0.12492  1.0000
  H   H726      1.0  0.59888  0.08903  0.03656  1.0000
  C   C603      1.0  0.57937  0.10275  0.44066  1.0000
  C   C604      1.0  0.72100  0.20309  0.37044  1.0000
  S   S166      1.0  0.52145  0.02025  0.48385  1.0000
  C   C605      1.0  0.60766  0.09364  0.01366  1.0000
  S   S167      1.0  0.63362  0.12329  0.43757  1.0000
  H   H727      1.0  0.57417  0.14114  0.03912  1.0000
  H   H728      1.0  0.57443  0.13192  0.41485  1.0000
  H   H729      1.0  0.62510  0.05486  0.00807  1.0000
  C   C606      1.0  0.71162  0.22637  0.39130  1.0000
  C   C607      1.0  0.63065  0.07101  0.05816  1.0000
  C   C608      1.0  0.57129  0.18000  0.01176  1.0000
  H   H730      1.0  0.73353  0.22048  0.43877  1.0000
  H   H731      1.0  0.74908  0.23198  0.34361  1.0000
  C   C609      1.0  0.70637  0.16491  0.34742  1.0000
  C   C610      1.0  0.57850  0.15559  0.03323  1.0000
  H   H732      1.0  0.60476  0.12699  0.48689  1.0000
  S   S168      1.0  0.62570  0.20403  0.04494  1.0000
  H   H733      1.0  0.70169  0.22334  0.36776  1.0000
  C   C611      1.0  0.50105  0.00074  0.46970  1.0000
  H   H734      1.0  0.71595  0.24110  0.40059  1.0000
  C   C612      1.0  0.56568  0.16116  0.01820  1.0000
  H   H735      1.0  0.66726  0.14273  0.10645  1.0000
  H   H736      1.0  0.58560  0.14726  0.45349  1.0000
  H   H737      1.0  0.64665  0.12140  0.10683  1.0000
  C   C613      1.0  0.55841  0.11292  0.47253  1.0000
  H   H738      1.0  0.57016  0.09836  0.41581  1.0000
  N   N41       1.0  0.57758  0.11795  0.46159  1.0000
  H   H739      1.0  0.59374  0.10729  0.43144  1.0000
  H   H740      1.0  0.49326  0.01590  0.43103  1.0000
  C   C614      1.0  0.57932  0.18257  0.48848  1.0000
  H   H741      1.0  0.61294  0.24189  0.46829  1.0000
  C   C615      1.0  0.74050  0.22844  0.41496  1.0000
  C   C616      1.0  0.49980  0.24222  0.02169  1.0000
  C   C617      1.0  0.51184  0.23481  0.01002  1.0000
  C   C618      1.0  0.59675  0.18256  0.48958  1.0000
  H   H742      1.0  0.72852  0.23395  0.32933  1.0000
  H   H743      1.0  0.51426  0.07702  0.47037  1.0000
  H   H744      1.0  0.56144  0.18446  0.00060  1.0000
  C   C619      1.0  0.52178  0.10465  0.49246  1.0000
  H   H745      1.0  0.52652  0.24386  0.00936  1.0000
  C   C620      1.0  0.73417  0.24758  0.01612  1.0000
  S   S169      1.0  0.49266  0.13974  0.00298  1.0000
  Fe  Fe81      1.0  0.57850  0.03278  0.55414  1.0000
  S   S170      1.0  0.55354  0.03629  0.57025  1.0000
  C   C621      1.0  0.53893  0.09716  0.98274  1.0000
  C   C622      1.0  0.56929  0.15160  0.85728  1.0000
  S   S171      1.0  0.65382  0.14020  0.98700  1.0000
  Fe  Fe82      1.0  0.57193  0.03308  0.94711  1.0000
  S   S172      1.0  0.55751  0.03752  0.89812  1.0000
  H   H746      1.0  0.54029  0.01771  0.79478  1.0000
  H   H747      1.0  0.63079  0.08336  0.66688  1.0000
  C   C623      1.0  0.71905  0.23684  0.61205  1.0000
  C   C624      1.0  0.50294  0.22135  0.52377  1.0000
  S   S173      1.0  0.57813  0.01115  0.91867  1.0000
  S   S174      1.0  0.52063  0.17730  0.61319  1.0000
  H   H748      1.0  0.58549  0.05831  0.62019  1.0000
  Fe  Fe83      1.0  0.52885  0.15777  0.58201  1.0000
  C   C625      1.0  0.60199  0.06188  0.70839  1.0000
  S   S175      1.0  0.56360  0.01235  0.50776  1.0000
  C   C626      1.0  0.59698  0.22062  0.56125  1.0000
  H   H749      1.0  0.60743  0.04609  0.62500  1.0000
  C   C627      1.0  0.59494  0.16678  0.93957  1.0000
  H   H750      1.0  0.55688  0.15125  0.84238  1.0000
  S   S176      1.0  0.51915  0.17021  0.94447  1.0000
  H   H751      1.0  0.63082  0.06707  0.71737  1.0000
  H   H752      1.0  0.54332  0.20864  0.57560  1.0000
  Fe  Fe84      1.0  0.52006  0.14749  0.97775  1.0000
  C   C628      1.0  0.61167  0.07813  0.52323  1.0000
  H   H753      1.0  0.59810  0.03327  0.66462  1.0000
  H   H754      1.0  0.57351  0.04412  0.65621  1.0000
  H   H755      1.0  0.71623  0.23744  0.96838  1.0000
  S   S177      1.0  0.57320  0.00965  0.59310  1.0000
  H   H756      1.0  0.54799  0.13048  0.93265  1.0000
  H   H757      1.0  0.56546  0.12140  0.98523  1.0000
  H   H758      1.0  0.54805  0.16313  0.89496  1.0000
  C   C629      1.0  0.71054  0.24232  0.58474  1.0000
  C   C630      1.0  0.58580  0.05899  0.72725  1.0000
  H   H759      1.0  0.58247  0.12598  0.89013  1.0000
  S   S178      1.0  0.53622  0.01417  0.66180  1.0000
  S   S179      1.0  0.55822  0.16076  0.58440  1.0000
  H   H760      1.0  0.61335  0.09163  0.66721  1.0000
  Fe  Fe85      1.0  0.53850  0.01472  0.52635  1.0000
  S   S180      1.0  0.50461  0.01544  0.92166  1.0000
  C   C631      1.0  0.56122  0.16489  0.90881  1.0000
  C   C632      1.0  0.61800  0.06474  0.72976  1.0000
  H   H761      1.0  0.62203  0.04994  0.66421  1.0000
  S   S181      1.0  0.50771  0.12573  0.93296  1.0000
  S   S182      1.0  0.60491  0.06057  0.55600  1.0000
  H   H762      1.0  0.57281  0.05630  0.71354  1.0000
  H   H763      1.0  0.61077  0.12821  0.92049  1.0000
  H   H764      1.0  0.57993  0.06888  0.65790  1.0000
  C   C633      1.0  0.56277  0.01110  0.70700  1.0000
  C   C634      1.0  0.55074  0.13193  0.90326  1.0000
  C   C635      1.0  0.50584  0.07619  0.57856  1.0000
  H   H765      1.0  0.61694  0.08073  0.62691  1.0000
  H   H766      1.0  0.56487  0.14031  0.49666  1.0000
  S   S183      1.0  0.54586  0.01093  0.96950  1.0000
  C   C636      1.0  0.59292  0.23659  0.50959  1.0000
  C   C637      1.0  0.55808  0.10657  0.97861  1.0000
  H   H767      1.0  0.63972  0.12501  0.51700  1.0000
  H   H768      1.0  0.56066  0.20043  0.57803  1.0000
  C   C638      1.0  0.63102  0.10545  0.95584  1.0000
  H   H769      1.0  0.61976  0.17974  0.97404  1.0000
  H   H770      1.0  0.55291  0.11984  0.89361  1.0000
  H   H771      1.0  0.59020  0.13461  0.51070  1.0000
  C   C639      1.0  0.60156  0.06120  0.78507  1.0000
  C   C640      1.0  0.61770  0.06428  0.76750  1.0000
  S   S184      1.0  0.51183  0.20500  0.53431  1.0000
  C   C641      1.0  0.58369  0.15154  0.91547  1.0000
  Fe  Fe86      1.0  0.53197  0.01429  0.91888  1.0000
  C   C642      1.0  0.61130  0.16794  0.95590  1.0000
  H   H772      1.0  0.53240  0.15670  0.77364  1.0000
  S   S185      1.0  0.51657  0.15091  0.84371  1.0000
  C   C643      1.0  0.60623  0.13893  0.92569  1.0000
  H   H773      1.0  0.50364  0.05049  0.93028  1.0000
  C   C644      1.0  0.60212  0.17559  0.51960  1.0000
  C   C645      1.0  0.55834  0.07796  0.95753  1.0000
  H   H774      1.0  0.59147  0.17803  0.94639  1.0000
  N   N42       1.0  0.60255  0.06181  0.66841  1.0000
  H   H775      1.0  0.57170  0.13997  0.84549  1.0000
  Fe  Fe87      1.0  0.56199  0.01442  0.87081  1.0000
  C   C646      1.0  0.51784  0.15303  0.76930  1.0000
  H   H776      1.0  0.53343  0.13301  0.51363  1.0000
  C   C647      1.0  0.51060  0.15199  0.73364  1.0000
  C   C648      1.0  0.61684  0.15401  0.94921  1.0000
  C   C649      1.0  0.73900  0.24154  0.51274  1.0000
  H   H777      1.0  0.51958  0.15484  0.71103  1.0000
  Fe  Fe88      1.0  0.50476  0.14762  0.90056  1.0000
  H   H778      1.0  0.56300  0.23837  0.60995  1.0000
  C   C650      1.0  0.58575  0.05880  0.76502  1.0000
  H   H779      1.0  0.57311  0.05599  0.77885  1.0000
  C   C651      1.0  0.72185  0.23660  0.49419  1.0000
  C   C652      1.0  0.54660  0.01584  0.77047  1.0000
  H   H780      1.0  0.50889  0.08872  0.56401  1.0000
  C   C653      1.0  0.52893  0.07765  0.97484  1.0000
  H   H781      1.0  0.53252  0.05368  0.95373  1.0000
  H   H782      1.0  0.69771  0.23226  0.57138  1.0000
  H   H783      1.0  0.56597  0.07050  0.94824  1.0000
  C   C654      1.0  0.49237  0.00213  0.95747  1.0000
  N   N43       1.0  0.56659  0.15014  0.89676  1.0000
  H   H784      1.0  0.57183  0.17904  0.90253  1.0000
  C   C655      1.0  0.59025  0.16911  0.54868  1.0000
  H   H785      1.0  0.51463  0.21039  0.99041  1.0000
  C   C656      1.0  0.58998  0.13774  0.90875  1.0000
  N   N44       1.0  0.57009  0.22867  0.56027  1.0000
  C   C657      1.0  0.61651  0.08711  0.95505  1.0000
  C   C658      1.0  0.49730  0.05869  0.56038  1.0000
  C   C659      1.0  0.56161  0.23890  0.53987  1.0000
  H   H786      1.0  0.58608  0.11067  0.51200  1.0000
  H   H787      1.0  0.53786  0.13049  0.88866  1.0000
  H   H788      1.0  0.59262  0.21367  0.58635  1.0000
  H   H789      1.0  0.71260  0.22250  0.62012  1.0000
  C   C660      1.0  0.58669  0.22880  0.54361  1.0000
  H   H790      1.0  0.55110  0.20240  0.53491  1.0000
  H   H791      1.0  0.54931  0.23869  0.55353  1.0000
  C   C661      1.0  0.61652  0.08018  0.65700  1.0000
  Fe  Fe89      1.0  0.50455  0.17705  0.56187  1.0000
  H   H792      1.0  0.64030  0.10980  0.93366  1.0000
  H   H793      1.0  0.60114  0.06025  0.81424  1.0000
  H   H794      1.0  0.62994  0.06604  0.78326  1.0000
  H   H795      1.0  0.61556  0.17559  0.52077  1.0000
  Fe  Fe90      1.0  0.54743  0.01240  0.60655  1.0000
  C   C662      1.0  0.53919  0.06843  0.96123  1.0000
  H   H796      1.0  0.59459  0.16400  0.57210  1.0000
  C   C663      1.0  0.57282  0.16917  0.54759  1.0000
  C   C664      1.0  0.54662  0.01354  0.70429  1.0000
  C   C665      1.0  0.58455  0.05812  0.65012  1.0000
  N   N45       1.0  0.50878  0.06707  0.98015  1.0000
  S   S186      1.0  0.51412  0.15848  0.53058  1.0000
  C   C666      1.0  0.60777  0.04717  0.65513  1.0000
  C   C667      1.0  0.63034  0.11084  0.50836  1.0000
  C   C668      1.0  0.50642  0.06162  0.63437  1.0000
  H   H797      1.0  0.61482  0.07749  0.93255  1.0000
  H   H798      1.0  0.55884  0.16447  0.93836  1.0000
  H   H799      1.0  0.58140  0.16490  0.85125  1.0000
  C   C669      1.0  0.51448  0.23783  0.50679  1.0000
  H   H800      1.0  0.49405  0.05862  0.53188  1.0000
  C   C670      1.0  0.50648  0.14944  0.79931  1.0000
  C   C671      1.0  0.57092  0.01130  0.74128  1.0000
  H   H801      1.0  0.49499  0.03203  0.63242  1.0000
  H   H802      1.0  0.62831  0.10025  0.56200  1.0000
  C   C672      1.0  0.51041  0.07765  0.61543  1.0000
  C   C673      1.0  0.53856  0.01583  0.73618  1.0000
  H   H803      1.0  0.55380  0.17542  0.51553  1.0000
  C   C674      1.0  0.63401  0.11797  0.98559  1.0000
  H   H804      1.0  0.62950  0.15501  0.96212  1.0000
  S   S187      1.0  0.50522  0.13171  0.60049  1.0000
  H   H805      1.0  0.50109  0.07156  0.92654  1.0000
  C   C675      1.0  0.56731  0.17569  0.51713  1.0000
  C   C676      1.0  0.62378  0.09673  0.53388  1.0000
  H   H806      1.0  0.51708  0.09127  0.62930  1.0000
  C   C677      1.0  0.56290  0.01369  0.77317  1.0000
  C   C678      1.0  0.61277  0.22068  0.54628  1.0000
  H   H807      1.0  0.58272  0.10413  0.96435  1.0000
  C   C679      1.0  0.57498  0.23730  0.59746  1.0000
  C   C680      1.0  0.61858  0.22853  0.51307  1.0000
  H   H808      1.0  0.55625  0.23226  0.51248  1.0000
  C   C681      1.0  0.53618  0.12233  0.50010  1.0000
  Fe  Fe91      1.0  0.49570  0.15139  0.62780  1.0000
  C   C682      1.0  0.49891  0.05993  0.94457  1.0000
  C   C683      1.0  0.55577  0.20919  0.56237  1.0000
  H   H809      1.0  0.58350  0.00958  0.74311  1.0000
  C   C684      1.0  0.56780  0.09694  0.96652  1.0000
  H   H810      1.0  0.52604  0.01767  0.73438  1.0000
  H   H811      1.0  0.74168  0.23077  0.52479  1.0000
  H   H812      1.0  0.50981  0.02179  0.55667  1.0000
  S   S188      1.0  0.57408  0.01455  0.81560  1.0000
  H   H813      1.0  0.62015  0.21396  0.55979  1.0000
  C   C685      1.0  0.60505  0.08091  0.98450  1.0000
  H   H814      1.0  0.65177  0.07869  0.97810  1.0000
  H   H815      1.0  0.58576  0.24267  0.49366  1.0000
  H   H816      1.0  0.56890  0.00897  0.68273  1.0000
  H   H817      1.0  0.57912  0.22901  0.61606  1.0000
  H   H818      1.0  0.63042  0.22790  0.50087  1.0000
  H   H819      1.0  0.50774  0.10166  0.49949  1.0000
  H   H820      1.0  0.50113  0.08982  0.98077  1.0000
  S   S189      1.0  0.58881  0.05709  0.98831  1.0000
  C   C686      1.0  0.49780  0.04405  0.61653  1.0000
  H   H821      1.0  0.52839  0.24031  0.50049  1.0000
  H   H822      1.0  0.49702  0.01043  0.59493  1.0000
  C   C687      1.0  0.59014  0.12275  0.49424  1.0000
  C   C688      1.0  0.49559  0.01337  0.56616  1.0000
  H   H823      1.0  0.49384  0.03118  0.50733  1.0000
  H   H824      1.0  0.74198  0.24429  0.64880  1.0000
  H   H825      1.0  0.50899  0.04055  0.98994  1.0000
  H   H826      1.0  0.51006  0.06278  0.66306  1.0000
  C   C689      1.0  0.60863  0.23636  0.49468  1.0000
  C   C690      1.0  0.49300  0.04202  0.57892  1.0000
  H   H827      1.0  0.53232  0.10546  0.99255  1.0000
  Fe  Fe92      1.0  0.96964  0.41245  0.44924  1.0000
  S   S190      1.0  0.96435  0.42207  0.39545  1.0000
  C   C691      1.0  0.88460  0.41910  0.47580  1.0000
  S   S191      1.0  0.50617  0.31332  0.02163  1.0000
  H   H828      1.0  0.78214  0.38592  0.44566  1.0000
  H   H829      1.0  0.51345  0.35351  0.16761  1.0000
  H   H830      1.0  0.72798  0.36480  0.01918  1.0000
  H   H831      1.0  0.78172  0.32940  0.03938  1.0000
  Fe  Fe93      1.0  0.97833  0.42182  0.02906  1.0000
  Fe  Fe94      1.0  0.50052  0.28876  0.05661  1.0000
  S   S192      1.0  0.97661  0.44180  0.07076  1.0000
  H   H832      1.0  0.56196  0.38744  0.19706  1.0000
  S   S193      1.0  0.52195  0.30389  0.44098  1.0000
  N   N46       1.0  0.51875  0.46116  0.01647  1.0000
  S   S194      1.0  0.51670  0.34085  0.42159  1.0000
  Fe  Fe95      1.0  0.50823  0.31233  0.39562  1.0000
  Fe  Fe96      1.0  0.52763  0.33128  0.46887  1.0000
  S   S195      1.0  0.77833  0.46142  0.16743  1.0000
  C   C692      1.0  0.71875  0.25077  0.47860  1.0000
  S   S196      1.0  0.81691  0.47497  0.42111  1.0000
  Fe  Fe97      1.0  0.77135  0.47922  0.44372  1.0000
  S   S197      1.0  0.77251  0.46044  0.39793  1.0000
  Fe  Fe98      1.0  0.49257  0.30854  0.12300  1.0000
  Fe  Fe99      1.0  0.78954  0.45262  0.43726  1.0000
  H   H833      1.0  0.93934  0.40557  0.06214  1.0000
  Fe  Fe100     1.0  0.79969  0.48387  0.38441  1.0000
  S   S198      1.0  0.78638  0.46950  0.48388  1.0000
  C   C693      1.0  0.92134  0.44322  0.45692  1.0000
  H   H834      1.0  0.95547  0.46295  0.99487  1.0000
  H   H835      1.0  0.93293  0.42908  0.09719  1.0000
  Fe  Fe101     1.0  0.52200  0.33126  0.07006  1.0000
  S   S199      1.0  0.54977  0.35673  0.07134  1.0000
  H   H836      1.0  0.92783  0.43838  0.00290  1.0000
  H   H837      1.0  0.98134  0.43551  0.29785  1.0000
  C   C694      1.0  0.75167  0.26114  0.02960  1.0000
  S   S200      1.0  0.51822  0.30706  0.10399  1.0000
  Fe  Fe102     1.0  0.78595  0.46917  0.10872  1.0000
  H   H838      1.0  0.71640  0.48639  0.13587  1.0000
  Fe  Fe103     1.0  0.78090  0.44884  0.03504  1.0000
  C   C695      1.0  0.89041  0.43851  0.47181  1.0000
  H   H839      1.0  0.51938  0.45210  0.07040  1.0000
  H   H840      1.0  0.75552  0.26125  0.05784  1.0000
  C   C696      1.0  0.79013  0.39481  0.46852  1.0000
  S   S201      1.0  0.80546  0.46277  0.07404  1.0000
  S   S202      1.0  0.76092  0.45296  0.07128  1.0000
  H   H841      1.0  0.92095  0.42264  0.13935  1.0000
  C   C697      1.0  0.55512  0.37212  0.03533  1.0000
  C   C698      1.0  0.57194  0.38843  0.03690  1.0000
  C   C699      1.0  0.71564  0.49485  0.01031  1.0000
  H   H842      1.0  0.58126  0.39167  0.06042  1.0000
  C   C700      1.0  0.51819  0.35771  0.27920  1.0000
  H   H843      1.0  0.83735  0.47293  0.99851  1.0000
  C   C701      1.0  0.78321  0.46986  0.27728  1.0000
  H   H844      1.0  0.51967  0.42166  0.48327  1.0000
  H   H845      1.0  0.54877  0.33670  0.18633  1.0000
  H   H846      1.0  0.83184  0.44863  0.99740  1.0000
  C   C702      1.0  0.81468  0.40796  0.02383  1.0000
  C   C703      1.0  0.80301  0.41679  0.02515  1.0000
  C   C704      1.0  0.89719  0.37407  0.07396  1.0000
  H   H847      1.0  0.82629  0.41224  0.04312  1.0000
  H   H848      1.0  0.80562  0.42775  0.04542  1.0000
  C   C705      1.0  0.49784  0.26281  0.39326  1.0000
  S   S203      1.0  0.51429  0.30536  0.33816  1.0000
  C   C706      1.0  0.92379  0.38301  0.49066  1.0000
  C   C707      1.0  0.78716  0.47131  0.21162  1.0000
  C   C708      1.0  0.69347  0.45664  0.00092  1.0000
  Fe  Fe104     1.0  0.49447  0.29278  0.46688  1.0000
  H   H849      1.0  0.75982  0.48044  0.13581  1.0000
  H   H850      1.0  0.59239  0.39041  0.43331  1.0000
  C   C709      1.0  0.88373  0.43257  0.99400  1.0000
  H   H851      1.0  0.54795  0.32469  0.03161  1.0000
  H   H852      1.0  0.49692  0.46872  0.03035  1.0000
  C   C710      1.0  0.52613  0.46483  0.05450  1.0000
  H   H853      1.0  0.55907  0.35015  0.24254  1.0000
  S   S204      1.0  0.59090  0.49024  0.01291  1.0000
  H   H854      1.0  0.49786  0.26138  0.42306  1.0000
  C   C711      1.0  0.97684  0.48412  0.46076  1.0000
  H   H855      1.0  0.57148  0.29466  0.01105  1.0000
  C   C712      1.0  0.81112  0.49343  0.25352  1.0000
  C   C713      1.0  0.63319  0.40829  0.48453  1.0000
  H   H856      1.0  0.52599  0.35060  0.33046  1.0000
  C   C714      1.0  0.88667  0.45109  0.99647  1.0000
  H   H857      1.0  0.52372  0.29845  0.26686  1.0000
  H   H858      1.0  0.61864  0.36095  0.48613  1.0000
  H   H859      1.0  0.73218  0.30983  0.00871  1.0000
  C   C715      1.0  0.66617  0.42876  0.48556  1.0000
  C   C716      1.0  0.93977  0.48977  0.04153  1.0000
  H   H860      1.0  0.55217  0.46016  0.00717  1.0000
  C   C717      1.0  0.91683  0.44267  0.00173  1.0000
  N   N47       1.0  0.53401  0.48541  0.49025  1.0000
  N   N48       1.0  0.76076  0.32960  0.00199  1.0000
  S   S205      1.0  0.82607  0.38260  0.99832  1.0000
  H   H861      1.0  0.79057  0.34306  0.99993  1.0000
  H   H862      1.0  0.90741  0.34512  0.00261  1.0000
  H   H863      1.0  0.81950  0.45871  0.22096  1.0000
  H   H864      1.0  0.53022  0.35555  0.00313  1.0000
  C   C718      1.0  0.77269  0.35953  0.04169  1.0000
  H   H865      1.0  0.51250  0.49262  0.47141  1.0000
  S   S206      1.0  0.98719  0.44154  0.47130  1.0000
  C   C719      1.0  0.55273  0.31365  0.03015  1.0000
  Fe  Fe105     1.0  0.81016  0.48891  0.04520  1.0000
  C   C720      1.0  0.80440  0.48674  0.21779  1.0000
  C   C721      1.0  0.95361  0.47087  0.01841  1.0000
  C   C722      1.0  0.87122  0.37761  0.04734  1.0000
  C   C723      1.0  0.52999  0.43589  0.48906  1.0000
  H   H866      1.0  0.52381  0.47617  0.06819  1.0000
  N   N49       1.0  0.79209  0.42659  0.32452  1.0000
  C   C724      1.0  0.79473  0.41023  0.33565  1.0000
  C   C725      1.0  0.80565  0.44310  0.34622  1.0000
  C   C726      1.0  0.77326  0.42376  0.33413  1.0000
  C   C727      1.0  0.79410  0.42857  0.28498  1.0000
  C   C728      1.0  0.78177  0.41420  0.26048  1.0000
  C   C729      1.0  0.80800  0.44460  0.26960  1.0000
  C   C730      1.0  0.78295  0.41599  0.22303  1.0000
  C   C731      1.0  0.80919  0.44611  0.23211  1.0000
  C   C732      1.0  0.79657  0.43197  0.20889  1.0000
  H   H867      1.0  0.80859  0.41162  0.32821  1.0000
  H   H868      1.0  0.79373  0.40866  0.36553  1.0000
  H   H869      1.0  0.78408  0.39694  0.32297  1.0000
  H   H870      1.0  0.82019  0.44583  0.34137  1.0000
  H   H871      1.0  0.80385  0.44111  0.37572  1.0000
  H   H872      1.0  0.80393  0.45584  0.34037  1.0000
  H   H873      1.0  0.76217  0.41057  0.32211  1.0000
  H   H874      1.0  0.77155  0.42308  0.36392  1.0000
  H   H875      1.0  0.77045  0.43541  0.32497  1.0000
  H   H876      1.0  0.77092  0.40159  0.27016  1.0000
  H   H877      1.0  0.81778  0.45649  0.28582  1.0000
  H   H878      1.0  0.72822  0.49673  0.09623  1.0000
  C   C733      1.0  0.92703  0.37411  0.99938  1.0000
  H   H879      1.0  0.95038  0.46207  0.04239  1.0000
  C   C734      1.0  0.74651  0.31195  0.01555  1.0000
  H   H880      1.0  0.50649  0.35925  0.28989  1.0000
  C   C735      1.0  0.50599  0.30352  0.22845  1.0000
  H   H881      1.0  0.93409  0.39515  0.15995  1.0000
  H   H882      1.0  0.74412  0.25023  0.36230  1.0000
  C   C736      1.0  0.80066  0.48496  0.28352  1.0000
  S   S207      1.0  0.81011  0.49373  0.32798  1.0000
  H   H883      1.0  0.71313  0.49100  0.44411  1.0000
  C   C737      1.0  0.92029  0.46172  0.00493  1.0000
  H   H884      1.0  0.81272  0.49331  0.19512  1.0000
  C   C738      1.0  0.76435  0.27443  0.00692  1.0000
  C   C739      1.0  0.60401  0.37387  0.45822  1.0000
  S   S208      1.0  0.78635  0.47446  0.00454  1.0000
  H   H885      1.0  0.87457  0.35250  0.04243  1.0000
  H   H886      1.0  0.51135  0.26405  0.38383  1.0000
  H   H887      1.0  0.87498  0.45436  0.99418  1.0000
  H   H888      1.0  0.91269  0.46503  0.45922  1.0000
  H   H889      1.0  0.52485  0.33010  0.17510  1.0000
  H   H890      1.0  0.52893  0.37805  0.17643  1.0000
  H   H891      1.0  0.54131  0.46928  0.05650  1.0000
  S   S209      1.0  0.50933  0.26658  0.03480  1.0000
  H   H892      1.0  0.54714  0.28041  0.00390  1.0000
  H   H893      1.0  0.55197  0.34595  0.30641  1.0000
  H   H894      1.0  0.56376  0.40849  0.45709  1.0000
  C   C740      1.0  0.61821  0.40762  0.46230  1.0000
  H   H895      1.0  0.73558  0.46850  0.14356  1.0000
  S   S210      1.0  0.97412  0.47388  0.41719  1.0000
  C   C741      1.0  0.93047  0.42021  0.12098  1.0000
  H   H896      1.0  0.94404  0.42544  0.13637  1.0000
  C   C742      1.0  0.72738  0.48105  0.48141  1.0000
  N   N50       1.0  0.93917  0.47723  0.01058  1.0000
  H   H897      1.0  0.56320  0.37613  0.15512  1.0000
  C   C743      1.0  0.85768  0.39041  0.45641  1.0000
  H   H898      1.0  0.54241  0.34241  0.14370  1.0000
  S   S211      1.0  0.74779  0.49219  0.02967  1.0000
  C   C744      1.0  0.98415  0.42859  0.27492  1.0000
  H   H899      1.0  0.76319  0.45113  0.23718  1.0000
  H   H900      1.0  0.78147  0.38543  0.07274  1.0000
  C   C745      1.0  0.49885  0.45710  0.01697  1.0000
  H   H901      1.0  0.72972  0.28035  0.47039  1.0000
  H   H902      1.0  0.68870  0.48883  0.48627  1.0000
  C   C746      1.0  0.90542  0.39274  0.08832  1.0000
  H   H903      1.0  0.92620  0.41887  0.45743  1.0000
  H   H904      1.0  0.51232  0.36305  0.22604  1.0000
  H   H905      1.0  0.95402  0.49106  0.45353  1.0000
  H   H906      1.0  0.90998  0.39020  0.15959  1.0000
  C   C747      1.0  0.55911  0.38181  0.47699  1.0000
  C   C748      1.0  0.51501  0.48014  0.47508  1.0000
  C   C749      1.0  0.52172  0.35982  0.24235  1.0000
  H   H907      1.0  0.74353  0.47772  0.10020  1.0000
  C   C750      1.0  0.90466  0.46548  0.00138  1.0000
  C   C751      1.0  0.51260  0.30246  0.26361  1.0000
  C   C752      1.0  0.88040  0.36670  0.05373  1.0000
  C   C753      1.0  0.98446  0.42384  0.20915  1.0000
  H   H908      1.0  0.66587  0.42932  0.45554  1.0000
  H   H909      1.0  0.75311  0.38886  0.05779  1.0000
  C   C754      1.0  0.89400  0.36410  0.45908  1.0000
  Fe  Fe106     1.0  0.98315  0.45097  0.41739  1.0000
  S   S212      1.0  0.74523  0.48407  0.45045  1.0000
  S   S213      1.0  0.79231  0.49639  0.08266  1.0000
  H   H910      1.0  0.59248  0.36073  0.44934  1.0000
  C   C755      1.0  0.55995  0.37388  0.18426  1.0000
  H   H911      1.0  0.88618  0.35802  0.43398  1.0000
  S   S214      1.0  0.97829  0.42815  0.16505  1.0000
  C   C756      1.0  0.54765  0.35253  0.25182  1.0000
  C   C757      1.0  0.73246  0.26954  0.48211  1.0000
  C   C758      1.0  0.77919  0.33018  0.00994  1.0000
  H   H912      1.0  0.79710  0.43365  0.17989  1.0000
  C   C759      1.0  0.79333  0.41356  0.47080  1.0000
  H   H913      1.0  0.91717  0.37460  0.13655  1.0000
  H   H914      1.0  0.85178  0.42100  0.45949  1.0000
  H   H915      1.0  0.90624  0.47964  0.00208  1.0000
  C   C760      1.0  0.72370  0.48263  0.01623  1.0000
  C   C761      1.0  0.90854  0.45030  0.46249  1.0000
  H   H916      1.0  0.51187  0.30009  0.20509  1.0000
  C   C762      1.0  0.61868  0.37404  0.47922  1.0000
  C   C763      1.0  0.71319  0.48594  0.47089  1.0000
  H   H917      1.0  0.51081  0.44684  0.47910  1.0000
  H   H918      1.0  0.49742  0.27625  0.38844  1.0000
  C   C764      1.0  0.89558  0.40346  0.08159  1.0000
  C   C765      1.0  0.57691  0.40059  0.00804  1.0000
  H   H919      1.0  0.53161  0.36571  0.13774  1.0000
  C   C766      1.0  0.52510  0.45058  0.48663  1.0000
  C   C767      1.0  0.69667  0.48804  0.99979  1.0000
  Fe  Fe107     1.0  0.99121  0.42203  0.37892  1.0000
  C   C768      1.0  0.56780  0.40136  0.47736  1.0000
  H   H920      1.0  0.56548  0.31847  0.04793  1.0000
  C   C769      1.0  0.96495  0.49162  0.47188  1.0000
  H   H921      1.0  0.88122  0.44492  0.47556  1.0000
  S   S215      1.0  0.49780  0.33412  0.09216  1.0000
  C   C770      1.0  0.89878  0.42840  0.99641  1.0000
  C   C771      1.0  0.75871  0.34562  0.01862  1.0000
  Fe  Fe108     1.0  0.76803  0.47971  0.04368  1.0000
  H   H922      1.0  0.68498  0.44176  0.99725  1.0000
  H   H923      1.0  0.92026  0.37768  0.43300  1.0000
  H   H924      1.0  0.54617  0.49257  0.43834  1.0000
  H   H925      1.0  0.93527  0.45231  0.44900  1.0000
  H   H926      1.0  0.49583  0.25393  0.32356  1.0000
  H   H927      1.0  0.51266  0.47291  0.44799  1.0000
  C   C772      1.0  0.53666  0.35732  0.22751  1.0000
  S   S216      1.0  0.78435  0.42229  0.43590  1.0000
  C   C773      1.0  0.92099  0.38955  0.14280  1.0000
  H   H928      1.0  0.57055  0.37018  0.19654  1.0000
  C   C774      1.0  0.77659  0.46300  0.24160  1.0000
  H   H929      1.0  0.77774  0.28451  0.01788  1.0000
  H   H930      1.0  0.64537  0.44484  0.46254  1.0000
  H   H931      1.0  0.77306  0.40511  0.20479  1.0000
  H   H932      1.0  0.89495  0.39818  0.47491  1.0000
  H   H933      1.0  0.51729  0.26369  0.48452  1.0000
  S   S217      1.0  0.86010  0.34703  0.49068  1.0000
  C   C775      1.0  0.87870  0.39588  0.06150  1.0000
  C   C776      1.0  0.91337  0.37532  0.45841  1.0000
  C   C777      1.0  0.54385  0.35027  0.28852  1.0000
  H   H934      1.0  0.54842  0.37398  0.45660  1.0000
  H   H935      1.0  0.90376  0.36500  0.07794  1.0000
  H   H936      1.0  0.95138  0.40429  0.10277  1.0000
  H   H937      1.0  0.96744  0.48284  0.02450  1.0000
  C   C778      1.0  0.52809  0.36439  0.16685  1.0000
  C   C779      1.0  0.93764  0.39828  0.08790  1.0000
  C   C780      1.0  0.77043  0.37470  0.05610  1.0000
  C   C781      1.0  0.50502  0.30660  0.29456  1.0000
  C   C782      1.0  0.74233  0.34774  0.01163  1.0000
  H   H938      1.0  0.85807  0.39572  0.42884  1.0000
  C   C783      1.0  0.53917  0.34135  0.17286  1.0000
  H   H939      1.0  0.77480  0.46355  0.29992  1.0000
  H   H940      1.0  0.93433  0.38355  0.08082  1.0000
  H   H941      1.0  0.90059  0.41774  0.09147  1.0000
  C   C784      1.0  0.99095  0.41550  0.28077  1.0000
  C   C785      1.0  0.75442  0.37663  0.04779  1.0000
  N   N51       1.0  0.54078  0.35926  0.18861  1.0000
  S   S218      1.0  0.61053  0.45446  0.99515  1.0000
  C   C786      1.0  0.78785  0.41122  0.00066  1.0000
  C   C787      1.0  0.52919  0.35290  0.30218  1.0000
  H   H942      1.0  0.85827  0.37187  0.03132  1.0000
  C   C788      1.0  0.98079  0.43259  0.23934  1.0000
  C   C789      1.0  0.74628  0.48052  0.12992  1.0000
  H   H943      1.0  0.87133  0.40419  0.05666  1.0000
  H   H944      1.0  0.93803  0.37260  0.01410  1.0000
  N   N52       1.0  0.92327  0.40019  0.10961  1.0000
  C   C790      1.0  0.71243  0.46344  0.01153  1.0000
  H   H945      1.0  0.78576  0.35936  0.04828  1.0000
  H   H946      1.0  0.93484  0.48189  0.06646  1.0000
  C   C791      1.0  0.91621  0.42440  0.46157  1.0000
  C   C792      1.0  0.81127  0.39350  0.99808  1.0000
  C   C793      1.0  0.60395  0.39062  0.44931  1.0000
  H   H947      1.0  0.85905  0.49280  0.05177  1.0000
  H   H948      1.0  0.73104  0.33764  0.99469  1.0000
  H   H949      1.0  0.74768  0.29959  0.00355  1.0000
  S   S219      1.0  0.99180  0.41006  0.06918  1.0000
  H   H950      1.0  0.58997  0.41304  0.00950  1.0000
  Fe  Fe109     1.0  0.81295  0.49262  0.46504  1.0000
  H   H951      1.0  0.81369  0.45596  0.99625  1.0000
  H   H952      1.0  0.71831  0.45381  0.01590  1.0000
  C   C794      1.0  0.74035  0.36313  0.02576  1.0000
  Fe  Fe110     1.0  0.99132  0.43140  0.10988  1.0000
  H   H953      1.0  0.74792  0.31159  0.04549  1.0000
  H   H954      1.0  0.61680  0.41998  0.45542  1.0000
  H   H955      1.0  0.86530  0.38172  0.45609  1.0000
  C   C795      1.0  0.68540  0.46883  0.99498  1.0000
  H   H956      1.0  0.84305  0.38053  0.46149  1.0000
  C   C796      1.0  0.89822  0.41258  0.47128  1.0000
  H   H957      1.0  0.97522  0.44250  0.23526  1.0000
  S   S220      1.0  0.77303  0.42211  0.00144  1.0000
  H   H958      1.0  0.54174  0.30124  0.04232  1.0000
  C   C797      1.0  0.54323  0.36805  0.00468  1.0000
  C   C798      1.0  0.99122  0.41071  0.21497  1.0000
  H   H959      1.0  0.89644  0.41397  0.99402  1.0000
  H   H960      1.0  0.52698  0.49037  0.00907  1.0000
  C   C799      1.0  0.99095  0.48493  0.48456  1.0000
  H   H961      1.0  0.78042  0.31815  0.99659  1.0000
  H   H962      1.0  0.66999  0.41748  0.49266  1.0000
  N   N53       1.0  0.86540  0.40595  0.48424  1.0000
  C   C800      1.0  0.88467  0.36079  0.49181  1.0000
  C   C801      1.0  0.52193  0.44583  0.99979  1.0000
  C   C802      1.0  0.85251  0.41469  0.48550  1.0000
  H   H963      1.0  0.83813  0.40424  0.49052  1.0000
  S   S221      1.0  0.94839  0.39674  0.49195  1.0000
  C   C803      1.0  0.63317  0.39096  0.49192  1.0000
  C   C804      1.0  0.54024  0.44760  0.99748  1.0000
  C   C805      1.0  0.64535  0.44262  0.49208  1.0000
  H   H964      1.0  0.54366  0.48284  0.99554  1.0000
  H   H965      1.0  0.93125  0.49729  0.03616  1.0000
  C   C806      1.0  0.52850  0.47838  0.99631  1.0000
  H   H966      1.0  0.88754  0.37890  0.94480  1.0000
  Fe  Fe111     1.0  0.83712  0.34132  0.53120  1.0000
  S   S222      1.0  0.83941  0.35842  0.58203  1.0000
  H   H967      1.0  0.77363  0.29183  0.57919  1.0000
  Fe  Fe112     1.0  0.79393  0.31910  0.53445  1.0000
  S   S223      1.0  0.79376  0.33580  0.58468  1.0000
  H   H968      1.0  0.70305  0.47403  0.88298  1.0000
  Fe  Fe113     1.0  0.81467  0.36097  0.55792  1.0000
  C   C807      1.0  0.84127  0.28650  0.85331  1.0000
  Fe  Fe114     1.0  0.81837  0.33189  0.60504  1.0000
  S   S224      1.0  0.81803  0.32019  0.66148  1.0000
  H   H969      1.0  0.90048  0.33807  0.82040  1.0000
  S   S225      1.0  0.81782  0.31409  0.55549  1.0000
  Fe  Fe115     1.0  0.62476  0.47283  0.62141  1.0000
  H   H970      1.0  0.68537  0.49109  0.73034  1.0000
  Fe  Fe116     1.0  0.61307  0.45643  0.54343  1.0000
  S   S226      1.0  0.63624  0.48084  0.51970  1.0000
  H   H971      1.0  0.87664  0.32420  0.89389  1.0000
  Fe  Fe117     1.0  0.65471  0.47933  0.56469  1.0000
  S   S227      1.0  0.68283  0.47787  0.56236  1.0000
  S   S228      1.0  0.63175  0.45354  0.58597  1.0000
  S   S229      1.0  0.60404  0.47356  0.57966  1.0000
  Fe  Fe118     1.0  0.80314  0.31737  0.93765  1.0000
  S   S230      1.0  0.80101  0.34244  0.91519  1.0000
  H   H972      1.0  0.49251  0.45509  0.98909  1.0000
  Fe  Fe119     1.0  0.84625  0.33920  0.94428  1.0000
  S   S231      1.0  0.84615  0.36479  0.92215  1.0000
  C   C808      1.0  0.71887  0.26059  0.57374  1.0000
  Fe  Fe120     1.0  0.82259  0.35923  0.95833  1.0000
  C   C809      1.0  0.66457  0.47637  0.80990  1.0000
  Fe  Fe121     1.0  0.82480  0.34552  0.88042  1.0000
  S   S232      1.0  0.82851  0.35627  0.82273  1.0000
  C   C810      1.0  0.98483  0.43660  0.55939  1.0000
  S   S233      1.0  0.82616  0.31984  0.90049  1.0000
  H   H973      1.0  0.58662  0.25159  0.59734  1.0000
  Fe  Fe122     1.0  0.63672  0.46510  0.96355  1.0000
  S   S234      1.0  0.62175  0.44868  0.91231  1.0000
  H   H974      1.0  0.56392  0.47134  0.88096  1.0000
  S   S235      1.0  0.59031  0.46336  0.92509  1.0000
  Fe  Fe123     1.0  0.59570  0.43965  0.94345  1.0000
  S   S236      1.0  0.57131  0.41074  0.93946  1.0000
  Fe  Fe124     1.0  0.61768  0.47379  0.89839  1.0000
  H   H975      1.0  0.51761  0.38303  0.90367  1.0000
  H   H976      1.0  0.81379  0.42855  0.94415  1.0000
  H   H977      1.0  0.70440  0.49690  0.89373  1.0000
  C   C811      1.0  0.86539  0.32412  0.83946  1.0000
  H   H978      1.0  0.88254  0.37090  0.85704  1.0000
  H   H979      1.0  0.50331  0.43948  0.58112  1.0000
  H   H980      1.0  0.86944  0.43894  0.89543  1.0000
  C   C812      1.0  0.72718  0.47455  0.51622  1.0000
  H   H981      1.0  0.77280  0.26267  0.65544  1.0000
  H   H982      1.0  0.96627  0.48751  0.78619  1.0000
  H   H983      1.0  0.53939  0.37656  0.95154  1.0000
  H   H984      1.0  0.88817  0.36613  0.54943  1.0000
  H   H985      1.0  0.94814  0.41376  0.56833  1.0000
  C   C813      1.0  0.81247  0.44062  0.93261  1.0000
  C   C814      1.0  0.77055  0.27504  0.66311  1.0000
  C   C815      1.0  0.79707  0.38740  0.49583  1.0000
  H   H986      1.0  0.79350  0.37685  0.95340  1.0000
  C   C816      1.0  0.76357  0.29957  0.64365  1.0000
  C   C817      1.0  0.75275  0.26028  0.51601  1.0000
  C   C818      1.0  0.62738  0.49410  0.77159  1.0000
  C   C819      1.0  0.61851  0.46950  0.72421  1.0000
  C   C820      1.0  0.62118  0.48093  0.79870  1.0000
  C   C821      1.0  0.61360  0.46199  0.78832  1.0000
  C   C822      1.0  0.61226  0.45635  0.75138  1.0000
  H   H987      1.0  0.60873  0.45164  0.80868  1.0000
  H   H988      1.0  0.60636  0.44165  0.74374  1.0000
  H   H989      1.0  0.74231  0.28703  0.57822  1.0000
  C   C823      1.0  0.50663  0.42794  0.57524  1.0000
  H   H990      1.0  0.63209  0.44148  0.50277  1.0000
  C   C824      1.0  0.77705  0.28542  0.60271  1.0000
  H   H991      1.0  0.80623  0.43937  0.50255  1.0000
  C   C825      1.0  0.82037  0.33042  0.70604  1.0000
  C   C826      1.0  0.81712  0.31906  0.73603  1.0000
  C   C827      1.0  0.81907  0.32656  0.77184  1.0000
  C   C828      1.0  0.82458  0.34564  0.77819  1.0000
  C   C829      1.0  0.82783  0.35698  0.74821  1.0000
  C   C830      1.0  0.82564  0.34945  0.71241  1.0000
  H   H992      1.0  0.81306  0.30433  0.73155  1.0000
  H   H993      1.0  0.81643  0.31761  0.79451  1.0000
  H   H994      1.0  0.83210  0.37175  0.75267  1.0000
  H   H995      1.0  0.82822  0.35841  0.68978  1.0000
  H   H996      1.0  0.77728  0.30968  0.65599  1.0000
  H   H997      1.0  0.93733  0.43991  0.52889  1.0000
  C   C831      1.0  0.69969  0.49280  0.78134  1.0000
  H   H998      1.0  0.71248  0.26470  0.55180  1.0000
  C   C832      1.0  0.69793  0.48912  0.81819  1.0000
  N   N54       1.0  0.82770  0.45866  0.94633  1.0000
  H   H999      1.0  0.56116  0.28785  0.96555  1.0000
  H   H1000     1.0  0.65432  0.47652  0.75559  1.0000
  H   H1001     1.0  0.85584  0.29197  0.90507  1.0000
  C   C833      1.0  0.73594  0.27336  0.58937  1.0000
  C   C834      1.0  0.58722  0.40244  0.52922  1.0000
  H   H1002     1.0  0.50511  0.36698  0.59743  1.0000
  H   H1003     1.0  0.59810  0.41034  0.54929  1.0000
  H   H1004     1.0  0.54326  0.41800  0.57855  1.0000
  C   C835      1.0  0.52467  0.43011  0.58109  1.0000
  Fe  Fe125     1.0  0.60640  0.47895  0.97545  1.0000
  C   C836      1.0  0.89505  0.36869  0.52400  1.0000
  H   H1005     1.0  0.65395  0.48220  0.87735  1.0000
  C   C837      1.0  0.74506  0.26827  0.61722  1.0000
  H   H1006     1.0  0.53542  0.44346  0.59134  1.0000
  H   H1007     1.0  0.91837  0.40609  0.95489  1.0000
  S   S237      1.0  0.61662  0.46131  0.67813  1.0000
  C   C838      1.0  0.66650  0.48003  0.77314  1.0000
  C   C839      1.0  0.60290  0.34133  0.95391  1.0000
  C   C840      1.0  0.52897  0.41524  0.57363  1.0000
  H   H1008     1.0  0.74387  0.32627  0.95320  1.0000
  N   N55       1.0  0.76367  0.28174  0.63171  1.0000
  C   C841      1.0  0.58189  0.41171  0.50334  1.0000
  C   C842      1.0  0.91592  0.39288  0.96597  1.0000
  C   C843      1.0  0.68401  0.48824  0.75888  1.0000
  H   H1009     1.0  0.76078  0.30687  0.62093  1.0000
  C   C844      1.0  0.87518  0.35003  0.79722  1.0000
  N   N56       1.0  0.95787  0.44372  0.57098  1.0000
  H   H1010     1.0  0.84931  0.31721  0.78765  1.0000
  S   S238      1.0  0.82346  0.33427  0.98290  1.0000
  C   C845      1.0  0.66813  0.48659  0.88932  1.0000
  C   C846      1.0  0.87957  0.48200  0.93123  1.0000
  C   C847      1.0  0.53841  0.46940  0.49392  1.0000
  H   H1011     1.0  0.78427  0.28585  0.67407  1.0000
  C   C848      1.0  0.94698  0.42493  0.58509  1.0000
  C   C849      1.0  0.56522  0.39635  0.97710  1.0000
  H   H1012     1.0  0.65065  0.47017  0.81965  1.0000
  H   H1013     1.0  0.96042  0.45705  0.52038  1.0000
  C   C850      1.0  0.56125  0.45764  0.50761  1.0000
  H   H1014     1.0  0.85640  0.42544  0.50802  1.0000
  H   H1015     1.0  0.85107  0.38865  0.52776  1.0000
  H   H1016     1.0  0.59014  0.31280  0.96593  1.0000
  C   C851      1.0  0.53937  0.30486  0.96934  1.0000
  H   H1017     1.0  0.57158  0.25378  0.53725  1.0000
  C   C852      1.0  0.53581  0.49475  0.52629  1.0000
  H   H1018     1.0  0.50931  0.35266  0.56393  1.0000
  H   H1019     1.0  0.55770  0.43474  0.98185  1.0000
  C   C853      1.0  0.66617  0.45609  0.87558  1.0000
  C   C854      1.0  0.85480  0.29758  0.87922  1.0000
  C   C855      1.0  0.57130  0.48084  0.85920  1.0000
  C   C856      1.0  0.68021  0.48070  0.83358  1.0000
  C   C857      1.0  0.54359  0.43310  0.98307  1.0000
  C   C858      1.0  0.84951  0.44701  0.91824  1.0000
  C   C859      1.0  0.85151  0.31239  0.81346  1.0000
  S   S239      1.0  0.59275  0.43611  0.50131  1.0000
  C   C860      1.0  0.87391  0.35577  0.86068  1.0000
  C   C861      1.0  0.75977  0.27441  0.97012  1.0000
  C   C862      1.0  0.83966  0.29388  0.82049  1.0000
  H   H1020     1.0  0.65934  0.43864  0.55311  1.0000
  C   C863      1.0  0.54841  0.38000  0.97551  1.0000
  C   C864      1.0  0.52656  0.49533  0.86963  1.0000
  C   C865      1.0  0.49251  0.49652  0.53132  1.0000
  C   C866      1.0  0.89740  0.34761  0.83851  1.0000
  C   C867      1.0  0.99129  0.46617  0.58971  1.0000
  C   C868      1.0  0.81052  0.41748  0.52788  1.0000
  S   S240      1.0  0.87371  0.33976  0.96418  1.0000
  C   C869      1.0  0.79618  0.38795  0.97339  1.0000
  S   S241      1.0  0.50099  0.31985  0.49818  1.0000
  S   S242      1.0  0.62333  0.48895  0.84495  1.0000
  N   N57       1.0  0.64815  0.42594  0.50012  1.0000
  S   S243      1.0  0.66147  0.45926  0.98033  1.0000
  C   C870      1.0  0.54809  0.43945  0.49915  1.0000
  H   H1021     1.0  0.81203  0.43922  0.90256  1.0000
  H   H1022     1.0  0.86093  0.34882  0.79277  1.0000
  C   C871      1.0  0.89521  0.36003  0.97294  1.0000
  H   H1023     1.0  0.67264  0.44791  0.86222  1.0000
  N   N58       1.0  0.67769  0.47640  0.87231  1.0000
  H   H1024     1.0  0.76778  0.34283  0.95109  1.0000
  C   C872      1.0  0.89841  0.37742  0.96002  1.0000
  H   H1025     1.0  0.76086  0.27162  0.68570  1.0000
  C   C873      1.0  0.82330  0.47374  0.93340  1.0000
  H   H1026     1.0  0.89128  0.49557  0.93652  1.0000
  H   H1027     1.0  0.52032  0.36616  0.50321  1.0000
  H   H1028     1.0  0.83861  0.43309  0.91281  1.0000
  C   C874      1.0  0.94425  0.48821  0.97762  1.0000
  H   H1029     1.0  0.95706  0.45834  0.62027  1.0000
  H   H1030     1.0  0.94416  0.47947  0.95358  1.0000
  H   H1031     1.0  0.79136  0.29513  0.61241  1.0000
  H   H1032     1.0  0.87165  0.40919  0.54164  1.0000
  C   C875      1.0  0.53803  0.38467  0.56358  1.0000
  H   H1033     1.0  0.75293  0.29725  0.66407  1.0000
  C   C876      1.0  0.84623  0.46150  0.93478  1.0000
  C   C877      1.0  0.57868  0.38283  0.52851  1.0000
  H   H1034     1.0  0.69281  0.47799  0.92235  1.0000
  H   H1035     1.0  0.95901  0.47101  0.57963  1.0000
  C   C878      1.0  0.86542  0.39803  0.51996  1.0000
  H   H1036     1.0  0.73842  0.26070  0.92839  1.0000
  C   C879      1.0  0.95227  0.44336  0.53242  1.0000
  H   H1037     1.0  0.87316  0.38947  0.52015  1.0000
  H   H1038     1.0  0.77266  0.39232  0.95591  1.0000
  C   C880      1.0  0.98816  0.48531  0.94853  1.0000
  C   C881      1.0  0.86189  0.47898  0.94146  1.0000
  H   H1039     1.0  0.61527  0.34068  0.94455  1.0000
  H   H1040     1.0  0.93469  0.49447  0.97124  1.0000
  H   H1041     1.0  0.54027  0.38774  0.59331  1.0000
  H   H1042     1.0  0.56247  0.47587  0.83396  1.0000
  C   C882      1.0  0.78443  0.39674  0.97484  1.0000
  C   C883      1.0  0.95270  0.45694  0.59115  1.0000
  S   S244      1.0  0.63394  0.49100  0.94812  1.0000
  C   C884      1.0  0.80721  0.39870  0.52574  1.0000
  H   H1043     1.0  0.93190  0.42109  0.58495  1.0000
  H   H1044     1.0  0.92230  0.38497  0.54864  1.0000
  N   N59       1.0  0.87772  0.34400  0.83372  1.0000
  C   C885      1.0  0.69924  0.48469  0.49478  1.0000
  C   C886      1.0  0.50819  0.25117  0.49756  1.0000
  C   C887      1.0  0.60170  0.35818  0.95353  1.0000
  H   H1045     1.0  0.54905  0.39624  0.54954  1.0000
  H   H1046     1.0  0.66657  0.48421  0.91883  1.0000
  C   C888      1.0  0.97796  0.44882  0.57397  1.0000
  S   S245      1.0  0.81688  0.39026  0.55998  1.0000
  C   C889      1.0  0.51515  0.39761  0.56006  1.0000
  C   C890      1.0  0.51761  0.37823  0.51126  1.0000
  C   C891      1.0  0.74223  0.26096  0.95670  1.0000
  C   C892      1.0  0.91446  0.37950  0.52341  1.0000
  C   C893      1.0  0.58586  0.35913  0.96545  1.0000
  C   C894      1.0  0.86728  0.45016  0.90815  1.0000
  C   C895      1.0  0.80364  0.42491  0.50052  1.0000
  C   C896      1.0  0.73604  0.24956  0.62826  1.0000
  H   H1047     1.0  0.61306  0.37056  0.94402  1.0000
  H   H1048     1.0  0.79863  0.43914  0.94059  1.0000
  N   N60       1.0  0.51918  0.38163  0.55105  1.0000
  C   C897      1.0  0.74950  0.27453  0.50118  1.0000
  H   H1049     1.0  0.95450  0.43279  0.51585  1.0000
  H   H1050     1.0  0.90705  0.36221  0.83243  1.0000
  C   C898      1.0  0.62610  0.48846  0.73463  1.0000
  H   H1051     1.0  0.54154  0.30185  0.94076  1.0000
  H   H1052     1.0  0.83185  0.27226  0.85889  1.0000
  H   H1053     1.0  0.82897  0.28529  0.80052  1.0000
  H   H1054     1.0  0.81845  0.42634  0.55083  1.0000
  H   H1055     1.0  0.55196  0.42813  0.50081  1.0000
  H   H1056     1.0  0.88475  0.36496  0.79357  1.0000
  H   H1057     1.0  0.98065  0.47395  0.92897  1.0000
  C   C899      1.0  0.69533  0.48162  0.89349  1.0000
  C   C900      1.0  0.86670  0.31609  0.87249  1.0000
  H   H1058     1.0  0.82492  0.47516  0.90371  1.0000
  H   H1059     1.0  0.98753  0.47660  0.60076  1.0000
  C   C901      1.0  0.88225  0.46764  0.91445  1.0000
  C   C902      1.0  0.49701  0.39600  0.55408  1.0000
  N   N61       1.0  0.55622  0.30942  0.99259  1.0000
  H   H1060     1.0  0.65201  0.45122  0.86316  1.0000
  H   H1061     1.0  0.67771  0.44208  0.49649  1.0000
  C   C903      1.0  0.57196  0.32590  0.97890  1.0000
  H   H1062     1.0  0.87663  0.35302  0.88897  1.0000
  H   H1063     1.0  0.71365  0.46882  0.56730  1.0000
  H   H1064     1.0  0.85914  0.35311  0.85817  1.0000
  H   H1065     1.0  0.53525  0.31641  0.96937  1.0000
  C   C904      1.0  0.55653  0.47240  0.50538  1.0000
  H   H1066     1.0  0.64422  0.39037  0.50818  1.0000
  H   H1067     1.0  0.76099  0.31818  0.94842  1.0000
  C   C905      1.0  0.50568  0.36450  0.56783  1.0000
  H   H1068     1.0  0.50424  0.47106  0.49341  1.0000
  H   H1069     1.0  0.90108  0.34572  0.86678  1.0000
  H   H1070     1.0  0.52766  0.39061  0.49746  1.0000
  C   C906      1.0  0.50725  0.42870  0.98631  1.0000
  H   H1071     1.0  0.55925  0.34474  0.98691  1.0000
  C   C907      1.0  0.69935  0.47869  0.52992  1.0000
  C   C908      1.0  0.71334  0.47348  0.54025  1.0000
  S   S246      1.0  0.77506  0.29095  0.93982  1.0000
  H   H1072     1.0  0.87781  0.34174  0.77541  1.0000
  H   H1073     1.0  0.97569  0.42344  0.54584  1.0000
  S   S247      1.0  0.55424  0.34797  0.50203  1.0000
  S   S248      1.0  0.81312  0.34499  0.50644  1.0000
  H   H1074     1.0  0.77733  0.27235  0.59250  1.0000
  H   H1075     1.0  0.77235  0.48804  0.53897  1.0000
  H   H1076     1.0  0.58301  0.37564  0.54819  1.0000
  H   H1077     1.0  0.56730  0.48623  0.51266  1.0000
  S   S249      1.0  0.76584  0.29870  0.50612  1.0000
  H   H1078     1.0  0.54039  0.37216  0.55770  1.0000
  H   H1079     1.0  0.65394  0.41465  0.54888  1.0000
  H   H1080     1.0  0.73784  0.47064  0.52489  1.0000
  H   H1081     1.0  0.71065  0.49304  0.83399  1.0000
  H   H1082     1.0  0.95172  0.42418  0.61324  1.0000
  H   H1083     1.0  0.52721  0.29239  0.97860  1.0000
  H   H1084     1.0  0.93747  0.45236  0.58959  1.0000
  H   H1085     1.0  0.63551  0.42145  0.55173  1.0000
  C   C909      1.0  0.93034  0.39140  0.98575  1.0000
  C   C910      1.0  0.64926  0.42507  0.54009  1.0000
  H   H1086     1.0  0.80886  0.47109  0.93928  1.0000
  H   H1087     1.0  0.58494  0.37227  0.96517  1.0000
  H   H1088     1.0  0.83219  0.48755  0.94702  1.0000
  H   H1089     1.0  0.66430  0.45223  0.90443  1.0000
  H   H1090     1.0  0.50354  0.37504  0.50001  1.0000
  H   H1091     1.0  0.65660  0.45562  0.50475  1.0000
  H   H1092     1.0  0.58393  0.47896  0.85350  1.0000
  H   H1093     1.0  0.76583  0.26368  0.53008  1.0000
  C   C911      1.0  0.57120  0.34327  0.97788  1.0000
  H   H1094     1.0  0.52562  0.48525  0.54509  1.0000
  C   C912      1.0  0.56462  0.37248  0.50238  1.0000
  C   C913      1.0  0.49610  0.35809  0.92353  1.0000
  C   C914      1.0  0.50276  0.37464  0.90525  1.0000
  H   H1095     1.0  0.89600  0.47005  0.90665  1.0000
  C   C915      1.0  0.82767  0.45906  0.98634  1.0000
  C   C916      1.0  0.75822  0.32925  0.96205  1.0000
  C   C917      1.0  0.58829  0.32535  0.96635  1.0000
  H   H1096     1.0  0.57530  0.46037  0.51573  1.0000
  H   H1097     1.0  0.53164  0.40519  0.95997  1.0000
  H   H1098     1.0  0.86061  0.49048  0.95487  1.0000
  H   H1099     1.0  0.49656  0.39350  0.87562  1.0000
  H   H1100     1.0  0.78262  0.49605  0.58352  1.0000
  C   C918      1.0  0.52889  0.41642  0.97066  1.0000
  H   H1101     1.0  0.50567  0.35369  0.93641  1.0000
  C   C919      1.0  0.51075  0.41421  0.97226  1.0000
  H   H1102     1.0  0.52293  0.47638  0.96783  1.0000
  H   H1103     1.0  0.49928  0.40112  0.96304  1.0000
  S   S250      1.0  0.95230  0.41140  0.99102  1.0000
  H   H1104     1.0  0.97656  0.49585  0.83071  1.0000
  H   H1105     1.0  0.51405  0.48919  0.85233  1.0000
  H   H1106     1.0  0.54219  0.48770  0.83292  1.0000
  C   C920      1.0  0.90965  0.35851  0.99264  1.0000
  H   H1107     1.0  0.86976  0.42143  0.98991  1.0000
  H   H1108     1.0  0.49288  0.42604  0.98663  1.0000
  C   C921      1.0  0.54270  0.49440  0.85897  1.0000
  C   C922      1.0  0.49283  0.41090  0.56179  1.0000
  C   C923      1.0  0.72954  0.24769  0.97940  1.0000
  C   C924      1.0  0.55929  0.29243  0.99319  1.0000
  H   H1109     1.0  0.79448  0.37293  0.49384  1.0000
  H   H1110     1.0  0.51421  0.59975  0.16234  1.0000
  H   H1111     1.0  0.97316  0.56639  0.45567  1.0000
  H   H1112     1.0  0.53660  0.62906  0.18724  1.0000
  H   H1113     1.0  0.51229  0.63890  0.45758  1.0000
  H   H1114     1.0  0.92525  0.59407  0.34763  1.0000
  H   H1115     1.0  0.72416  0.50972  0.01383  1.0000
  H   H1116     1.0  0.51401  0.51621  0.03817  1.0000
  Fe  Fe126     1.0  0.50511  0.54136  0.44343  1.0000
  C   C925      1.0  0.94125  0.57967  0.42178  1.0000
  Fe  Fe127     1.0  0.53670  0.56077  0.39278  1.0000
  S   S251      1.0  0.55422  0.58150  0.43712  1.0000
  S   S252      1.0  0.54655  0.55618  0.33772  1.0000
  Fe  Fe128     1.0  0.54500  0.55683  0.47312  1.0000
  H   H1117     1.0  0.57475  0.54627  0.35684  1.0000
  Fe  Fe129     1.0  0.52770  0.58321  0.45122  1.0000
  N   N62       1.0  0.95837  0.58240  0.44232  1.0000
  S   S253      1.0  0.52918  0.53616  0.42811  1.0000
  S   S254      1.0  0.51100  0.56395  0.40437  1.0000
  Fe  Fe130     1.0  0.52146  0.57979  0.05983  1.0000
  S   S255      1.0  0.51060  0.56656  0.11224  1.0000
  C   C926      1.0  0.86733  0.50280  0.03266  1.0000
  Fe  Fe131     1.0  0.55017  0.56333  0.06008  1.0000
  S   S256      1.0  0.54139  0.54983  0.11349  1.0000
  C   C927      1.0  0.96003  0.56466  0.44169  1.0000
  Fe  Fe132     1.0  0.51276  0.54151  0.09006  1.0000
  H   H1118     1.0  0.89127  0.49768  0.04161  1.0000
  Fe  Fe133     1.0  0.54012  0.57642  0.13154  1.0000
  S   S257      1.0  0.54601  0.59227  0.18621  1.0000
  S   S258      1.0  0.52131  0.55362  0.03594  1.0000
  S   S259      1.0  0.55132  0.59107  0.07979  1.0000
  H   H1119     1.0  0.54127  0.61512  0.12939  1.0000
  C   C928      1.0  0.54472  0.56574  0.29587  1.0000
  C   C929      1.0  0.54308  0.58240  0.29408  1.0000
  C   C930      1.0  0.54332  0.59027  0.26031  1.0000
  C   C931      1.0  0.54476  0.58139  0.22797  1.0000
  C   C932      1.0  0.54593  0.56451  0.22975  1.0000
  C   C933      1.0  0.54616  0.55688  0.26353  1.0000
  H   H1120     1.0  0.54211  0.58945  0.31873  1.0000
  H   H1121     1.0  0.54248  0.60337  0.25930  1.0000
  H   H1122     1.0  0.54714  0.55756  0.20516  1.0000
  H   H1123     1.0  0.54750  0.54404  0.26458  1.0000
  C   C934      1.0  0.51687  0.66395  0.08376  1.0000
  H   H1124     1.0  0.77925  0.51044  0.49023  1.0000
  S   S260      1.0  0.79777  0.50342  0.42741  1.0000
  C   C935      1.0  0.57655  0.54025  0.02126  1.0000
  C   C936      1.0  0.59389  0.58378  0.36673  1.0000
  H   H1125     1.0  0.53708  0.65589  0.99718  1.0000
  S   S261      1.0  0.50203  0.59089  0.03525  1.0000
  H   H1126     1.0  0.50025  0.59807  0.12278  1.0000
  H   H1127     1.0  0.92243  0.55856  0.45648  1.0000
  C   C937      1.0  0.58254  0.55174  0.38322  1.0000
  H   H1128     1.0  0.61285  0.55387  0.35499  1.0000
  C   C938      1.0  0.51291  0.63610  0.11612  1.0000
  C   C939      1.0  0.90787  0.57347  0.38341  1.0000
  C   C940      1.0  0.50747  0.60714  0.14714  1.0000
  C   C941      1.0  0.56845  0.52508  0.04346  1.0000
  C   C942      1.0  0.97560  0.59689  0.42775  1.0000
  H   H1129     1.0  0.95408  0.50098  0.04757  1.0000
  H   H1130     1.0  0.58597  0.54076  0.39405  1.0000
  N   N63       1.0  0.52122  0.62587  0.13680  1.0000
  H   H1131     1.0  0.53473  0.62605  0.02048  1.0000
  C   C943      1.0  0.52433  0.65405  0.10353  1.0000
  H   H1132     1.0  0.60293  0.56341  0.32337  1.0000
  C   C944      1.0  0.50489  0.61273  0.01921  1.0000
  C   C945      1.0  0.72899  0.49828  0.12640  1.0000
  H   H1133     1.0  0.89404  0.55348  0.42342  1.0000
  H   H1134     1.0  0.58549  0.54468  0.46271  1.0000
  H   H1135     1.0  0.76119  0.51315  0.09619  1.0000
  C   C946      1.0  0.88717  0.52115  0.48175  1.0000
  H   H1136     1.0  0.89510  0.57105  0.36881  1.0000
  C   C947      1.0  0.90727  0.56359  0.41409  1.0000
  C   C948      1.0  0.50011  0.50675  0.02855  1.0000
  C   C949      1.0  0.58944  0.54014  0.99624  1.0000
  C   C950      1.0  0.63379  0.57592  0.45805  1.0000
  C   C951      1.0  0.60969  0.57510  0.41483  1.0000
  C   C952      1.0  0.58596  0.50990  0.01547  1.0000
  H   H1137     1.0  0.95979  0.55937  0.41347  1.0000
  H   H1138     1.0  0.52079  0.63946  0.18750  1.0000
  C   C953      1.0  0.53063  0.63669  0.17060  1.0000
  H   H1139     1.0  0.62393  0.57875  0.34801  1.0000
  H   H1140     1.0  0.55874  0.52505  0.06320  1.0000
  H   H1141     1.0  0.58763  0.58050  0.33864  1.0000
  C   C954      1.0  0.92367  0.56661  0.43297  1.0000
  C   C955      1.0  0.61039  0.56628  0.35034  1.0000
  H   H1142     1.0  0.52873  0.61553  0.08880  1.0000
  C   C956      1.0  0.88566  0.50563  0.02683  1.0000
  C   C957      1.0  0.51338  0.61755  0.49037  1.0000
  H   H1143     1.0  0.95404  0.59976  0.37962  1.0000
  S   S262      1.0  0.52452  0.61020  0.45680  1.0000
  C   C958      1.0  0.89682  0.51871  0.00233  1.0000
  H   H1144     1.0  0.57279  0.55360  0.40196  1.0000
  C   C959      1.0  0.53512  0.62321  0.11488  1.0000
  H   H1145     1.0  0.56170  0.50454  0.47599  1.0000
  C   C960      1.0  0.52229  0.62759  0.01432  1.0000
  C   C961      1.0  0.86779  0.51512  0.48000  1.0000
  C   C962      1.0  0.92488  0.58642  0.37156  1.0000
  C   C963      1.0  0.57329  0.51016  0.04082  1.0000
  H   H1146     1.0  0.89388  0.51919  0.45815  1.0000
  C   C964      1.0  0.73685  0.50430  0.24127  1.0000
  H   H1147     1.0  0.63124  0.56602  0.40373  1.0000
  H   H1148     1.0  0.85982  0.50867  0.45523  1.0000
  S   S263      1.0  0.83656  0.50971  0.01891  1.0000
  H   H1149     1.0  0.49702  0.60805  0.16517  1.0000
  C   C965      1.0  0.85985  0.51307  0.01402  1.0000
  H   H1150     1.0  0.59065  0.58425  0.43988  1.0000
  C   C966      1.0  0.94139  0.58955  0.39032  1.0000
  C   C967      1.0  0.54712  0.49901  0.46583  1.0000
  H   H1151     1.0  0.54692  0.63657  0.10840  1.0000
  C   C968      1.0  0.76214  0.51400  0.12633  1.0000
  N   N64       1.0  0.59945  0.56941  0.37929  1.0000
  H   H1152     1.0  0.56735  0.49885  0.05893  1.0000
  H   H1153     1.0  0.52587  0.67740  0.07346  1.0000
  H   H1154     1.0  0.54440  0.51143  0.46312  1.0000
  H   H1155     1.0  0.54235  0.65035  0.16521  1.0000
  S   S264      1.0  0.57119  0.55963  0.02388  1.0000
  H   H1156     1.0  0.94857  0.55349  0.45571  1.0000
  C   C969      1.0  0.62540  0.57195  0.42325  1.0000
  C   C970      1.0  0.74803  0.50036  0.18189  1.0000
  H   H1157     1.0  0.61018  0.53403  0.46822  1.0000
  H   H1158     1.0  0.77564  0.51418  0.13416  1.0000
  H   H1159     1.0  0.53917  0.66048  0.10850  1.0000
  H   H1160     1.0  0.72829  0.51159  0.13309  1.0000
  H   H1161     1.0  0.72645  0.50578  0.25733  1.0000
  H   H1162     1.0  0.58289  0.58470  0.38299  1.0000
  H   H1163     1.0  0.75412  0.50567  0.28781  1.0000
  C   C971      1.0  0.76368  0.50035  0.20045  1.0000
  H   H1164     1.0  0.97767  0.59310  0.39963  1.0000
  H   H1165     1.0  0.97554  0.61077  0.42844  1.0000
  H   H1166     1.0  0.60594  0.59782  0.36731  1.0000
  S   S265      1.0  0.91973  0.52129  0.99562  1.0000
  C   C972      1.0  0.60187  0.53341  0.49113  1.0000
  C   C973      1.0  0.60297  0.58229  0.44346  1.0000
  H   H1167     1.0  0.76283  0.52768  0.13539  1.0000
  S   S266      1.0  0.52005  0.56059  0.49100  1.0000
  C   C974      1.0  0.49352  0.62879  0.10788  1.0000
  H   H1168     1.0  0.64546  0.57297  0.46423  1.0000
  C   C975      1.0  0.52359  0.64449  0.00091  1.0000
  H   H1169     1.0  0.77791  0.50229  0.25166  1.0000
  C   C976      1.0  0.49786  0.65642  0.07629  1.0000
  C   C977      1.0  0.62679  0.58296  0.48544  1.0000
  C   C978      1.0  0.50907  0.63243  0.48341  1.0000
  H   H1170     1.0  0.82460  0.50521  0.25798  1.0000
  C   C979      1.0  0.61143  0.58618  0.47813  1.0000
  C   C980      1.0  0.58800  0.53966  0.48798  1.0000
  C   C981      1.0  0.95755  0.58809  0.48050  1.0000
  H   H1171     1.0  0.72223  0.50254  0.19191  1.0000
  H   H1172     1.0  0.95506  0.60070  0.48222  1.0000
  H   H1173     1.0  0.98817  0.59868  0.44408  1.0000
  C   C982      1.0  0.75242  0.50426  0.25854  1.0000
  C   C983      1.0  0.76582  0.50235  0.23815  1.0000
  C   C984      1.0  0.73460  0.50241  0.20349  1.0000
  H   H1174     1.0  0.77439  0.49868  0.18591  1.0000
  N   N65       1.0  0.74623  0.49834  0.14188  1.0000
  C   C985      1.0  0.59411  0.52508  0.99331  1.0000
  H   H1175     1.0  0.69079  0.49767  0.99537  1.0000
  H   H1176     1.0  0.67593  0.50188  0.88607  1.0000
  S   S267      1.0  0.97050  0.54465  0.52234  1.0000
  S   S268      1.0  0.50959  0.66829  0.97616  1.0000
  C   C986      1.0  0.50087  0.63920  0.50973  1.0000
  C   C987      1.0  0.97794  0.49909  0.80154  1.0000
  C   C988      1.0  0.96585  0.60797  0.79956  1.0000
  Fe  Fe134     1.0  0.94807  0.54812  0.55222  1.0000
  H   H1177     1.0  0.95305  0.52398  0.74891  1.0000
  S   S269      1.0  0.95295  0.53546  0.60289  1.0000
  Fe  Fe135     1.0  0.94293  0.53869  0.95792  1.0000
  S   S270      1.0  0.94270  0.52540  0.90359  1.0000
  H   H1178     1.0  0.53417  0.67456  0.86001  1.0000
  C   C989      1.0  0.95263  0.56181  0.72050  1.0000
  C   C990      1.0  0.96690  0.60779  0.76188  1.0000
  S   S271      1.0  0.94500  0.55840  0.82886  1.0000
  H   H1179     1.0  0.95372  0.59365  0.86746  1.0000
  S   S272      1.0  0.95494  0.56767  0.93619  1.0000
  C   C991      1.0  0.97188  0.56936  0.71813  1.0000
  C   C992      1.0  0.85883  0.51771  0.51008  1.0000
  H   H1180     1.0  0.60427  0.52540  0.97444  1.0000
  Fe  Fe136     1.0  0.98353  0.56947  0.94881  1.0000
  H   H1181     1.0  0.57340  0.50759  0.81477  1.0000
  C   C993      1.0  0.96263  0.60847  0.87628  1.0000
  S   S273      1.0  0.62457  0.52127  0.52773  1.0000
  H   H1182     1.0  0.77005  0.51310  0.61346  1.0000
  Fe  Fe137     1.0  0.97413  0.56470  0.61951  1.0000
  C   C994      1.0  0.49896  0.66905  0.75706  1.0000
  H   H1183     1.0  0.97071  0.59135  0.49615  1.0000
  H   H1184     1.0  0.95208  0.60165  0.80988  1.0000
  S   S274      1.0  0.96781  0.57778  0.57062  1.0000
  C   C995      1.0  0.50180  0.65479  0.74030  1.0000
  H   H1185     1.0  0.49791  0.65083  0.50409  1.0000
  H   H1186     1.0  0.99104  0.49881  0.79367  1.0000
  C   C996      1.0  0.98214  0.61534  0.82256  1.0000
  H   H1187     1.0  0.95432  0.60155  0.74482  1.0000
  C   C997      1.0  0.52643  0.50425  0.90241  1.0000
  H   H1188     1.0  0.95531  0.52873  0.68464  1.0000
  H   H1189     1.0  0.96275  0.60887  0.90642  1.0000
  C   C998      1.0  0.60532  0.52667  0.52383  1.0000
  C   C999      1.0  0.59456  0.52614  0.55330  1.0000
  C   C1000     1.0  0.58110  0.53293  0.55045  1.0000
  H   H1190     1.0  0.71331  0.49926  0.77009  1.0000
  S   S275      1.0  0.98555  0.55789  0.89369  1.0000
  H   H1191     1.0  0.98152  0.52859  0.65151  1.0000
  C   C1001     1.0  0.75648  0.52143  0.53038  1.0000
  H   H1192     1.0  0.57333  0.53302  0.57386  1.0000
  H   H1193     1.0  0.98354  0.57134  0.80832  1.0000
  H   H1194     1.0  0.89692  0.53856  0.56859  1.0000
  H   H1195     1.0  0.50105  0.65323  0.71100  1.0000
  N   N66       1.0  0.50436  0.66056  0.85713  1.0000
  C   C1002     1.0  0.49976  0.67114  0.79482  1.0000
  H   H1196     1.0  0.72078  0.51763  0.58238  1.0000
  H   H1197     1.0  0.96056  0.53056  0.80975  1.0000
  C   C1003     1.0  0.89789  0.52960  0.51367  1.0000
  C   C1004     1.0  0.57774  0.53980  0.51785  1.0000
  H   H1198     1.0  0.80250  0.54631  0.56526  1.0000
  H   H1199     1.0  0.96090  0.51429  0.84113  1.0000
  H   H1200     1.0  0.52455  0.64984  0.86577  1.0000
  H   H1201     1.0  0.50312  0.67788  0.90177  1.0000
  C   C1005     1.0  0.49726  0.63140  0.54368  1.0000
  C   C1006     1.0  0.96469  0.52334  0.73613  1.0000
  C   C1007     1.0  0.88893  0.53203  0.54389  1.0000
  S   S276      1.0  0.98288  0.57748  0.67691  1.0000
  C   C1008     1.0  0.73979  0.52143  0.54005  1.0000
  C   C1009     1.0  0.79012  0.52128  0.50846  1.0000
  Fe  Fe138     1.0  0.97648  0.53422  0.57379  1.0000
  C   C1010     1.0  0.52252  0.66248  0.87159  1.0000
  C   C1011     1.0  0.50631  0.64448  0.79903  1.0000
  H   H1202     1.0  0.94401  0.55963  0.69625  1.0000
  H   H1203     1.0  0.95581  0.61712  0.86702  1.0000
  S   S277      1.0  0.97831  0.50662  0.90505  1.0000
  H   H1204     1.0  0.58718  0.52703  0.84504  1.0000
  H   H1205     1.0  0.75957  0.52318  0.50210  1.0000
  N   N67       1.0  0.78566  0.51784  0.54704  1.0000
  H   H1206     1.0  0.79167  0.53523  0.50093  1.0000
  H   H1207     1.0  0.98801  0.64430  0.86766  1.0000
  H   H1208     1.0  0.95738  0.50477  0.51586  1.0000
  S   S278      1.0  0.92242  0.53739  0.51339  1.0000
  H   H1209     1.0  0.54252  0.51972  0.94980  1.0000
  C   C1012     1.0  0.95564  0.56157  0.78651  1.0000
  H   H1210     1.0  0.92974  0.55293  0.75621  1.0000
  Fe  Fe139     1.0  0.95658  0.55421  0.88272  1.0000
  H   H1211     1.0  0.86548  0.53427  0.97510  1.0000
  H   H1212     1.0  0.59657  0.52193  0.90557  1.0000
  H   H1213     1.0  0.80019  0.52955  0.59851  1.0000
  C   C1013     1.0  0.50204  0.67687  0.87163  1.0000
  H   H1214     1.0  0.49876  0.61030  0.57671  1.0000
  C   C1014     1.0  0.55863  0.51134  0.91437  1.0000
  H   H1215     1.0  0.63100  0.49878  0.71421  1.0000
  C   C1015     1.0  0.50133  0.61635  0.55046  1.0000
  C   C1016     1.0  0.58350  0.51212  0.83829  1.0000
  H   H1216     1.0  0.49593  0.67846  0.74062  1.0000
  H   H1217     1.0  0.95842  0.49998  0.98076  1.0000
  C   C1017     1.0  0.55916  0.50203  0.88139  1.0000
  C   C1018     1.0  0.76203  0.51562  0.59235  1.0000
  H   H1218     1.0  0.51251  0.59798  0.52977  1.0000
  C   C1019     1.0  0.54248  0.51240  0.92458  1.0000
  H   H1219     1.0  0.74058  0.51283  0.62902  1.0000
  H   H1220     1.0  0.63295  0.58543  0.51264  1.0000
  H   H1221     1.0  0.51386  0.50496  0.91040  1.0000
  Fe  Fe140     1.0  0.99045  0.57313  0.54371  1.0000
  C   C1020     1.0  0.76815  0.51848  0.55637  1.0000
  H   H1222     1.0  0.63332  0.50881  0.77918  1.0000
  H   H1223     1.0  0.73083  0.52313  0.51959  1.0000
  Fe  Fe141     1.0  0.97150  0.53021  0.91877  1.0000
  C   C1021     1.0  0.96579  0.52610  0.69894  1.0000
  H   H1224     1.0  0.81489  0.53234  0.56166  1.0000
  C   C1022     1.0  0.49922  0.73753  0.62821  1.0000
  H   H1225     1.0  0.58603  0.49894  0.92374  1.0000
  C   C1023     1.0  0.50352  0.65889  0.81705  1.0000
  H   H1226     1.0  0.80344  0.52086  0.50237  1.0000
  S   S279      1.0  0.97134  0.54166  0.97471  1.0000
  H   H1227     1.0  0.60305  0.50454  0.89000  1.0000
  H   H1228     1.0  0.57052  0.51806  0.93275  1.0000
  H   H1229     1.0  0.59720  0.52132  0.57884  1.0000
  C   C1024     1.0  0.80143  0.53213  0.56916  1.0000
  C   C1025     1.0  0.86956  0.52624  0.54197  1.0000
  C   C1026     1.0  0.98061  0.52616  0.68024  1.0000
  H   H1230     1.0  0.52388  0.66472  0.90167  1.0000
  H   H1231     1.0  0.50766  0.63142  0.74804  1.0000
  H   H1232     1.0  0.53350  0.50746  0.52446  1.0000
  C   C1027     1.0  0.96109  0.51696  0.81173  1.0000
  H   H1233     1.0  0.51292  0.69020  0.86224  1.0000
  C   C1028     1.0  0.98290  0.57245  0.75004  1.0000
  H   H1234     1.0  0.89767  0.53907  0.96477  1.0000
  C   C1029     1.0  0.97483  0.56839  0.78403  1.0000
  C   C1030     1.0  0.94459  0.55811  0.75457  1.0000
  S   S280      1.0  0.56065  0.54835  0.51623  1.0000
  C   C1031     1.0  0.88934  0.52895  0.98368  1.0000
  H   H1235     1.0  0.50904  0.63453  0.81408  1.0000
  S   S281      1.0  0.98410  0.51049  0.57442  1.0000
  H   H1236     1.0  0.59598  0.55190  0.97925  1.0000
  C   C1032     1.0  0.97852  0.52038  0.75572  1.0000
  C   C1033     1.0  0.50549  0.64253  0.76124  1.0000
  H   H1237     1.0  0.99207  0.63474  0.90863  1.0000
  H   H1238     1.0  0.86286  0.52838  0.56542  1.0000
  N   N68       1.0  0.57597  0.50051  0.86988  1.0000
  N   N69       1.0  0.97783  0.51726  0.79504  1.0000
  C   C1034     1.0  0.50918  0.60934  0.52391  1.0000
  H   H1239     1.0  0.94812  0.50578  0.79907  1.0000
  C   C1035     1.0  0.87104  0.52620  0.98965  1.0000
  S   S282      1.0  0.83449  0.51116  0.50876  1.0000
  S   S283      1.0  0.64860  0.49877  0.60206  1.0000
  C   C1036     1.0  0.96697  0.49954  0.50701  1.0000
  C   C1037     1.0  0.98112  0.50031  0.53074  1.0000
  H   H1240     1.0  0.98472  0.61392  0.71677  1.0000
  H   H1241     1.0  0.49718  0.68236  0.80584  1.0000
  C   C1038     1.0  0.74522  0.51548  0.60160  1.0000
  H   H1242     1.0  0.50353  0.52215  0.50362  1.0000
  H   H1243     1.0  0.59626  0.51136  0.82900  1.0000
  C   C1039     1.0  0.98403  0.61474  0.74599  1.0000
  C   C1040     1.0  0.73410  0.51832  0.57546  1.0000
  C   C1041     1.0  0.59096  0.50674  0.89864  1.0000
  H   H1244     1.0  0.49662  0.72542  0.64527  1.0000
  N   N70       1.0  0.98162  0.61523  0.86257  1.0000
  C   C1042     1.0  0.78436  0.49920  0.55446  1.0000
  H   H1245     1.0  0.94636  0.57694  0.49507  1.0000
  H   H1246     1.0  0.60558  0.59104  0.49981  1.0000
  C   C1043     1.0  0.49699  0.49910  0.99311  1.0000
  H   H1247     1.0  0.50842  0.50289  0.97534  1.0000
  H   H1248     1.0  0.49746  0.73213  0.59954  1.0000
  H   H1249     1.0  0.98158  0.58853  0.86368  1.0000
  C   C1044     1.0  0.98946  0.60284  0.87597  1.0000
  H   H1250     1.0  0.50429  0.50101  0.55019  1.0000
  H   H1251     1.0  0.98892  0.60190  0.90595  1.0000
  H   H1252     1.0  0.54983  0.49949  0.53924  1.0000
  Fe  Fe142     1.0  0.62798  0.49811  0.55783  1.0000
  H   H1253     1.0  0.79713  0.49801  0.54667  1.0000
  C   C1045     1.0  0.98989  0.50314  0.94245  1.0000
  C   C1046     1.0  0.50756  0.64677  0.99262  1.0000
  H   H1254     1.0  0.49392  0.75245  0.48555  1.0000
  S   S284      1.0  0.50184  0.89878  0.06327  1.0000
  C   C1047     1.0  0.51273  0.94575  0.40214  1.0000
  C   C1048     1.0  0.51870  0.93265  0.41488  1.0000
  C   C1049     1.0  0.52869  0.94779  0.01215  1.0000
  C   C1050     1.0  0.51980  0.93429  0.03794  1.0000
  C   C1051     1.0  0.50870  0.91359  0.40607  1.0000
  H   H1255     1.0  0.51807  0.93880  0.06478  1.0000
  C   C1052     1.0  0.51343  0.91509  0.02956  1.0000
  H   H1256     1.0  0.54067  0.97063  0.36576  1.0000
  H   H1257     1.0  0.55016  0.96556  0.40598  1.0000
  C   C1053     1.0  0.51470  0.97753  0.39920  1.0000
  H   H1258     1.0  0.53629  0.96376  0.46285  1.0000
  N   N71       1.0  0.52364  0.96588  0.41188  1.0000
  H   H1259     1.0  0.52228  0.89530  0.48618  1.0000
  H   H1260     1.0  0.51307  0.96113  0.46527  1.0000
  C   C1054     1.0  0.51638  0.90961  0.99501  1.0000
  H   H1261     1.0  0.53107  0.93700  0.43213  1.0000
  H   H1262     1.0  0.53357  0.96245  0.01925  1.0000
  H   H1263     1.0  0.55065  0.98796  0.40235  1.0000
  H   H1264     1.0  0.50253  0.78173  0.00228  1.0000
  H   H1265     1.0  0.51348  0.97726  0.36916  1.0000
  C   C1055     1.0  0.49605  0.98351  0.48510  1.0000
  C   C1056     1.0  0.52639  0.96873  0.45178  1.0000
  H   H1266     1.0  0.53217  0.98370  0.46072  1.0000
  C   C1057     1.0  0.54206  0.97281  0.39575  1.0000
  H   H1267     1.0  0.49485  0.97187  0.01764  1.0000
  C   C1058     1.0  0.49619  0.93858  0.37982  1.0000
  H   H1268     1.0  0.51336  0.90380  0.41667  1.0000
  H   H1269     1.0  0.50067  0.97285  0.41016  1.0000
  H   H1270     1.0  0.52279  0.99246  0.40835  1.0000
  H   H1271     1.0  0.49644  0.78182  0.35068  1.0000
  C   C1059     1.0  0.49256  0.90700  0.38428  1.0000
  Fe  Fe143     1.0  0.55528  0.98944  0.54771  1.0000
  C   C1060     1.0  0.52040  0.90725  0.49555  1.0000
  C   C1061     1.0  0.53391  0.96478  0.72617  1.0000
  S   S285      1.0  0.54441  0.95881  0.94495  1.0000
  H   H1272     1.0  0.59191  0.97119  0.84166  1.0000
  S   S286      1.0  0.52936  0.99104  0.56387  1.0000
  H   H1273     1.0  0.58922  0.96622  0.79401  1.0000
  Fe  Fe144     1.0  0.55050  0.98938  0.93658  1.0000
  C   C1062     1.0  0.53388  0.93984  0.51899  1.0000
  H   H1274     1.0  0.56146  0.98056  0.85537  1.0000
  C   C1063     1.0  0.53595  0.92407  0.50665  1.0000
  H   H1275     1.0  0.52697  0.96668  0.70225  1.0000
  H   H1276     1.0  0.51178  0.89496  0.98813  1.0000
  C   C1064     1.0  0.51596  0.93849  0.52026  1.0000
  H   H1277     1.0  0.56469  0.93449  0.80032  1.0000
  H   H1278     1.0  0.55089  0.95543  0.69603  1.0000
  H   H1279     1.0  0.50846  0.98670  0.96109  1.0000
  H   H1280     1.0  0.56665  0.96432  0.87915  1.0000
  H   H1281     1.0  0.54369  0.95710  0.86137  1.0000
  C   C1065     1.0  0.52953  0.96894  0.76036  1.0000
  H   H1282     1.0  0.58666  0.98590  0.81244  1.0000
  H   H1283     1.0  0.56709  0.93787  0.84851  1.0000
  H   H1284     1.0  0.51404  0.95037  0.52991  1.0000
  C   C1066     1.0  0.52574  0.92315  0.96952  1.0000
  H   H1285     1.0  0.50267  0.76294  0.68158  1.0000
  C   C1067     1.0  0.54749  0.95859  0.72275  1.0000
  N   N72       1.0  0.56351  0.95952  0.82087  1.0000
  C   C1068     1.0  0.55990  0.93978  0.82397  1.0000
  C   C1069     1.0  0.58367  0.97114  0.81698  1.0000
  C   C1070     1.0  0.55853  0.96563  0.85549  1.0000
  C   C1071     1.0  0.55305  0.96122  0.78880  1.0000
  C   C1072     1.0  0.55687  0.95670  0.75354  1.0000
  C   C1073     1.0  0.53892  0.96726  0.79131  1.0000
  H   H1286     1.0  0.51513  0.78838  0.54604  1.0000
  H   H1287     1.0  0.54479  0.93064  0.82610  1.0000
  H   H1288     1.0  0.53518  0.97128  0.81677  1.0000
  H   H1289     1.0  0.56728  0.95186  0.74947  1.0000
  H   H1290     1.0  0.51920  0.97410  0.76285  1.0000
  C   C1074     1.0  0.50285  0.76864  0.58740  1.0000
  S   S287      1.0  0.55406  0.96106  0.53102  1.0000
  S   S288      1.0  0.53497  0.99171  0.88705  1.0000
  H   H1291     1.0  0.52828  0.91871  0.94322  1.0000
  C   C1075     1.0  0.50044  0.92177  0.50882  1.0000
  H   H1292     1.0  0.51157  0.76198  0.58092  1.0000
  C   C1076     1.0  0.53193  0.94234  0.97779  1.0000
  C   C1077     1.0  0.50507  0.78388  0.56698  1.0000
  C   C1078     1.0  0.49792  0.98963  0.97319  1.0000
  H   H1293     1.0  0.49502  0.80407  0.55518  1.0000
  H   H1294     1.0  0.54971  0.92488  0.50559  1.0000
  H   H1295     1.0  0.50495  0.98194  0.50548  1.0000
  C   C1079     1.0  0.49379  0.79277  0.57212  1.0000
  C   C1080     1.0  0.50250  0.90600  0.49639  1.0000
  H   H1296     1.0  0.51392  0.74779  0.63373  1.0000
