data_image0
_chemical_formula_structural       C2SHFeS2FeSHSHSC2H5SHSCNH4C6H2CHC3H2CHCHC3H3CSFeCH4C2FeCHC2HFeSH2C2SFeHSHC2SC2S2C2HCSC5H3CHC6H4CHCHCH2NCHCFeH3C2H6CH2CH3FeH2CSNSHCHCHCH3CH2FeH2CHCHC2FeC2H2SFeS2H2S2HCSCHC6SH3CH5CHC3FeHCFeH4CSCS3HCSHC3H2C5H2CHC2HCH6C2NH2C2HCHCHC2HCH3CH3NFeC3FeHCHFeCH2CHCHCHCH2CH4CFeS2FeS2FeSHCHC2HC2HC2HFeHCHCHCH2CNHCSCH2C5H5C3HCHC3SH2CH2C3N2H3CHCHFeHC2H3CH3NH3CSH2CFeH2SHC2HFeS2CSCHSC6H4CHC3HCH3SCH2SC5H6C2HNHCHCHCNH6CNCHCHCH2CH4C2H4CHCS2H3C4HCH4CH4CHNH2SCH2C2HNC8H7C2H4CSCH3CHCHFeS2FeSHFeS2FeSCSHC2HC2H2CHC2H2SH3FeH2C4H2SHCH3C2HNHC2H3CH2SFeHC3HCSHC2H2CNH2C4H3FeSHFeSCH4SHS2CH2C3HC6H3C4HSCH2C2H2SHCH4C2H2FeCHCHCHCH2SCH2C2H3FeNHC2NH2C3H2NC2H3CHCH2C4HCH2CH5C2HCFeSH2SFeS4FeHSHC3HSH3C6H4CH2CH3FeCSHC3NC2H4NHCH4C4H2SHCFeS2NSH2SHSC6H4Fe3H2FeSH2C2H2C3SH3CH2CHCH2C4SCHCH4SCH3C3H2FeHSCFeHFeS2FeS2HNS2C6H6CHCHCHSHC2FeC3SC2FeC2H2CH7NCH2CHCHCHC
_chemical_formula_sum              "C360 S96 H432 Fe48 N24"
_cell_length_a       28.4791
_cell_length_b       28.3686
_cell_length_c       32.8766
_cell_angle_alpha    90.4794
_cell_angle_beta     89.6673
_cell_angle_gamma    120.348

_space_group_name_H-M_alt    "P 1"
_space_group_IT_number       1

loop_
  _space_group_symop_operation_xyz
  'x, y, z'

loop_
  _atom_site_type_symbol
  _atom_site_label
  _atom_site_symmetry_multiplicity
  _atom_site_fract_x
  _atom_site_fract_y
  _atom_site_fract_z
  _atom_site_occupancy
  C   C1        1.0  0.49121  0.20411  0.17351  1.0000
  C   C2        1.0  0.04028  0.47143  0.23010  1.0000
  S   S1        1.0  0.23319  0.50121  0.31169  1.0000
  H   H1        1.0  0.02170  0.45633  0.26060  1.0000
  Fe  Fe1       1.0  0.20266  0.42949  0.26905  1.0000
  S   S2        1.0  0.28212  0.46175  0.23617  1.0000
  S   S3        1.0  0.12002  0.39415  0.23974  1.0000
  Fe  Fe2       1.0  0.30043  0.41641  0.28314  1.0000
  S   S4        1.0  0.34249  0.37155  0.26192  1.0000
  H   H2        1.0  0.06577  0.47551  0.15548  1.0000
  S   S5        1.0  0.21809  0.37819  0.31278  1.0000
  H   H3        1.0  0.27027  0.26401  0.12847  1.0000
  S   S6        1.0  0.43458  0.20514  0.35850  1.0000
  C   C3        1.0  0.35256  0.16539  0.25396  1.0000
  C   C4        1.0  0.34445  0.23778  0.11360  1.0000
  H   H4        1.0  0.34032  0.26223  0.08903  1.0000
  H   H5        1.0  0.38682  0.24551  0.11130  1.0000
  H   H6        1.0  0.47439  0.32491  0.31377  1.0000
  H   H7        1.0  0.31558  0.19405  0.10627  1.0000
  H   H8        1.0  0.35043  0.39449  0.34805  1.0000
  S   S7        1.0  0.09479  0.41573  0.05031  1.0000
  H   H9        1.0  0.37065  0.33685  0.13473  1.0000
  S   S8        1.0  0.33951  0.48652  0.32717  1.0000
  C   C5        1.0  0.35390  0.18111  0.18154  1.0000
  N   N1        1.0  0.33353  0.25299  0.15449  1.0000
  H   H10       1.0  0.35887  0.14464  0.27905  1.0000
  H   H11       1.0  0.26772  0.25904  0.18251  1.0000
  H   H12       1.0  0.24689  0.19877  0.15211  1.0000
  H   H13       1.0  0.33298  0.21466  0.29244  1.0000
  C   C6        1.0  0.11498  0.39800  0.18656  1.0000
  C   C7        1.0  0.06432  0.36559  0.16780  1.0000
  C   C8        1.0  0.27720  0.24324  0.15441  1.0000
  C   C9        1.0  0.10235  0.40691  0.10245  1.0000
  C   C10       1.0  0.15309  0.43953  0.12121  1.0000
  C   C11       1.0  0.15948  0.43491  0.16314  1.0000
  H   H14       1.0  0.18737  0.46861  0.10327  1.0000
  H   H15       1.0  0.19843  0.46043  0.17746  1.0000
  C   C12       1.0  0.38111  0.36494  0.30034  1.0000
  H   H16       1.0  0.37177  0.12292  0.20865  1.0000
  C   C13       1.0  0.37192  0.31229  0.16047  1.0000
  C   C14       1.0  0.44762  0.34041  0.32124  1.0000
  C   C15       1.0  0.41592  0.34499  0.29079  1.0000
  H   H17       1.0  0.02967  0.33717  0.18581  1.0000
  H   H18       1.0  0.41887  0.33355  0.25982  1.0000
  C   C16       1.0  0.33966  0.22199  0.18807  1.0000
  H   H19       1.0  0.36302  0.32857  0.18848  1.0000
  C   C17       1.0  0.33820  0.20486  0.26140  1.0000
  H   H20       1.0  0.41446  0.32095  0.16293  1.0000
  C   C18       1.0  0.33124  0.23237  0.22901  1.0000
  C   C19       1.0  0.05805  0.36978  0.12586  1.0000
  C   C20       1.0  0.35974  0.15313  0.21414  1.0000
  H   H21       1.0  0.36167  0.17044  0.15167  1.0000
  H   H22       1.0  0.05370  0.44282  0.21940  1.0000
  H   H23       1.0  0.31998  0.26257  0.23638  1.0000
  C   C21       1.0  0.50020  0.30497  0.19006  1.0000
  S   S9        1.0  0.48708  0.17677  0.25341  1.0000
  Fe  Fe3       1.0  0.25540  0.45275  0.35299  1.0000
  C   C22       1.0  0.37819  0.38039  0.34035  1.0000
  H   H24       1.0  0.14710  0.50719  0.24442  1.0000
  H   H25       1.0  0.49270  0.22434  0.11020  1.0000
  H   H26       1.0  0.48684  0.16462  0.16700  1.0000
  H   H27       1.0  0.11189  0.51087  0.28859  1.0000
  C   C23       1.0  0.49446  0.23784  0.14132  1.0000
  C   C24       1.0  0.44536  0.35686  0.36105  1.0000
  Fe  Fe4       1.0  0.49939  0.20736  0.31817  1.0000
  C   C25       1.0  0.49246  0.22072  0.21399  1.0000
  H   H28       1.0  0.49791  0.28421  0.25341  1.0000
  C   C26       1.0  0.49741  0.27143  0.22226  1.0000
  C   C27       1.0  0.49861  0.28818  0.14955  1.0000
  H   H29       1.0  0.01872  0.34486  0.11182  1.0000
  Fe  Fe5       1.0  0.50861  0.30608  0.04559  1.0000
  S   S10       1.0  0.50176  0.33095  0.10989  1.0000
  H   H30       1.0  0.49020  0.45948  0.28990  1.0000
  H   H31       1.0  0.50330  0.34389  0.19659  1.0000
  C   C28       1.0  0.10165  0.40452  0.62939  1.0000
  C   C29       1.0  0.08423  0.37915  0.66721  1.0000
  S   S11       1.0  0.23704  0.45396  0.42000  1.0000
  Fe  Fe6       1.0  0.37591  0.43131  0.61295  1.0000
  H   H32       1.0  0.43768  0.35185  0.52726  1.0000
  S   S12       1.0  0.37756  0.41007  0.54641  1.0000
  H   H33       1.0  0.13974  0.49091  0.54687  1.0000
  C   C30       1.0  0.17305  0.38892  0.67833  1.0000
  C   C31       1.0  0.42314  0.18932  0.59696  1.0000
  S   S13       1.0  0.33602  0.36332  0.65831  1.0000
  C   C32       1.0  0.12439  0.32579  0.47299  1.0000
  C   C33       1.0  0.40510  0.19542  0.52586  1.0000
  S   S14       1.0  0.39681  0.09629  0.43990  1.0000
  S   S15       1.0  0.48575  0.35263  0.39903  1.0000
  C   C34       1.0  0.41494  0.06622  0.47881  1.0000
  C   C35       1.0  0.46905  0.08862  0.49093  1.0000
  H   H34       1.0  0.09784  0.32490  0.44788  1.0000
  C   C36       1.0  0.21432  0.32220  0.57479  1.0000
  S   S16       1.0  0.05756  0.41420  0.59829  1.0000
  C   C37       1.0  0.33694  0.26966  0.51122  1.0000
  C   C38       1.0  0.15440  0.42142  0.61587  1.0000
  C   C39       1.0  0.18976  0.41320  0.64015  1.0000
  C   C40       1.0  0.13312  0.27813  0.61592  1.0000
  C   C41       1.0  0.41932  0.23546  0.60552  1.0000
  H   H35       1.0  0.43140  0.16877  0.62115  1.0000
  H   H36       1.0  0.16754  0.43913  0.58608  1.0000
  H   H37       1.0  0.22915  0.42392  0.62851  1.0000
  C   C42       1.0  0.43300  0.32855  0.49876  1.0000
  H   H38       1.0  0.40804  0.38841  0.40152  1.0000
  C   C43       1.0  0.27650  0.44186  0.45462  1.0000
  C   C44       1.0  0.30543  0.41645  0.44231  1.0000
  C   C45       1.0  0.33559  0.40613  0.47089  1.0000
  C   C46       1.0  0.33767  0.42190  0.51172  1.0000
  C   C47       1.0  0.30856  0.44716  0.52392  1.0000
  C   C48       1.0  0.27774  0.45673  0.49553  1.0000
  H   H39       1.0  0.30395  0.40415  0.41088  1.0000
  H   H40       1.0  0.34789  0.20281  0.45928  1.0000
  H   H41       1.0  0.30952  0.45924  0.55519  1.0000
  H   H42       1.0  0.48156  0.46201  0.44438  1.0000
  C   C49       1.0  0.48246  0.06408  0.52228  1.0000
  H   H43       1.0  0.42473  0.25089  0.63651  1.0000
  C   C50       1.0  0.41606  0.16939  0.55725  1.0000
  H   H44       1.0  0.40536  0.29720  0.58265  1.0000
  C   C51       1.0  0.40072  0.24251  0.53354  1.0000
  H   H45       1.0  0.35755  0.38612  0.46130  1.0000
  H   H46       1.0  0.30280  0.22693  0.51494  1.0000
  N   N2        1.0  0.38839  0.27081  0.50128  1.0000
  C   C52       1.0  0.40823  0.26173  0.57439  1.0000
  H   H47       1.0  0.05892  0.26000  0.58772  1.0000
  C   C53       1.0  0.38204  0.24592  0.46022  1.0000
  Fe  Fe7       1.0  0.46275  0.16712  0.40487  1.0000
  H   H48       1.0  0.25514  0.47604  0.50526  1.0000
  H   H49       1.0  0.37353  0.26853  0.43656  1.0000
  H   H50       1.0  0.09089  0.36938  0.53217  1.0000
  C   C54       1.0  0.37422  0.01952  0.49840  1.0000
  C   C55       1.0  0.41062  0.37674  0.37062  1.0000
  H   H51       1.0  0.21290  0.30158  0.63789  1.0000
  H   H52       1.0  0.41995  0.24693  0.45030  1.0000
  H   H53       1.0  0.25802  0.33995  0.57200  1.0000
  H   H54       1.0  0.44504  0.48151  0.47762  1.0000
  H   H55       1.0  0.47264  0.33113  0.49211  1.0000
  H   H56       1.0  0.15469  0.36964  0.47877  1.0000
  C   C56       1.0  0.18905  0.30035  0.61187  1.0000
  H   H57       1.0  0.02499  0.21877  0.52531  1.0000
  H   H58       1.0  0.14617  0.30529  0.46090  1.0000
  C   C57       1.0  0.18375  0.32200  0.54152  1.0000
  H   H59       1.0  0.32549  0.28926  0.48705  1.0000
  H   H60       1.0  0.41875  0.13323  0.55070  1.0000
  H   H61       1.0  0.20602  0.33967  0.51378  1.0000
  Fe  Fe8       1.0  0.30276  0.41336  0.68554  1.0000
  H   H62       1.0  0.42564  0.35080  0.47420  1.0000
  H   H63       1.0  0.11386  0.26224  0.64512  1.0000
  C   C58       1.0  0.12652  0.29988  0.54470  1.0000
  S   S17       1.0  0.45257  0.47902  0.64967  1.0000
  N   N3        1.0  0.09258  0.29866  0.51025  1.0000
  S   S18       1.0  0.33716  0.47758  0.63755  1.0000
  H   H64       1.0  0.33996  0.29223  0.53982  1.0000
  C   C59       1.0  0.06244  0.32671  0.52205  1.0000
  H   H65       1.0  0.50026  0.12513  0.47637  1.0000
  C   C60       1.0  0.10217  0.27768  0.58293  1.0000
  H   H66       1.0  0.45844  0.48983  0.38009  1.0000
  C   C61       1.0  0.12009  0.37175  0.69182  1.0000
  H   H67       1.0  0.04337  0.36587  0.67774  1.0000
  H   H68       1.0  0.18887  0.51186  0.50729  1.0000
  H   H69       1.0  0.40002  0.17753  0.49592  1.0000
  C   C62       1.0  0.05271  0.24111  0.49955  1.0000
  H   H70       1.0  0.03315  0.30584  0.54727  1.0000
  H   H71       1.0  0.07353  0.21831  0.49066  1.0000
  Fe  Fe9       1.0  0.50144  0.28471  0.38314  1.0000
  H   H72       1.0  0.02582  0.23819  0.47398  1.0000
  H   H73       1.0  0.03777  0.32818  0.49646  1.0000
  C   C63       1.0  0.48389  0.49770  0.46053  1.0000
  H   H74       1.0  0.41052  0.49822  0.41028  1.0000
  C   C64       1.0  0.44170  0.01737  0.54193  1.0000
  H   H75       1.0  0.48083  0.06417  0.83066  1.0000
  C   C65       1.0  0.41714  0.07751  0.98499  1.0000
  C   C66       1.0  0.03738  0.26789  0.85154  1.0000
  Fe  Fe10      1.0  0.40951  0.41448  0.69736  1.0000
  C   C67       1.0  0.04627  0.28186  0.81058  1.0000
  C   C68       1.0  0.43907  0.03417  0.83799  1.0000
  H   H76       1.0  0.10674  0.35260  0.72123  1.0000
  H   H77       1.0  0.43798  0.07519  0.89306  1.0000
  S   S19       1.0  0.44092  0.25359  0.00220  1.0000
  Fe  Fe11      1.0  0.49554  0.22135  0.98227  1.0000
  S   S20       1.0  0.37256  0.45862  0.72848  1.0000
  S   S21       1.0  0.45459  0.37794  0.72861  1.0000
  H   H78       1.0  0.19508  0.45614  0.75531  1.0000
  H   H79       1.0  0.48855  0.32159  0.78256  1.0000
  S   S22       1.0  0.45389  0.36433  0.92133  1.0000
  S   S23       1.0  0.21758  0.37971  0.70962  1.0000
  H   H80       1.0  0.45232  0.02626  0.99107  1.0000
  C   C69       1.0  0.41510  0.02760  0.99094  1.0000
  S   S24       1.0  0.48005  0.13552  0.97272  1.0000
  C   C70       1.0  0.08686  0.50595  0.93584  1.0000
  H   H81       1.0  0.10791  0.42235  0.78961  1.0000
  C   C71       1.0  0.45008  0.37037  0.78204  1.0000
  C   C72       1.0  0.47204  0.34159  0.80098  1.0000
  C   C73       1.0  0.47283  0.33859  0.84370  1.0000
  C   C74       1.0  0.45172  0.36452  0.86769  1.0000
  C   C75       1.0  0.42945  0.39291  0.84872  1.0000
  C   C76       1.0  0.42872  0.39595  0.80612  1.0000
  S   S25       1.0  0.02768  0.31296  0.96169  1.0000
  H   H82       1.0  0.41246  0.41248  0.86709  1.0000
  H   H83       1.0  0.41197  0.41840  0.79202  1.0000
  H   H84       1.0  0.06002  0.46199  0.94336  1.0000
  C   C77       1.0  0.41489  0.04036  0.87301  1.0000
  H   H85       1.0  0.08662  0.48545  0.82654  1.0000
  H   H86       1.0  0.37009  0.11747  0.98139  1.0000
  H   H87       1.0  0.50329  0.48457  0.90472  1.0000
  H   H88       1.0  0.08163  0.31987  0.80137  1.0000
  H   H89       1.0  0.48977  0.31633  0.85803  1.0000
  C   C78       1.0  0.36893  0.07921  0.98618  1.0000
  H   H90       1.0  0.06591  0.29526  0.87417  1.0000
  C   C79       1.0  0.12572  0.50122  0.81153  1.0000
  C   C80       1.0  0.13769  0.46564  0.79066  1.0000
  C   C81       1.0  0.31884  0.03081  0.99222  1.0000
  Fe  Fe12      1.0  0.48855  0.32035  0.95643  1.0000
  H   H91       1.0  0.28147  0.03203  0.99234  1.0000
  C   C82       1.0  0.18788  0.48545  0.77117  1.0000
  Fe  Fe13      1.0  0.01814  0.35149  0.01871  1.0000
  H   H92       1.0  0.05329  0.48926  0.01446  1.0000
  H   H93       1.0  0.08157  0.51183  0.90312  1.0000
  H   H94       1.0  0.28519  0.48792  0.76110  1.0000
  H   H95       1.0  0.24834  0.50544  0.70061  1.0000
  C   C83       1.0  0.40856  0.75603  0.04276  1.0000
  S   S26       1.0  0.37339  0.61575  0.26580  1.0000
  C   C84       1.0  0.06526  0.56202  0.25082  1.0000
  S   S27       1.0  0.09991  0.66023  0.06613  1.0000
  S   S28       1.0  0.24718  0.80025  0.06698  1.0000
  S   S29       1.0  0.37123  0.77792  0.07170  1.0000
  H   H96       1.0  0.49804  0.66059  0.22725  1.0000
  C   C85       1.0  0.08609  0.66743  0.11757  1.0000
  S   S30       1.0  0.05226  0.67998  0.25270  1.0000
  H   H97       1.0  0.27842  0.60581  0.10027  1.0000
  C   C86       1.0  0.06340  0.67523  0.20027  1.0000
  C   C87       1.0  0.11382  0.71301  0.18329  1.0000
  C   C88       1.0  0.12493  0.70951  0.14201  1.0000
  H   H98       1.0  0.14434  0.74540  0.20207  1.0000
  H   H99       1.0  0.16377  0.73909  0.12929  1.0000
  C   C89       1.0  0.32483  0.57251  0.15583  1.0000
  C   C90       1.0  0.46144  0.69732  0.30577  1.0000
  C   C91       1.0  0.41094  0.64932  0.30940  1.0000
  C   C92       1.0  0.45693  0.76248  0.05852  1.0000
  C   C93       1.0  0.17618  0.62853  0.15009  1.0000
  H   H100      1.0  0.33073  0.54448  0.13542  1.0000
  H   H101      1.0  0.20613  0.67165  0.14754  1.0000
  C   C94       1.0  0.32328  0.62345  0.09810  1.0000
  H   H102      1.0  0.17737  0.61321  0.08608  1.0000
  C   C95       1.0  0.44560  0.70071  0.15695  1.0000
  C   C96       1.0  0.48690  0.74429  0.03632  1.0000
  H   H103      1.0  0.47574  0.71589  0.27628  1.0000
  C   C97       1.0  0.40801  0.65326  0.13469  1.0000
  H   H104      1.0  0.40462  0.59330  0.09090  1.0000
  H   H105      1.0  0.35232  0.59035  0.35098  1.0000
  H   H106      1.0  0.03472  0.56367  0.23083  1.0000
  H   H107      1.0  0.34041  0.66423  0.08380  1.0000
  H   H108      1.0  0.34581  0.66213  0.19710  1.0000
  H   H109      1.0  0.47776  0.61292  0.26768  1.0000
  C   C98       1.0  0.15999  0.59571  0.11538  1.0000
  C   C99       1.0  0.15212  0.60671  0.18769  1.0000
  N   N4        1.0  0.34813  0.62806  0.13860  1.0000
  H   H110      1.0  0.47137  0.78178  0.08792  1.0000
  H   H111      1.0  0.43265  0.72147  0.17789  1.0000
  C   C100      1.0  0.02413  0.63355  0.17571  1.0000
  C   C101      1.0  0.49420  0.72069  0.34022  1.0000
  H   H112      1.0  0.32988  0.59700  0.07658  1.0000
  C   C102      1.0  0.03569  0.62940  0.13457  1.0000
  H   H113      1.0  0.28642  0.64032  0.16711  1.0000
  C   C103      1.0  0.33148  0.65967  0.16528  1.0000
  H   H114      1.0  0.47965  0.59170  0.21594  1.0000
  C   C104      1.0  0.11068  0.55107  0.19158  1.0000
  C   C105      1.0  0.43048  0.62963  0.10849  1.0000
  H   H115      1.0  0.16568  0.63410  0.21358  1.0000
  C   C106      1.0  0.48678  0.65286  0.10392  1.0000
  H   H116      1.0  0.28022  0.55316  0.16123  1.0000
  H   H117      1.0  0.09748  0.60487  0.25706  1.0000
  H   H118      1.0  0.34410  0.57384  0.18549  1.0000
  C   C107      1.0  0.50097  0.62527  0.23858  1.0000
  H   H119      1.0  0.34730  0.70187  0.15351  1.0000
  H   H120      1.0  0.04519  0.54514  0.28056  1.0000
  H   H121      1.0  0.16241  0.57240  0.26459  1.0000
  N   N5        1.0  0.08638  0.52870  0.23188  1.0000
  Fe  Fe14      1.0  0.17986  0.72392  0.03853  1.0000
  C   C108      1.0  0.39208  0.62632  0.34777  1.0000
  C   C109      1.0  0.12880  0.53004  0.25858  1.0000
  C   C110      1.0  0.50186  0.72358  0.15215  1.0000
  Fe  Fe15      1.0  0.31424  0.52891  0.28272  1.0000
  H   H122      1.0  0.50292  0.63507  0.08271  1.0000
  C   C111      1.0  0.12024  0.54079  0.11822  1.0000
  H   H123      1.0  0.47685  0.53225  0.26622  1.0000
  Fe  Fe16      1.0  0.30223  0.77503  0.03700  1.0000
  C   C112      1.0  0.09594  0.51847  0.15564  1.0000
  H   H124      1.0  0.10779  0.51517  0.09123  1.0000
  H   H125      1.0  0.25465  0.60276  0.49647  1.0000
  C   C113      1.0  0.10509  0.63513  0.61412  1.0000
  H   H126      1.0  0.20677  0.62644  0.49388  1.0000
  C   C114      1.0  0.08318  0.76475  0.63659  1.0000
  H   H127      1.0  0.07610  0.77961  0.60845  1.0000
  C   C115      1.0  0.40414  0.62108  0.62239  1.0000
  H   H128      1.0  0.14291  0.81067  0.53676  1.0000
  C   C116      1.0  0.42302  0.64157  0.66148  1.0000
  H   H129      1.0  0.26359  0.72731  0.44091  1.0000
  H   H130      1.0  0.47800  0.77967  0.53299  1.0000
  C   C117      1.0  0.42277  0.68840  0.67498  1.0000
  H   H131      1.0  0.43397  0.93116  0.37967  1.0000
  H   H132      1.0  0.18666  0.76116  0.53946  1.0000
  H   H133      1.0  0.26383  0.75626  0.51219  1.0000
  H   H134      1.0  0.42716  0.96014  0.44967  1.0000
  C   C118      1.0  0.45320  0.51964  0.39881  1.0000
  Fe  Fe17      1.0  0.34901  0.78915  0.61322  1.0000
  S   S31       1.0  0.41912  0.85987  0.64423  1.0000
  S   S32       1.0  0.35435  0.72222  0.58039  1.0000
  Fe  Fe18      1.0  0.27322  0.83254  0.62955  1.0000
  S   S33       1.0  0.33724  0.90791  0.66175  1.0000
  S   S34       1.0  0.18963  0.81635  0.61306  1.0000
  Fe  Fe19      1.0  0.39287  0.91175  0.61144  1.0000
  S   S35       1.0  0.32724  0.84140  0.57663  1.0000
  H   H135      1.0  0.23403  0.67702  0.58451  1.0000
  C   C119      1.0  0.13611  0.77820  0.64725  1.0000
  H   H136      1.0  0.45491  0.92815  0.50742  1.0000
  C   C120      1.0  0.46746  0.88179  0.39886  1.0000
  C   C121      1.0  0.46832  0.79670  0.50599  1.0000
  H   H137      1.0  0.18158  0.70905  0.62223  1.0000
  C   C122      1.0  0.22876  0.74481  0.49300  1.0000
  C   C123      1.0  0.11135  0.79575  0.51264  1.0000
  H   H138      1.0  0.47095  0.86953  0.36815  1.0000
  C   C124      1.0  0.38379  0.64646  0.59733  1.0000
  C   C125      1.0  0.38188  0.69218  0.61143  1.0000
  H   H139      1.0  0.26179  0.61022  0.59084  1.0000
  Fe  Fe20      1.0  0.35785  0.84964  0.69186  1.0000
  H   H140      1.0  0.40623  0.58633  0.61111  1.0000
  C   C126      1.0  0.16465  0.59709  0.56847  1.0000
  H   H141      1.0  0.09971  0.71714  0.56254  1.0000
  C   C127      1.0  0.42449  0.65000  0.38225  1.0000
  H   H142      1.0  0.10576  0.70508  0.42230  1.0000
  C   C128      1.0  0.04650  0.72130  0.47168  1.0000
  H   H143      1.0  0.05707  0.66004  0.53005  1.0000
  H   H144      1.0  0.13474  0.52645  0.50333  1.0000
  C   C129      1.0  0.40143  0.71315  0.65027  1.0000
  N   N6        1.0  0.19720  0.57759  0.54632  1.0000
  H   H145      1.0  0.07770  0.80091  0.52500  1.0000
  C   C130      1.0  0.47990  0.87794  0.47245  1.0000
  S   S36       1.0  0.28942  0.77375  0.66340  1.0000
  C   C131      1.0  0.19049  0.64997  0.58651  1.0000
  H   H146      1.0  0.05932  0.74766  0.44422  1.0000
  H   H147      1.0  0.25746  0.55542  0.56073  1.0000
  C   C132      1.0  0.14508  0.75966  0.68407  1.0000
  C   C133      1.0  0.13801  0.73371  0.48396  1.0000
  C   C134      1.0  0.03921  0.73246  0.66237  1.0000
  C   C135      1.0  0.18425  0.74744  0.50837  1.0000
  C   C136      1.0  0.47599  0.69657  0.37839  1.0000
  H   H148      1.0  0.40023  0.74850  0.66137  1.0000
  H   H149      1.0  0.26347  0.65715  0.52834  1.0000
  H   H150      1.0  0.12954  0.82358  0.48621  1.0000
  H   H151      1.0  0.03509  0.55645  0.60213  1.0000
  H   H152      1.0  0.40975  0.63184  0.41180  1.0000
  C   C137      1.0  0.23186  0.61776  0.51497  1.0000
  C   C138      1.0  0.13894  0.71652  0.44329  1.0000
  C   C139      1.0  0.18375  0.71411  0.42822  1.0000
  H   H153      1.0  0.36954  0.63060  0.56706  1.0000
  C   C140      1.0  0.22866  0.72849  0.45292  1.0000
  H   H154      1.0  0.47877  0.78004  0.47890  1.0000
  C   C141      1.0  0.16092  0.66862  0.60863  1.0000
  C   C142      1.0  0.45907  0.91384  0.47785  1.0000
  C   C143      1.0  0.44283  0.93268  0.44466  1.0000
  S   S37       1.0  0.45980  0.98746  0.58103  1.0000
  H   H155      1.0  0.44400  0.85980  0.55216  1.0000
  H   H156      1.0  0.35582  0.95927  0.54496  1.0000
  C   C144      1.0  0.07845  0.58286  0.59717  1.0000
  H   H157      1.0  0.02971  0.67816  0.46178  1.0000
  H   H158      1.0  0.42347  0.77957  0.50604  1.0000
  C   C145      1.0  0.16351  0.52446  0.52506  1.0000
  C   C146      1.0  0.06974  0.70326  0.53730  1.0000
  C   C147      1.0  0.44675  0.91649  0.40527  1.0000
  N   N7        1.0  0.49780  0.85737  0.50683  1.0000
  N   N8        1.0  0.09203  0.73824  0.50079  1.0000
  H   H159      1.0  0.50012  0.83628  0.42531  1.0000
  H   H160      1.0  0.18380  0.70158  0.39694  1.0000
  H   H161      1.0  0.50062  0.85737  0.57264  1.0000
  C   C148      1.0  0.10752  0.56381  0.57472  1.0000
  H   H162      1.0  0.44023  0.55951  0.46981  1.0000
  C   C149      1.0  0.48799  0.87443  0.54736  1.0000
  H   H163      1.0  0.03345  0.70370  0.54976  1.0000
  Fe  Fe21      1.0  0.40969  0.51924  0.67805  1.0000
  H   H164      1.0  0.20807  0.54175  0.60021  1.0000
  C   C150      1.0  0.23267  0.57092  0.57573  1.0000
  C   C151      1.0  0.48394  0.86283  0.43185  1.0000
  H   H165      1.0  0.08261  0.64954  0.63204  1.0000
  H   H166      1.0  0.45777  0.55250  0.37796  1.0000
  H   H167      1.0  0.08434  0.52240  0.56338  1.0000
  C   C152      1.0  0.38752  0.99511  0.52989  1.0000
  H   H168      1.0  0.51137  0.91969  0.55132  1.0000
  H   H169      1.0  0.48297  0.61290  0.43631  1.0000
  H   H170      1.0  0.18582  0.77016  0.69266  1.0000
  N   N9        1.0  0.49298  0.54249  0.43257  1.0000
  H   H171      1.0  0.25078  0.56942  0.69395  1.0000
  H   H172      1.0  0.33220  0.00225  0.48929  1.0000
  H   H173      1.0  0.31195  0.56561  0.69083  1.0000
  C   C153      1.0  0.48174  0.58072  0.45604  1.0000
  S   S38       1.0  0.44443  0.60771  0.69456  1.0000
  H   H174      1.0  0.51137  0.60076  0.48129  1.0000
  H   H175      1.0  0.48777  0.55898  0.92352  1.0000
  C   C154      1.0  0.40958  0.98908  0.81263  1.0000
  Fe  Fe22      1.0  0.25233  0.84006  0.00696  1.0000
  H   H176      1.0  0.43828  0.70511  0.70487  1.0000
  H   H177      1.0  0.35946  0.63386  0.74234  1.0000
  S   S39       1.0  0.50891  0.70151  0.96874  1.0000
  H   H178      1.0  0.15834  0.60699  0.95250  1.0000
  C   C155      1.0  0.30808  0.53245  0.76816  1.0000
  C   C156      1.0  0.04809  0.71410  0.69929  1.0000
  H   H179      1.0  0.19928  0.84620  0.84416  1.0000
  Fe  Fe23      1.0  0.24077  0.74337  0.95756  1.0000
  S   S40       1.0  0.22726  0.70493  0.89499  1.0000
  S   S41       1.0  0.31352  0.82130  0.97916  1.0000
  C   C157      1.0  0.22802  0.54180  0.77216  1.0000
  S   S42       1.0  0.38488  0.86024  0.75746  1.0000
  C   C158      1.0  0.11592  0.59924  0.95210  1.0000
  H   H180      1.0  0.03125  0.59722  0.00010  1.0000
  S   S43       1.0  0.18011  0.76535  0.98069  1.0000
  C   C159      1.0  0.27198  0.74652  0.85655  1.0000
  C   C160      1.0  0.25451  0.73792  0.81595  1.0000
  C   C161      1.0  0.28893  0.77219  0.78507  1.0000
  C   C162      1.0  0.34119  0.81480  0.79471  1.0000
  C   C163      1.0  0.35900  0.82258  0.83518  1.0000
  C   C164      1.0  0.32463  0.78837  0.86599  1.0000
  H   H181      1.0  0.21379  0.70557  0.80847  1.0000
  H   H182      1.0  0.27473  0.76613  0.75401  1.0000
  H   H183      1.0  0.39941  0.85549  0.84268  1.0000
  H   H184      1.0  0.33878  0.79452  0.89706  1.0000
  C   C165      1.0  0.24223  0.87522  0.83528  1.0000
  H   H185      1.0  0.12485  0.53632  0.00966  1.0000
  C   C166      1.0  0.41933  0.71140  0.98303  1.0000
  C   C167      1.0  0.46870  0.71948  0.99832  1.0000
  C   C168      1.0  0.16399  0.55691  0.81291  1.0000
  H   H186      1.0  0.35182  0.72461  0.99289  1.0000
  C   C169      1.0  0.32950  0.95558  0.85718  1.0000
  H   H187      1.0  0.40481  0.69187  0.95372  1.0000
  H   H188      1.0  0.34952  0.54841  0.75496  1.0000
  H   H189      1.0  0.10860  0.61002  0.92120  1.0000
  S   S44       1.0  0.25335  0.92005  0.00107  1.0000
  C   C170      1.0  0.10108  0.72770  0.71008  1.0000
  H   H190      1.0  0.15469  0.58474  0.82912  1.0000
  H   H191      1.0  0.34513  0.00729  0.91096  1.0000
  S   S45       1.0  0.23470  0.69542  0.01325  1.0000
  C   C171      1.0  0.49526  0.55880  0.80159  1.0000
  C   C172      1.0  0.31685  0.98072  0.99731  1.0000
  C   C173      1.0  0.08394  0.53152  0.00510  1.0000
  C   C174      1.0  0.47570  0.96761  0.92312  1.0000
  C   C175      1.0  0.24192  0.94015  0.88238  1.0000
  H   H192      1.0  0.19814  0.90963  0.88746  1.0000
  H   H193      1.0  0.25612  0.96157  0.91218  1.0000
  H   H194      1.0  0.47361  0.82647  0.88859  1.0000
  H   H195      1.0  0.24190  0.62079  0.79580  1.0000
  H   H196      1.0  0.24138  0.89733  0.80773  1.0000
  H   H197      1.0  0.36422  0.94117  0.00154  1.0000
  C   C176      1.0  0.36120  0.00141  0.88279  1.0000
  C   C177      1.0  0.21441  0.57721  0.79350  1.0000
  H   H198      1.0  0.32812  0.63243  0.78972  1.0000
  N   N10       1.0  0.27328  0.91390  0.86883  1.0000
  H   H199      1.0  0.33549  0.91638  0.80094  1.0000
  C   C178      1.0  0.36521  0.97937  0.99710  1.0000
  H   H200      1.0  0.23475  0.85144  0.91439  1.0000
  C   C179      1.0  0.35561  0.95032  0.82188  1.0000
  H   H201      1.0  0.25947  0.84892  0.82681  1.0000
  C   C180      1.0  0.31946  0.62095  0.75700  1.0000
  N   N11       1.0  0.07547  0.54176  0.96234  1.0000
  H   H202      1.0  0.29918  0.90827  0.92904  1.0000
  H   H203      1.0  0.30364  0.64574  0.74285  1.0000
  H   H204      1.0  0.11514  0.62901  0.97395  1.0000
  H   H205      1.0  0.45062  0.81242  0.94098  1.0000
  H   H206      1.0  0.29689  0.85934  0.89371  1.0000
  H   H207      1.0  0.24441  0.97007  0.85953  1.0000
  C   C181      1.0  0.27600  0.88175  0.90294  1.0000
  N   N12       1.0  0.28116  0.56140  0.75167  1.0000
  C   C182      1.0  0.38951  0.73019  0.00505  1.0000
  H   H208      1.0  0.10807  0.71363  0.73867  1.0000
  C   C183      1.0  0.27259  0.54997  0.70737  1.0000
  H   H209      1.0  0.49153  0.78700  0.92034  1.0000
  C   C184      1.0  0.47958  0.92039  0.92331  1.0000
  H   H210      1.0  0.31236  0.53717  0.80181  1.0000
  H   H211      1.0  0.45475  0.53611  0.78877  1.0000
  C   C185      1.0  0.01969  0.53250  0.95772  1.0000
  H   H212      1.0  0.46995  0.51964  0.85898  1.0000
  H   H213      1.0  0.43714  0.96482  0.91634  1.0000
  H   H214      1.0  0.44275  0.88259  0.91628  1.0000
  H   H215      1.0  0.42854  0.98366  0.78561  1.0000
  C   C186      1.0  0.50447  0.54970  0.84176  1.0000
  C   C187      1.0  0.48547  0.82290  0.92014  1.0000
  H   H216      1.0  0.08067  0.56001  0.02681  1.0000
  H   H217      1.0  0.12933  0.51454  0.93958  1.0000
  H   H218      1.0  0.51550  0.85935  0.99707  1.0000
  H   H219      1.0  0.60548  0.37999  0.15698  1.0000
  C   C188      1.0  0.73744  0.26000  0.13064  1.0000
  H   H220      1.0  0.77379  0.46778  0.09557  1.0000
  C   C189      1.0  0.69324  0.41423  0.15303  1.0000
  S   S46       1.0  0.94969  0.27239  0.04277  1.0000
  S   S47       1.0  0.84022  0.42522  0.27502  1.0000
  H   H221      1.0  0.60393  0.40141  0.22880  1.0000
  H   H222      1.0  0.77012  0.40325  0.10612  1.0000
  H   H223      1.0  0.67666  0.35890  0.35899  1.0000
  C   C190      1.0  0.57746  0.50632  0.28706  1.0000
  C   C191      1.0  0.74959  0.38961  0.32288  1.0000
  C   C192      1.0  0.79352  0.38308  0.31192  1.0000
  C   C193      1.0  0.66601  0.42462  0.08519  1.0000
  H   H224      1.0  0.66099  0.19763  0.15178  1.0000
  C   C194      1.0  0.74135  0.43975  0.17704  1.0000
  H   H225      1.0  0.74559  0.42217  0.30973  1.0000
  H   H226      1.0  0.62189  0.40554  0.09222  1.0000
  H   H227      1.0  0.81635  0.32765  0.11560  1.0000
  H   H228      1.0  0.59970  0.26086  0.25775  1.0000
  C   C195      1.0  0.74866  0.42260  0.09199  1.0000
  H   H229      1.0  0.58251  0.47304  0.29759  1.0000
  H   H230      1.0  0.82350  0.37883  0.17923  1.0000
  H   H231      1.0  0.83289  0.33614  0.32096  1.0000
  H   H232      1.0  0.75048  0.34112  0.22920  1.0000
  C   C196      1.0  0.76050  0.30611  0.35784  1.0000
  H   H233      1.0  0.62490  0.15671  0.21326  1.0000
  N   N13       1.0  0.69323  0.40117  0.10930  1.0000
  H   H234      1.0  0.87592  0.04620  0.10679  1.0000
  H   H235      1.0  0.66345  0.31915  0.24545  1.0000
  S   S48       1.0  0.56410  0.29092  0.33836  1.0000
  C   C197      1.0  0.66301  0.34108  0.10372  1.0000
  H   H236      1.0  0.61925  0.32241  0.11207  1.0000
  H   H237      1.0  0.61482  0.28250  0.20583  1.0000
  C   C198      1.0  0.64236  0.41214  0.21433  1.0000
  C   C199      1.0  0.64367  0.40014  0.17315  1.0000
  H   H238      1.0  0.58736  0.18619  0.19094  1.0000
  N   N14       1.0  0.65581  0.24169  0.22818  1.0000
  C   C200      1.0  0.67984  0.23786  0.26707  1.0000
  C   C201      1.0  0.63264  0.27773  0.23447  1.0000
  C   C202      1.0  0.61030  0.18605  0.21821  1.0000
  C   C203      1.0  0.69848  0.26503  0.19634  1.0000
  C   C204      1.0  0.74541  0.31729  0.20205  1.0000
  C   C205      1.0  0.69531  0.23720  0.15932  1.0000
  C   C206      1.0  0.78737  0.33953  0.17333  1.0000
  C   C207      1.0  0.78349  0.31082  0.13773  1.0000
  H   H239      1.0  0.68520  0.46937  0.09067  1.0000
  H   H240      1.0  0.71091  0.27849  0.27879  1.0000
  H   H241      1.0  0.64865  0.21912  0.29161  1.0000
  H   H242      1.0  0.69983  0.21299  0.26339  1.0000
  H   H243      1.0  0.58006  0.16892  0.24342  1.0000
  H   H244      1.0  0.68072  0.32165  0.12259  1.0000
  H   H245      1.0  0.74723  0.41383  0.05879  1.0000
  C   C208      1.0  0.71026  0.35341  0.35041  1.0000
  C   C209      1.0  0.79894  0.34129  0.32941  1.0000
  H   H246      1.0  0.73485  0.23789  0.10281  1.0000
  H   H247      1.0  0.66440  0.32947  0.07149  1.0000
  H   H248      1.0  0.80974  0.03902  0.10192  1.0000
  H   H249      1.0  0.66817  0.41813  0.05190  1.0000
  C   C210      1.0  0.52544  0.49876  0.28277  1.0000
  S   S49       1.0  0.81582  0.27479  0.03693  1.0000
  C   C211      1.0  0.69034  0.43829  0.23675  1.0000
  H   H250      1.0  0.68949  0.44844  0.26850  1.0000
  H   H251      1.0  0.00731  0.46753  0.20981  1.0000
  H   H252      1.0  0.84125  0.02909  0.05878  1.0000
  C   C212      1.0  0.73960  0.45161  0.21823  1.0000
  H   H253      1.0  0.78101  0.45139  0.16481  1.0000
  C   C213      1.0  0.83534  0.02170  0.09213  1.0000
  H   H254      1.0  0.77690  0.47170  0.23587  1.0000
  Fe  Fe24      1.0  0.87338  0.51297  0.29211  1.0000
  S   S50       1.0  0.52236  0.16271  0.36255  1.0000
  S   S51       1.0  0.55904  0.26875  0.02974  1.0000
  Fe  Fe25      1.0  0.97278  0.34387  0.60592  1.0000
  S   S52       1.0  0.95859  0.26233  0.62571  1.0000
  H   H255      1.0  0.65800  0.12383  0.54995  1.0000
  Fe  Fe26      1.0  0.85397  0.30237  0.59061  1.0000
  S   S53       1.0  0.82897  0.21684  0.60869  1.0000
  S   S54       1.0  0.78970  0.31933  0.56823  1.0000
  Fe  Fe27      1.0  0.90143  0.22930  0.57259  1.0000
  S   S55       1.0  0.90908  0.17409  0.52647  1.0000
  C   C214      1.0  0.75250  0.02094  0.48546  1.0000
  S   S56       1.0  0.92139  0.31169  0.55006  1.0000
  H   H256      1.0  0.51692  0.51226  0.48359  1.0000
  C   C215      1.0  0.77847  0.36100  0.60177  1.0000
  C   C216      1.0  0.72505  0.34697  0.61121  1.0000
  H   H257      1.0  0.62130  0.18400  0.52454  1.0000
  C   C217      1.0  0.81182  0.44400  0.64214  1.0000
  C   C218      1.0  0.82198  0.40941  0.61742  1.0000
  H   H258      1.0  0.72162  0.13518  0.52978  1.0000
  H   H259      1.0  0.86337  0.42082  0.60969  1.0000
  C   C219      1.0  0.84871  0.11479  0.51131  1.0000
  H   H260      1.0  0.71180  0.36884  0.46385  1.0000
  C   C220      1.0  0.75195  0.05131  0.51913  1.0000
  C   C221      1.0  0.79984  0.09813  0.53197  1.0000
  H   H261      1.0  0.71425  0.03859  0.53531  1.0000
  H   H262      1.0  0.79902  0.12097  0.55811  1.0000
  S   S57       1.0  0.74423  0.46791  0.68702  1.0000
  H   H263      1.0  0.76810  0.43520  0.40983  1.0000
  H   H264      1.0  0.77568  0.43747  0.55099  1.0000
  H   H265      1.0  0.65746  0.23160  0.48385  1.0000
  Fe  Fe28      1.0  0.88803  0.25760  0.66009  1.0000
  H   H266      1.0  0.72017  0.18782  0.55805  1.0000
  H   H267      1.0  0.67360  0.36850  0.64517  1.0000
  C   C222      1.0  0.65136  0.13061  0.46962  1.0000
  C   C223      1.0  0.60316  0.12460  0.45193  1.0000
  C   C224      1.0  0.66601  0.09130  0.45834  1.0000
  C   C225      1.0  0.57023  0.08016  0.42662  1.0000
  H   H268      1.0  0.84168  0.42673  0.52063  1.0000
  H   H269      1.0  0.85869  0.41022  0.47250  1.0000
  S   S58       1.0  0.90713  0.34251  0.64486  1.0000
  H   H270      1.0  0.59024  0.15396  0.45686  1.0000
  C   C226      1.0  0.71504  0.38032  0.63717  1.0000
  H   H271      1.0  0.75882  0.34442  0.46079  1.0000
  H   H272      1.0  0.53308  0.07588  0.41414  1.0000
  H   H273      1.0  0.70325  0.09433  0.46900  1.0000
  C   C227      1.0  0.78268  0.47034  0.49014  1.0000
  C   C228      1.0  0.69682  0.15468  0.53537  1.0000
  H   H274      1.0  0.83996  0.48108  0.41847  1.0000
  N   N15       1.0  0.68630  0.17618  0.49758  1.0000
  H   H275      1.0  0.76620  0.24815  0.49696  1.0000
  C   C229      1.0  0.84952  0.08386  0.47802  1.0000
  C   C230      1.0  0.77350  0.46769  0.53277  1.0000
  H   H276      1.0  0.52442  0.08140  0.53151  1.0000
  H   H277      1.0  0.68773  0.24185  0.53254  1.0000
  H   H278      1.0  0.76154  0.19112  0.46977  1.0000
  C   C231      1.0  0.75073  0.37470  0.47626  1.0000
  H   H279      1.0  0.73262  0.22878  0.44833  1.0000
  H   H280      1.0  0.88727  0.09648  0.46197  1.0000
  S   S59       1.0  0.52460  0.24681  0.43293  1.0000
  Fe  Fe29      1.0  0.58205  0.24628  0.38620  1.0000
  H   H281      1.0  0.81412  0.40992  0.41106  1.0000
  C   C232      1.0  0.73897  0.21263  0.47728  1.0000
  C   C233      1.0  0.66187  0.20963  0.51006  1.0000
  C   C234      1.0  0.84636  0.43745  0.48782  1.0000
  H   H282      1.0  0.69129  0.30980  0.59897  1.0000
  C   C235      1.0  0.63317  0.04742  0.43261  1.0000
  S   S60       1.0  0.66668  0.26562  0.40197  1.0000
  H   H283      1.0  0.74409  0.36329  0.50891  1.0000
  C   C236      1.0  0.75828  0.42904  0.65249  1.0000
  C   C237      1.0  0.80479  0.43996  0.42544  1.0000
  H   H284      1.0  0.76485  0.27381  0.37125  1.0000
  H   H285      1.0  0.84545  0.48149  0.65397  1.0000
  C   C238      1.0  0.58512  0.04155  0.41712  1.0000
  N   N16       1.0  0.79589  0.43152  0.46998  1.0000
  H   H286      1.0  0.88075  0.48026  0.48485  1.0000
  H   H287      1.0  0.54268  0.49210  0.39481  1.0000
  C   C239      1.0  0.77903  0.51177  0.46874  1.0000
  C   C240      1.0  0.71557  0.31148  0.36777  1.0000
  C   C241      1.0  0.80145  0.03700  0.46503  1.0000
  C   C242      1.0  0.76221  0.50447  0.55287  1.0000
  H   H288      1.0  0.75655  0.50224  0.58563  1.0000
  H   H289      1.0  0.80217  0.01380  0.43899  1.0000
  H   H290      1.0  0.64522  0.01787  0.42454  1.0000
  Fe  Fe30      1.0  0.59712  0.33323  0.98201  1.0000
  S   S61       1.0  0.68745  0.38578  0.97164  1.0000
  H   H291      1.0  0.58628  0.40097  0.76026  1.0000
  Fe  Fe31      1.0  0.96845  0.33331  0.93399  1.0000
  S   S62       1.0  0.89530  0.25297  0.95057  1.0000
  C   C243      1.0  0.76160  0.40684  0.87035  1.0000
  H   H292      1.0  0.89717  0.16278  0.90651  1.0000
  H   H293      1.0  0.75003  0.06111  0.98453  1.0000
  H   H294      1.0  0.76721  0.43718  0.77061  1.0000
  H   H295      1.0  0.87213  0.42362  0.70733  1.0000
  S   S63       1.0  0.96342  0.37717  0.98960  1.0000
  H   H296      1.0  0.85135  0.12260  0.79937  1.0000
  S   S64       1.0  0.94919  0.15394  0.97790  1.0000
  S   S65       1.0  0.86279  0.22288  0.72301  1.0000
  C   C244      1.0  0.57013  0.02191  0.94209  1.0000
  H   H297      1.0  0.74757  0.41450  0.89897  1.0000
  H   H298      1.0  0.89070  0.45438  0.75710  1.0000
  C   C245      1.0  0.62078  0.44547  0.83764  1.0000
  C   C246      1.0  0.83759  0.10220  0.98302  1.0000
  C   C247      1.0  0.69576  0.29903  0.99839  1.0000
  H   H299      1.0  0.85704  0.33740  0.72804  1.0000
  C   C248      1.0  0.95429  0.33338  0.83092  1.0000
  C   C249      1.0  0.90657  0.28336  0.83676  1.0000
  C   C250      1.0  0.87881  0.25000  0.80333  1.0000
  C   C251      1.0  0.89877  0.26625  0.76385  1.0000
  C   C252      1.0  0.94599  0.31680  0.75770  1.0000
  C   C253      1.0  0.97348  0.35050  0.79124  1.0000
  H   H300      1.0  0.89066  0.27065  0.86701  1.0000
  H   H301      1.0  0.84158  0.21157  0.80800  1.0000
  H   H302      1.0  0.96137  0.32977  0.72722  1.0000
  C   C254      1.0  0.68130  0.49222  0.89405  1.0000
  C   C255      1.0  0.72351  0.35307  0.98510  1.0000
  C   C256      1.0  0.87323  0.14237  0.87883  1.0000
  C   C257      1.0  0.54775  0.51213  0.90913  1.0000
  H   H303      1.0  0.83672  0.10426  0.88957  1.0000
  S   S66       1.0  0.55188  0.37483  0.00161  1.0000
  C   C258      1.0  0.78056  0.38222  0.98487  1.0000
  H   H304      1.0  0.85367  0.38068  0.99966  1.0000
  H   H305      1.0  0.93573  0.17429  0.76910  1.0000
  C   C259      1.0  0.78514  0.05611  0.98148  1.0000
  C   C260      1.0  0.80364  0.36435  0.83232  1.0000
  H   H306      1.0  0.84260  0.14230  0.98744  1.0000
  H   H307      1.0  0.80219  0.42405  0.97464  1.0000
  S   S67       1.0  0.98971  0.37532  0.87273  1.0000
  H   H308      1.0  0.73831  0.30668  0.74122  1.0000
  C   C261      1.0  0.63602  0.44617  0.87811  1.0000
  H   H309      1.0  0.55043  0.45778  0.78700  1.0000
  H   H310      1.0  0.61593  0.43781  0.71524  1.0000
  H   H311      1.0  0.61250  0.41075  0.89730  1.0000
  H   H312      1.0  0.89820  0.45199  0.90854  1.0000
  C   C262      1.0  0.95288  0.18275  0.83487  1.0000
  C   C263      1.0  0.79800  0.38659  0.79521  1.0000
  H   H313      1.0  0.56882  0.49828  0.88774  1.0000
  H   H314      1.0  0.65864  0.43131  0.75190  1.0000
  Fe  Fe32      1.0  0.95401  0.23586  0.98309  1.0000
  C   C264      1.0  0.92780  0.48393  0.92824  1.0000
  H   H315      1.0  0.98702  0.20983  0.89576  1.0000
  C   C265      1.0  0.80965  0.35775  0.99906  1.0000
  H   H316      1.0  0.60495  0.06133  0.94989  1.0000
  C   C266      1.0  0.86733  0.09879  0.81494  1.0000
  H   H317      1.0  0.74737  0.36992  0.72272  1.0000
  C   C267      1.0  0.88321  0.09631  0.97869  1.0000
  H   H318      1.0  0.88007  0.36428  0.77800  1.0000
  H   H319      1.0  0.73690  0.45433  0.83565  1.0000
  S   S68       1.0  0.53774  0.28405  0.93298  1.0000
  C   C268      1.0  0.77319  0.41918  0.79755  1.0000
  H   H320      1.0  0.88762  0.08601  0.79194  1.0000
  H   H321      1.0  0.91131  0.03916  0.97024  1.0000
  C   C269      1.0  0.87609  0.04389  0.97366  1.0000
  C   C270      1.0  0.97995  0.49115  0.93199  1.0000
  H   H322      1.0  0.82184  0.33895  0.83376  1.0000
  H   H323      1.0  0.94890  0.08755  0.84637  1.0000
  H   H324      1.0  0.94900  0.11595  0.89527  1.0000
  Fe  Fe33      1.0  0.89572  0.29494  0.00875  1.0000
  N   N17       1.0  0.81623  0.37666  0.75543  1.0000
  H   H325      1.0  0.00984  0.38957  0.78642  1.0000
  C   C271      1.0  0.72460  0.27520  0.01376  1.0000
  C   C272      1.0  0.84330  0.34378  0.75833  1.0000
  N   N18       1.0  0.63377  0.48901  0.76885  1.0000
  H   H326      1.0  0.98798  0.46360  0.91454  1.0000
  H   H327      1.0  0.58473  0.40917  0.82704  1.0000
  C   C273      1.0  0.76868  0.34684  0.72811  1.0000
  C   C274      1.0  0.52090  0.01828  0.93226  1.0000
  C   C275      1.0  0.78540  0.37437  0.86923  1.0000
  H   H328      1.0  0.65199  0.27545  0.99711  1.0000
  H   H329      1.0  0.78942  0.35657  0.89718  1.0000
  N   N19       1.0  0.90502  0.13094  0.84849  1.0000
  C   C276      1.0  0.92375  0.09623  0.86779  1.0000
  C   C277      1.0  0.58290  0.49111  0.76872  1.0000
  H   H330      1.0  0.83697  0.45469  0.72910  1.0000
  H   H331      1.0  0.83137  0.06065  0.82630  1.0000
  H   H332      1.0  0.70272  0.23373  0.02495  1.0000
  C   C278      1.0  0.75553  0.42921  0.83463  1.0000
  H   H333      1.0  0.81533  0.30213  0.77037  1.0000
  C   C279      1.0  0.96316  0.19835  0.79326  1.0000
  H   H334      1.0  0.85935  0.16938  0.86608  1.0000
  H   H335      1.0  0.88898  0.05653  0.87818  1.0000
  C   C280      1.0  0.85561  0.42957  0.73650  1.0000
  C   C281      1.0  0.62329  0.43758  0.74849  1.0000
  C   C282      1.0  0.65109  0.49071  0.81154  1.0000
  C   C283      1.0  0.78150  0.30449  0.01428  1.0000
  H   H336      1.0  0.69315  0.49233  0.92540  1.0000
  C   C284      1.0  0.00932  0.24714  0.78153  1.0000
  H   H337      1.0  0.55627  0.50437  0.94063  1.0000
  H   H338      1.0  0.56642  0.48701  0.73738  1.0000
  C   C285      1.0  0.99167  0.21899  0.86361  1.0000
  H   H339      1.0  0.87348  0.51226  0.94636  1.0000
  H   H340      1.0  0.01582  0.25863  0.74971  1.0000
  H   H341      1.0  0.51751  0.05475  0.93245  1.0000
  H   H342      1.0  0.78084  0.33899  0.69763  1.0000
  H   H343      1.0  0.56945  0.62584  0.18142  1.0000
  C   C286      1.0  0.75471  0.93287  0.08484  1.0000
  C   C287      1.0  0.51840  0.54132  0.26901  1.0000
  H   H344      1.0  0.73495  0.88843  0.09145  1.0000
  C   C288      1.0  0.62286  0.55683  0.27811  1.0000
  Fe  Fe34      1.0  0.66778  0.86324  0.33337  1.0000
  S   S69       1.0  0.65492  0.88268  0.26930  1.0000
  H   H345      1.0  0.98513  0.60424  0.18848  1.0000
  H   H346      1.0  0.56601  0.71861  0.12103  1.0000
  S   S70       1.0  0.69570  0.76803  0.11784  1.0000
  Fe  Fe35      1.0  0.85613  0.60894  0.29954  1.0000
  S   S71       1.0  0.93787  0.66315  0.32851  1.0000
  S   S72       1.0  0.79252  0.63113  0.28473  1.0000
  S   S73       1.0  0.64854  0.77915  0.35122  1.0000
  S   S74       1.0  0.95614  0.55819  0.31979  1.0000
  Fe  Fe36      1.0  0.96891  0.62801  0.28075  1.0000
  H   H347      1.0  0.76215  0.99743  0.15808  1.0000
  S   S75       1.0  0.88874  0.57978  0.24874  1.0000
  H   H348      1.0  0.65278  0.63820  0.25844  1.0000
  C   C289      1.0  0.75988  0.74232  0.33459  1.0000
  C   C290      1.0  0.76338  0.70582  0.30735  1.0000
  C   C291      1.0  0.79171  0.67929  0.31815  1.0000
  H   H349      1.0  0.57868  0.72019  0.26508  1.0000
  S   S76       1.0  0.63181  0.81777  0.03171  1.0000
  H   H350      1.0  0.73847  0.76303  0.32589  1.0000
  H   H351      1.0  0.74481  0.69867  0.27767  1.0000
  H   H352      1.0  0.82446  0.89729  0.08453  1.0000
  C   C292      1.0  0.66368  0.84807  0.22785  1.0000
  C   C293      1.0  0.68819  0.81645  0.23278  1.0000
  C   C294      1.0  0.69797  0.79240  0.19870  1.0000
  C   C295      1.0  0.68263  0.79909  0.15963  1.0000
  C   C296      1.0  0.65675  0.82944  0.15485  1.0000
  C   C297      1.0  0.64769  0.85418  0.18886  1.0000
  H   H353      1.0  0.70140  0.81222  0.26261  1.0000
  H   H354      1.0  0.71847  0.76935  0.20253  1.0000
  H   H355      1.0  0.64396  0.83416  0.12503  1.0000
  H   H356      1.0  0.62867  0.87860  0.18494  1.0000
  C   C298      1.0  0.80739  0.95528  0.14665  1.0000
  H   H357      1.0  0.66359  0.56312  0.28170  1.0000
  H   H358      1.0  0.84779  0.90671  0.15074  1.0000
  C   C299      1.0  0.82862  0.92586  0.16684  1.0000
  H   H359      1.0  0.75506  0.93751  0.05125  1.0000
  H   H360      1.0  0.62790  0.70154  0.27767  1.0000
  H   H361      1.0  0.79493  0.93504  0.26497  1.0000
  Fe  Fe37      1.0  0.68253  0.78292  0.05241  1.0000
  C   C300      1.0  0.81725  0.68992  0.35603  1.0000
  S   S77       1.0  0.83403  0.53755  0.34023  1.0000
  H   H362      1.0  0.75586  0.98490  0.23166  1.0000
  C   C301      1.0  0.79930  0.94141  0.23236  1.0000
  C   C302      1.0  0.82464  0.91936  0.20910  1.0000
  C   C303      1.0  0.52239  0.69994  0.12549  1.0000
  N   N20       1.0  0.55835  0.63945  0.24444  1.0000
  C   C304      1.0  0.61629  0.59975  0.26464  1.0000
  C   C305      1.0  0.84308  0.94232  0.08100  1.0000
  H   H363      1.0  0.84570  0.94983  0.04762  1.0000
  H   H364      1.0  0.84032  0.89608  0.22385  1.0000
  H   H365      1.0  0.56444  0.67170  0.30490  1.0000
  H   H366      1.0  0.72803  0.94752  0.09746  1.0000
  N   N21       1.0  0.81040  0.96279  0.10196  1.0000
  H   H367      1.0  0.53352  0.75732  0.33715  1.0000
  C   C306      1.0  0.56389  0.59326  0.25916  1.0000
  H   H368      1.0  0.63096  0.67416  0.20667  1.0000
  H   H369      1.0  0.58337  0.69391  0.19310  1.0000
  H   H370      1.0  0.88557  0.96300  0.09265  1.0000
  H   H371      1.0  0.52375  0.74886  0.04895  1.0000
  C   C307      1.0  0.58343  0.68505  0.27428  1.0000
  C   C308      1.0  0.78110  0.97644  0.17130  1.0000
  C   C309      1.0  0.77743  0.96973  0.21349  1.0000
  C   C310      1.0  0.58662  0.65895  0.20477  1.0000
  H   H372      1.0  0.00545  0.59675  0.11584  1.0000
  H   H373      1.0  0.52974  0.76052  0.16871  1.0000
  S   S78       1.0  0.51799  0.72311  0.42115  1.0000
  H   H374      1.0  0.63600  0.53369  0.36984  1.0000
  C   C311      1.0  0.71882  0.80942  0.61327  1.0000
  Fe  Fe38      1.0  0.85556  0.65786  0.63022  1.0000
  S   S79       1.0  0.88201  0.59987  0.65138  1.0000
  S   S80       1.0  0.86174  0.68842  0.56592  1.0000
  N   N22       1.0  0.81641  0.80941  0.53252  1.0000
  S   S81       1.0  0.66976  0.82461  0.44554  1.0000
  H   H375      1.0  0.80620  0.74193  0.59582  1.0000
  H   H376      1.0  0.57273  0.86507  0.52890  1.0000
  S   S82       1.0  0.77328  0.61132  0.65931  1.0000
  H   H377      1.0  0.75295  0.74263  0.49857  1.0000
  S   S83       1.0  0.93795  0.58232  0.43017  1.0000
  C   C312      1.0  0.91607  0.61190  0.46715  1.0000
  C   C313      1.0  0.92119  0.60274  0.50822  1.0000
  C   C314      1.0  0.90508  0.62651  0.53862  1.0000
  C   C315      1.0  0.88411  0.65990  0.52820  1.0000
  C   C316      1.0  0.88026  0.67025  0.48704  1.0000
  C   C317      1.0  0.89587  0.64593  0.45646  1.0000
  H   H378      1.0  0.93748  0.57703  0.51661  1.0000
  H   H379      1.0  0.90906  0.61899  0.57007  1.0000
  H   H380      1.0  0.86436  0.69632  0.47873  1.0000
  H   H381      1.0  0.89249  0.65368  0.42475  1.0000
  Fe  Fe39      1.0  0.68723  0.90543  0.42142  1.0000
  Fe  Fe40      1.0  0.71993  0.82374  0.39310  1.0000
  Fe  Fe41      1.0  0.60077  0.78855  0.40167  1.0000
  H   H382      1.0  0.79721  0.72560  0.52528  1.0000
  H   H383      1.0  0.75169  0.57399  0.54684  1.0000
  Fe  Fe42      1.0  0.80294  0.55831  0.68505  1.0000
  S   S84       1.0  0.89180  0.71615  0.68291  1.0000
  H   H384      1.0  0.56751  0.86363  0.47484  1.0000
  H   H385      1.0  0.77446  0.83742  0.49375  1.0000
  C   C318      1.0  0.62150  0.55936  0.38268  1.0000
  C   C319      1.0  0.74947  0.82098  0.57745  1.0000
  H   H386      1.0  0.55982  0.00739  0.39728  1.0000
  H   H387      1.0  0.58045  0.92372  0.50239  1.0000
  C   C320      1.0  0.65616  0.61569  0.38423  1.0000
  C   C321      1.0  0.54875  0.56855  0.41551  1.0000
  C   C322      1.0  0.76694  0.54791  0.48907  1.0000
  S   S85       1.0  0.77881  0.79563  0.40833  1.0000
  H   H388      1.0  0.82035  0.76541  0.48006  1.0000
  H   H389      1.0  0.76559  0.57998  0.47235  1.0000
  H   H390      1.0  0.69738  0.63351  0.37282  1.0000
  C   C323      1.0  0.63776  0.64902  0.40035  1.0000
  H   H391      1.0  0.88994  0.86562  0.56415  1.0000
  H   H392      1.0  0.66500  0.69297  0.40124  1.0000
  C   C324      1.0  0.87398  0.82940  0.54359  1.0000
  H   H393      1.0  0.90072  0.84110  0.51623  1.0000
  C   C325      1.0  0.75905  0.54460  0.53105  1.0000
  H   H394      1.0  0.84237  0.85993  0.47874  1.0000
  H   H395      1.0  0.87936  0.79786  0.55922  1.0000
  C   C326      1.0  0.58476  0.62613  0.41565  1.0000
  C   C327      1.0  0.78293  0.79786  0.56980  1.0000
  C   C328      1.0  0.56831  0.53600  0.39748  1.0000
  C   C329      1.0  0.78264  0.76186  0.59971  1.0000
  S   S86       1.0  0.69062  0.96456  0.46928  1.0000
  C   C330      1.0  0.75204  0.75078  0.63539  1.0000
  H   H396      1.0  0.01198  0.72385  0.48548  1.0000
  C   C331      1.0  0.81586  0.85135  0.50602  1.0000
  H   H397      1.0  0.74627  0.84819  0.55633  1.0000
  H   H398      1.0  0.83347  0.73427  0.41256  1.0000
  H   H399      1.0  0.69687  0.76597  0.67010  1.0000
  H   H400      1.0  0.57316  0.65444  0.42755  1.0000
  S   S87       1.0  0.61389  0.86883  0.38097  1.0000
  C   C332      1.0  0.79582  0.75851  0.50820  1.0000
  H   H401      1.0  0.69385  0.82771  0.61866  1.0000
  H   H402      1.0  0.75318  0.72370  0.65802  1.0000
  H   H403      1.0  0.83077  0.89086  0.52241  1.0000
  C   C333      1.0  0.72032  0.77461  0.64224  1.0000
  C   C334      1.0  0.55700  0.87821  0.50309  1.0000
  C   C335      1.0  0.81382  0.72644  0.38326  1.0000
  H   H404      1.0  0.99850  0.72228  0.65391  1.0000
  H   H405      1.0  0.83913  0.66954  0.36453  1.0000
  Fe  Fe43      1.0  0.91845  0.58877  0.36487  1.0000
  H   H406      1.0  0.78665  0.51809  0.43648  1.0000
  S   S88       1.0  0.74353  0.90825  0.37183  1.0000
  C   C336      1.0  0.78476  0.75235  0.37274  1.0000
  Fe  Fe44      1.0  0.59749  0.74966  0.98589  1.0000
  H   H407      1.0  0.58951  0.53006  0.78195  1.0000
  Fe  Fe45      1.0  0.69705  0.86265  0.98514  1.0000
  S   S89       1.0  0.75175  0.83382  0.00973  1.0000
  S   S90       1.0  0.71141  0.94731  0.97402  1.0000
  Fe  Fe46      1.0  0.70814  0.76374  0.96545  1.0000
  S   S91       1.0  0.75105  0.72434  0.93433  1.0000
  S   S92       1.0  0.65891  0.79676  0.93741  1.0000
  H   H408      1.0  0.68106  0.57534  0.75459  1.0000
  N   N23       1.0  0.53527  0.87371  0.93338  1.0000
  S   S93       1.0  0.83501  0.60751  0.74237  1.0000
  S   S94       1.0  0.76024  0.69644  0.74320  1.0000
  C   C337      1.0  0.75657  0.72087  0.88102  1.0000
  C   C338      1.0  0.78408  0.69546  0.86496  1.0000
  C   C339      1.0  0.78697  0.68925  0.82269  1.0000
  C   C340      1.0  0.76172  0.70783  0.79619  1.0000
  C   C341      1.0  0.73494  0.73406  0.81220  1.0000
  C   C342      1.0  0.73256  0.74083  0.85450  1.0000
  H   H409      1.0  0.80346  0.68073  0.88534  1.0000
  H   H410      1.0  0.80848  0.66982  0.81069  1.0000
  H   H411      1.0  0.71576  0.74901  0.79182  1.0000
  H   H412      1.0  0.71156  0.76075  0.86653  1.0000
  H   H413      1.0  0.81826  0.95735  0.96838  1.0000
  H   H414      1.0  0.64121  0.64132  0.84474  1.0000
  C   C343      1.0  0.55701  0.57927  0.85952  1.0000
  H   H415      1.0  0.71436  0.53647  0.74374  1.0000
  C   C344      1.0  0.58027  0.88155  0.90598  1.0000
  H   H416      1.0  0.65025  0.59441  0.89819  1.0000
  C   C345      1.0  0.67465  0.53515  0.74387  1.0000
  H   H417      1.0  0.72147  0.57423  0.81187  1.0000
  S   S95       1.0  0.99335  0.67406  0.73203  1.0000
  H   H418      1.0  0.62786  0.59632  0.94870  1.0000
  C   C346      1.0  0.82352  0.99760  0.97268  1.0000
  C   C347      1.0  0.95147  0.55809  0.97542  1.0000
  Fe  Fe47      1.0  0.81133  0.66439  0.71430  1.0000
  C   C348      1.0  0.77794  0.00377  0.97632  1.0000
  C   C349      1.0  0.62270  0.60372  0.91625  1.0000
  C   C350      1.0  0.57451  0.97496  0.94247  1.0000
  S   S96       1.0  0.64291  0.71070  0.01006  1.0000
  C   C351      1.0  0.59982  0.61763  0.83425  1.0000
  C   C352      1.0  0.54809  0.86499  0.97531  1.0000
  Fe  Fe48      1.0  0.91245  0.65450  0.70629  1.0000
  C   C353      1.0  0.71124  0.53790  0.86963  1.0000
  C   C354      1.0  0.00356  0.56539  0.97958  1.0000
  H   H419      1.0  0.55220  0.82809  0.97702  1.0000
  H   H420      1.0  0.62341  0.65658  0.77561  1.0000
  C   C355      1.0  0.52947  0.92275  0.93272  1.0000
  H   H421      1.0  0.74629  0.57395  0.88221  1.0000
  H   H422      1.0  0.58720  0.89973  0.98656  1.0000
  H   H423      1.0  0.62063  0.91488  0.91653  1.0000
  H   H424      1.0  0.66175  0.53144  0.71151  1.0000
  H   H425      1.0  0.94056  0.58421  0.99230  1.0000
  H   H426      1.0  0.63770  0.64830  0.91406  1.0000
  H   H427      1.0  0.57383  0.89148  0.87456  1.0000
  N   N24       1.0  0.56522  0.57047  0.90266  1.0000
  C   C356      1.0  0.59011  0.62672  0.79420  1.0000
  H   H428      1.0  0.53870  0.58138  0.96196  1.0000
  H   H429      1.0  0.61342  0.97979  0.95086  1.0000
  C   C357      1.0  0.69651  0.53747  0.82900  1.0000
  H   H430      1.0  0.58393  0.84427  0.90433  1.0000
  C   C358      1.0  0.53787  0.59752  0.77794  1.0000
  H   H431      1.0  0.53033  0.60486  0.74695  1.0000
  C   C359      1.0  0.53214  0.58529  0.92909  1.0000
  H   H432      1.0  0.54274  0.62841  0.92400  1.0000
  C   C360      1.0  0.91372  0.51758  0.94967  1.0000
