data_image0
_chemical_formula_structural       SCH2CH2CHNH3CHCHC2HSHFe2HC2HCNCH3SH3C2HSCHNCHCH2CH4CHC2H3CFeS2FeS2FeSFeS3HFeSFeSFeS2FeS2FeCFeS3FeS2FeS2FeSFeS3HC5H2C7H4C6H4C6H4C6HCH2C3H4C3H4C7H3C5H2C2NC7H7CNHC5HNH4SHCH2CH5CH2NHC3SH7SCHC2H4CH2SCHC2H4CH2CHCHCH2C2H10C2H2NCH2CH2CH3CHC2H3CNHC2H9CHC2HNC3H3C3H5SHCHFeS2FeS2FeSFeS4FeSFeSFeS2FeS2FeHFeS3FeS2FeS2FeSFeS3HNCHC2HCHC6H4C6H4C6H2SHC6HCH2C2SH2C6H4C6H5NHC7H5CH3CH3C3H2CHCHC3H4NH5CH3CH2C6HCHCHCH3C2H3SHCHC2H2CH7CHC2H2C2H2C4HCNCH4NC2H6CN2HCHCH4CH5CHCH6C4H3NCH4CH8C2H4C2H3FeS2FeHSFeCNHSCS2FeSFeSC2SCHC2H2C8H2C6H4C6H4CHSHCHCHS2CHC2H3C6SHSH2CHCHCH5CH2CHCH5C4H6FeHC2HC2H2CH4C2N2HC3H3CHCH4CHFeS2FeS2H5C2SFeSFeSH2C2HS2H2C6HCH2C6H3C7H2C3H2CSCFeC2H2CHNH2CHFeHN2CH2CSCHC2NC9H13SC2H2CHCHC3H3C2HCHC2HSC3HCH7CHCH3CHFeC2H3CH2SH3SFeS2FeS2FeSFeS3FeCFeSFeSHC2HC6H4C6H4C6H4C2HCHNC9H18FeH2CHCNH2C2H4S2CHC2HC2H3CSCSHCH5FeHSC2H4NC3HNH5SHFeSCHCHFeSFeS2FeS2FeSFeS3CHFeSFeSH3NC6H4C6H4C6H8CH2C2HNC2HC7HCH2CSHCH2C2HCH6FeNH2CH2CH2CH2CH4NC9H14C2SC3HC4H2SCSHC2H2CHS2CH4CHFeSHSFeS2FeS2FeSFeS3FeS2FeS2FeHFeS3FeS3FeSFeSHC2SFeHFeSC6H5SC5H3C6H4C6H4C6H4C3H2C6H4C2HCHNCH2CH3CH3CH2C2HCH2CFeH2NC9H11SCH3N2C3H6CH2CH3CNCH2CH2CHCH6C2H5SH2C2HCHCH3CHCNC3HCHCHCH2CHC2HC3HCH3S2CH4SCHCHCHCH2FeC2S2HFeS2FeS2FeSFeS3FeS2FeS2FeCFeS3HSHFe2HFeSHC2SFeHFeSC6H3C2HC4H4C6H4C6H4C6H5CHC8H6CH3CHSH3NHC8H7CH4CHNC4HCNHSH2SH3CH3CSCHSCHCH5SFeCH2C2NCH7C3HFe2HCHC3HCHCH2CH2SCSHC2HC2H2CNHC2H3C2HC3H5CHCHCH8NCFeSCSH2C4H2C2H5C3HCNCH4SH2C2FeCHCHCHCHCHCH2SC3H4FeSHCHNC4H4CH2C3H2CH2CHCHSHC2HC3H4CHSNHCH4C2HCH4C
_chemical_formula_sum              "S192 C720 H864 N48 Fe96"
_cell_length_a       54.828
_cell_length_b       55.0662
_cell_length_c       47.9679
_cell_angle_alpha    89.998
_cell_angle_beta     90.1557
_cell_angle_gamma    120.016

_space_group_name_H-M_alt    "P 1"
_space_group_IT_number       1

loop_
  _space_group_symop_operation_xyz
  'x, y, z'

loop_
  _atom_site_type_symbol
  _atom_site_label
  _atom_site_symmetry_multiplicity
  _atom_site_fract_x
  _atom_site_fract_y
  _atom_site_fract_z
  _atom_site_occupancy
  S   S1        1.0  0.47910  0.27147  0.04013  1.0000
  C   C1        1.0  0.47728  0.22259  0.02328  1.0000
  H   H1        1.0  0.47410  0.18779  0.07950  1.0000
  H   H2        1.0  0.47463  0.02490  0.44293  1.0000
  C   C2        1.0  0.49447  0.22653  0.10273  1.0000
  H   H3        1.0  0.45560  0.21561  0.01778  1.0000
  H   H4        1.0  0.48016  0.26547  0.12333  1.0000
  C   C3        1.0  0.48806  0.20427  0.01936  1.0000
  H   H5        1.0  0.44290  0.01514  0.40380  1.0000
  N   N1        1.0  0.48453  0.01992  0.40041  1.0000
  H   H6        1.0  0.47467  0.18343  0.01102  1.0000
  H   H7        1.0  0.45296  0.01117  0.36914  1.0000
  H   H8        1.0  0.48045  0.23275  0.09344  1.0000
  C   C4        1.0  0.46090  0.02287  0.38911  1.0000
  H   H9        1.0  0.47423  0.99945  0.48974  1.0000
  C   C5        1.0  0.49412  0.24963  0.03455  1.0000
  H   H10       1.0  0.46744  0.04526  0.38509  1.0000
  C   C6        1.0  0.49049  0.20043  0.09448  1.0000
  C   C7        1.0  0.49255  0.03374  0.42808  1.0000
  H   H11       1.0  0.48743  0.00198  0.20578  1.0000
  S   S2        1.0  0.43923  0.04324  0.99391  1.0000
  H   H12       1.0  0.49473  0.00945  0.09889  1.0000
  Fe  Fe1       1.0  0.48244  0.08276  0.99186  1.0000
  Fe  Fe2       1.0  0.49315  0.07926  0.48995  1.0000
  H   H13       1.0  0.47109  0.06840  0.86683  1.0000
  C   C8        1.0  0.43110  0.00818  0.98683  1.0000
  C   C9        1.0  0.46726  0.05996  0.92117  1.0000
  H   H14       1.0  0.46793  0.04959  0.94081  1.0000
  C   C10       1.0  0.41991  0.02420  0.91107  1.0000
  N   N2        1.0  0.44920  0.03882  0.90018  1.0000
  C   C11       1.0  0.48735  0.03024  0.88229  1.0000
  H   H15       1.0  0.47324  0.01750  0.97698  1.0000
  H   H16       1.0  0.48820  0.21361  0.56428  1.0000
  H   H17       1.0  0.49050  0.06873  0.58492  1.0000
  S   S3        1.0  0.49004  0.12148  0.96816  1.0000
  H   H18       1.0  0.41863  0.01439  0.93173  1.0000
  H   H19       1.0  0.49512  0.17994  0.53545  1.0000
  H   H20       1.0  0.43795  0.03838  0.85711  1.0000
  C   C12       1.0  0.47262  0.29362  0.94176  1.0000
  C   C13       1.0  0.45134  0.00132  0.97812  1.0000
  H   H21       1.0  0.48933  0.07320  0.91391  1.0000
  S   S4        1.0  0.45136  0.03870  0.49629  1.0000
  C   C14       1.0  0.46044  0.01979  0.89470  1.0000
  H   H22       1.0  0.41192  0.03897  0.91467  1.0000
  N   N3        1.0  0.49157  0.03138  0.57402  1.0000
  C   C15       1.0  0.44938  0.05359  0.87421  1.0000
  H   H23       1.0  0.40513  0.00770  0.89640  1.0000
  C   C16       1.0  0.49398  0.29323  0.95739  1.0000
  H   H24       1.0  0.45947  0.03687  0.59473  1.0000
  H   H25       1.0  0.48806  0.28189  0.97692  1.0000
  C   C17       1.0  0.47884  0.30796  0.91650  1.0000
  H   H26       1.0  0.46485  0.04725  0.55918  1.0000
  H   H27       1.0  0.46231  0.30846  0.90452  1.0000
  H   H28       1.0  0.45116  0.28288  0.94944  1.0000
  H   H29       1.0  0.45931  0.07443  0.92652  1.0000
  C   C18       1.0  0.43611  0.00161  0.49338  1.0000
  H   H30       1.0  0.43930  0.06663  0.87733  1.0000
  C   C19       1.0  0.47089  0.00144  0.56864  1.0000
  C   C20       1.0  0.47598  0.04668  0.57850  1.0000
  H   H31       1.0  0.47349  0.01835  0.62827  1.0000
  H   H32       1.0  0.45761  0.99889  0.54999  1.0000
  H   H33       1.0  0.49548  0.04154  0.53023  1.0000
  C   C21       1.0  0.49569  0.02586  0.62565  1.0000
  Fe  Fe3       1.0  0.15641  0.57923  0.37686  1.0000
  S   S5        1.0  0.14595  0.61389  0.38014  1.0000
  S   S6        1.0  0.14854  0.54774  0.34210  1.0000
  Fe  Fe4       1.0  0.16689  0.58028  0.44023  1.0000
  S   S7        1.0  0.15707  0.61468  0.44801  1.0000
  S   S8        1.0  0.17560  0.55454  0.47135  1.0000
  Fe  Fe5       1.0  0.12044  0.59115  0.41808  1.0000
  S   S9        1.0  0.07496  0.57562  0.43219  1.0000
  Fe  Fe6       1.0  0.18370  0.63468  0.40981  1.0000
  S   S10       1.0  0.12904  0.55579  0.41319  1.0000
  S   S11       1.0  0.19538  0.60112  0.40366  1.0000
  S   S12       1.0  0.45637  0.58567  0.32580  1.0000
  H   H34       1.0  0.38212  0.45097  0.99967  1.0000
  Fe  Fe7       1.0  0.46343  0.56489  0.28891  1.0000
  S   S13       1.0  0.42722  0.53913  0.25914  1.0000
  Fe  Fe8       1.0  0.48248  0.57228  0.35066  1.0000
  S   S14       1.0  0.47879  0.55312  0.39397  1.0000
  Fe  Fe9       1.0  0.38492  0.46597  0.08603  1.0000
  S   S15       1.0  0.42446  0.50475  0.07377  1.0000
  S   S16       1.0  0.38894  0.42894  0.10167  1.0000
  Fe  Fe10      1.0  0.34852  0.49391  0.07614  1.0000
  S   S17       1.0  0.38674  0.53433  0.06241  1.0000
  S   S18       1.0  0.30742  0.49559  0.07324  1.0000
  Fe  Fe11      1.0  0.39940  0.50753  0.03800  1.0000
  C   C22       1.0  0.44853  0.49539  0.14086  1.0000
  Fe  Fe12      1.0  0.40786  0.52734  0.09930  1.0000
  S   S19       1.0  0.43676  0.56201  0.12876  1.0000
  S   S20       1.0  0.35997  0.46723  0.04915  1.0000
  S   S21       1.0  0.36955  0.48848  0.11419  1.0000
  Fe  Fe13      1.0  0.15460  0.53315  0.17457  1.0000
  S   S22       1.0  0.13820  0.48666  0.17315  1.0000
  S   S23       1.0  0.16231  0.56337  0.21046  1.0000
  Fe  Fe14      1.0  0.16233  0.53860  0.11073  1.0000
  S   S24       1.0  0.14700  0.49277  0.10483  1.0000
  S   S25       1.0  0.17428  0.57258  0.07840  1.0000
  Fe  Fe15      1.0  0.11262  0.48585  0.13554  1.0000
  S   S26       1.0  0.06618  0.46238  0.12156  1.0000
  Fe  Fe16      1.0  0.17406  0.49770  0.14256  1.0000
  S   S27       1.0  0.20616  0.48308  0.15077  1.0000
  S   S28       1.0  0.12720  0.53177  0.13920  1.0000
  S   S29       1.0  0.19125  0.54410  0.14624  1.0000
  H   H35       1.0  0.12241  0.56496  0.05571  1.0000
  C   C23       1.0  0.20624  0.51784  0.31271  1.0000
  C   C24       1.0  0.41714  0.60832  0.22013  1.0000
  C   C25       1.0  0.01727  0.39423  0.07772  1.0000
  C   C26       1.0  0.03382  0.44092  0.13933  1.0000
  C   C27       1.0  0.03134  0.42227  0.16043  1.0000
  H   H36       1.0  0.17928  0.47175  0.24270  1.0000
  H   H37       1.0  0.04990  0.42196  0.16763  1.0000
  C   C28       1.0  0.42087  0.64913  0.15563  1.0000
  C   C29       1.0  0.41505  0.42186  0.08842  1.0000
  C   C30       1.0  0.41752  0.39946  0.09938  1.0000
  C   C31       1.0  0.43724  0.39263  0.08837  1.0000
  C   C32       1.0  0.45448  0.40801  0.06606  1.0000
  C   C33       1.0  0.45249  0.43087  0.05570  1.0000
  C   C34       1.0  0.43308  0.43788  0.06692  1.0000
  H   H38       1.0  0.40367  0.38690  0.11602  1.0000
  H   H39       1.0  0.43833  0.37484  0.09641  1.0000
  H   H40       1.0  0.41136  0.47616  0.44330  1.0000
  H   H41       1.0  0.43161  0.45528  0.05849  1.0000
  C   C35       1.0  0.27979  0.49222  0.09558  1.0000
  C   C36       1.0  0.26053  0.49992  0.08525  1.0000
  C   C37       1.0  0.23829  0.49776  0.10192  1.0000
  C   C38       1.0  0.23470  0.48749  0.12918  1.0000
  C   C39       1.0  0.25418  0.48010  0.13967  1.0000
  C   C40       1.0  0.27665  0.48258  0.12309  1.0000
  H   H42       1.0  0.26265  0.50742  0.06405  1.0000
  H   H43       1.0  0.22357  0.50350  0.09342  1.0000
  H   H44       1.0  0.25160  0.47195  0.16063  1.0000
  H   H45       1.0  0.29109  0.47640  0.13139  1.0000
  C   C41       1.0  0.43051  0.54555  0.22291  1.0000
  C   C42       1.0  0.45597  0.56545  0.21089  1.0000
  C   C43       1.0  0.45757  0.57053  0.18204  1.0000
  C   C44       1.0  0.43396  0.55522  0.16489  1.0000
  C   C45       1.0  0.40859  0.53505  0.17683  1.0000
  C   C46       1.0  0.40685  0.53037  0.20575  1.0000
  H   H46       1.0  0.47454  0.57678  0.22370  1.0000
  H   H47       1.0  0.47735  0.58601  0.17292  1.0000
  H   H48       1.0  0.39019  0.52328  0.16391  1.0000
  H   H49       1.0  0.38709  0.51488  0.21489  1.0000
  C   C47       1.0  0.45434  0.54540  0.42150  1.0000
  C   C48       1.0  0.46018  0.53803  0.44778  1.0000
  C   C49       1.0  0.44112  0.53099  0.47012  1.0000
  C   C50       1.0  0.41570  0.53074  0.46624  1.0000
  C   C51       1.0  0.40984  0.53805  0.43997  1.0000
  C   C52       1.0  0.42908  0.54548  0.41774  1.0000
  H   H50       1.0  0.47974  0.53807  0.45094  1.0000
  C   C53       1.0  0.08098  0.55180  0.35246  1.0000
  H   H51       1.0  0.39025  0.53796  0.43676  1.0000
  H   H52       1.0  0.42427  0.55102  0.39765  1.0000
  C   C54       1.0  0.04201  0.56065  0.41435  1.0000
  C   C55       1.0  0.01791  0.53896  0.42728  1.0000
  C   C56       1.0  0.03880  0.57121  0.38891  1.0000
  H   H53       1.0  0.01994  0.53090  0.44716  1.0000
  H   H54       1.0  0.05692  0.58854  0.37916  1.0000
  H   H55       1.0  0.38860  0.65553  0.17331  1.0000
  H   H56       1.0  0.05841  0.55934  0.48922  1.0000
  C   C57       1.0  0.17297  0.54283  0.03116  1.0000
  C   C58       1.0  0.17568  0.56757  0.04225  1.0000
  C   C59       1.0  0.17853  0.58882  0.02414  1.0000
  H   H57       1.0  0.20905  0.55183  0.33742  1.0000
  H   H58       1.0  0.13380  0.50825  0.29754  1.0000
  H   H59       1.0  0.17105  0.52643  0.04497  1.0000
  H   H60       1.0  0.18092  0.60811  0.03259  1.0000
  C   C60       1.0  0.21046  0.54473  0.31668  1.0000
  C   C61       1.0  0.15124  0.55243  0.30550  1.0000
  C   C62       1.0  0.16242  0.57891  0.29330  1.0000
  C   C63       1.0  0.16552  0.58176  0.26414  1.0000
  C   C64       1.0  0.15722  0.55822  0.24690  1.0000
  C   C65       1.0  0.14538  0.53165  0.25905  1.0000
  C   C66       1.0  0.14256  0.52882  0.28824  1.0000
  H   H61       1.0  0.16922  0.59724  0.30634  1.0000
  H   H62       1.0  0.17458  0.60240  0.25489  1.0000
  H   H63       1.0  0.13838  0.51335  0.24601  1.0000
  C   C67       1.0  0.99807  0.37846  0.09838  1.0000
  C   C68       1.0  0.21676  0.53504  0.21125  1.0000
  C   C69       1.0  0.09774  0.50855  0.05960  1.0000
  C   C70       1.0  0.40921  0.39213  0.00255  1.0000
  C   C71       1.0  0.07720  0.52703  0.02682  1.0000
  H   H64       1.0  0.00951  0.56914  0.35744  1.0000
  H   H65       1.0  0.37605  0.34791  0.05662  1.0000
  C   C72       1.0  0.45034  0.45572  0.15965  1.0000
  C   C73       1.0  0.46182  0.62458  0.24227  1.0000
  N   N4        1.0  0.06244  0.52348  0.34046  1.0000
  C   C74       1.0  0.06925  0.50374  0.35485  1.0000
  C   C75       1.0  0.06586  0.52205  0.30996  1.0000
  C   C76       1.0  0.04964  0.49635  0.29538  1.0000
  C   C77       1.0  0.08544  0.54552  0.29398  1.0000
  C   C78       1.0  0.05317  0.49419  0.26678  1.0000
  C   C79       1.0  0.36216  0.42258  0.48204  1.0000
  C   C80       1.0  0.40486  0.40472  0.48170  1.0000
  H   H66       1.0  0.10362  0.55873  0.34924  1.0000
  H   H67       1.0  0.46915  0.50303  0.13043  1.0000
  H   H68       1.0  0.06881  0.50557  0.37796  1.0000
  H   H69       1.0  0.05429  0.48150  0.34952  1.0000
  H   H70       1.0  0.03447  0.47763  0.30617  1.0000
  H   H71       1.0  0.04110  0.47424  0.25619  1.0000
  H   H72       1.0  0.41172  0.45352  0.19483  1.0000
  C   C81       1.0  0.08862  0.54314  0.26536  1.0000
  N   N5        1.0  0.43776  0.62965  0.23963  1.0000
  H   H73       1.0  0.47096  0.46290  0.14932  1.0000
  C   C82       1.0  0.44604  0.65811  0.22929  1.0000
  C   C83       1.0  0.42466  0.62514  0.26764  1.0000
  C   C84       1.0  0.42671  0.63166  0.13947  1.0000
  C   C85       1.0  0.09919  0.53747  0.00681  1.0000
  C   C86       1.0  0.01182  0.56032  0.37675  1.0000
  H   H74       1.0  0.44626  0.51400  0.14530  1.0000
  N   N6        1.0  0.44560  0.47929  0.16664  1.0000
  H   H75       1.0  0.00546  0.37356  0.11741  1.0000
  H   H76       1.0  0.35018  0.37396  0.05660  1.0000
  H   H77       1.0  0.21902  0.56724  0.25020  1.0000
  H   H78       1.0  0.41033  0.58662  0.22747  1.0000
  S   S30       1.0  0.48972  0.66164  0.31226  1.0000
  H   H79       1.0  0.43860  0.64229  0.28222  1.0000
  C   C87       1.0  0.38069  0.36384  0.04099  1.0000
  H   H80       1.0  0.40393  0.62407  0.26719  1.0000
  H   H81       1.0  0.10676  0.56727  0.47157  1.0000
  C   C88       1.0  0.20700  0.50832  0.28586  1.0000
  H   H82       1.0  0.08906  0.53012  0.47053  1.0000
  H   H83       1.0  0.08492  0.48725  0.05041  1.0000
  H   H84       1.0  0.42124  0.44534  0.42305  1.0000
  H   H85       1.0  0.00280  0.38761  0.18643  1.0000
  H   H86       1.0  0.09914  0.56584  0.30314  1.0000
  C   C89       1.0  0.35479  0.57457  0.09019  1.0000
  H   H87       1.0  0.37512  0.57788  0.08190  1.0000
  H   H88       1.0  0.35236  0.59245  0.08297  1.0000
  N   N7        1.0  0.21162  0.51453  0.23379  1.0000
  H   H89       1.0  0.03950  0.40150  0.08070  1.0000
  C   C90       1.0  0.23381  0.50670  0.23175  1.0000
  C   C91       1.0  0.18390  0.48925  0.22822  1.0000
  C   C92       1.0  0.21173  0.52546  0.26206  1.0000
  S   S31       1.0  0.47664  0.39810  0.04832  1.0000
  H   H90       1.0  0.16658  0.49412  0.23023  1.0000
  H   H91       1.0  0.19997  0.54080  0.21061  1.0000
  H   H92       1.0  0.01086  0.45482  0.11361  1.0000
  H   H93       1.0  0.23753  0.55448  0.21368  1.0000
  H   H94       1.0  0.20341  0.48724  0.28386  1.0000
  H   H95       1.0  0.47325  0.52431  0.25383  1.0000
  H   H96       1.0  0.23476  0.49925  0.21033  1.0000
  S   S32       1.0  0.48540  0.54752  0.31470  1.0000
  C   C93       1.0  0.21608  0.55285  0.26689  1.0000
  H   H97       1.0  0.18280  0.48095  0.20677  1.0000
  C   C94       1.0  0.10139  0.54848  0.48435  1.0000
  C   C95       1.0  0.47957  0.52045  0.23364  1.0000
  H   H98       1.0  0.23003  0.48935  0.24612  1.0000
  H   H99       1.0  0.45505  0.60352  0.25130  1.0000
  H   H100      1.0  0.37854  0.44658  0.43114  1.0000
  H   H101      1.0  0.35108  0.43442  0.48682  1.0000
  C   C96       1.0  0.05801  0.51194  0.07460  1.0000
  H   H102      1.0  0.33795  0.55521  0.07994  1.0000
  H   H103      1.0  0.42646  0.61051  0.19903  1.0000
  S   S33       1.0  0.41967  0.51081  0.99554  1.0000
  C   C97       1.0  0.21566  0.56226  0.29387  1.0000
  H   H104      1.0  0.37656  0.54985  0.12129  1.0000
  C   C98       1.0  0.17259  0.53926  0.00204  1.0000
  C   C99       1.0  0.40474  0.60686  0.12835  1.0000
  H   H105      1.0  0.44240  0.38276  0.44358  1.0000
  H   H106      1.0  0.11879  0.51870  0.04971  1.0000
  H   H107      1.0  0.17030  0.52003  0.99353  1.0000
  H   H108      1.0  0.06358  0.51049  0.09670  1.0000
  C   C100      1.0  0.40223  0.37067  0.02190  1.0000
  H   H109      1.0  0.09223  0.56710  0.06602  1.0000
  H   H110      1.0  0.44952  0.44373  0.17864  1.0000
  C   C101      1.0  0.45909  0.50260  0.21453  1.0000
  H   H111      1.0  0.40070  0.45344  0.15974  1.0000
  C   C102      1.0  0.37609  0.59846  0.13345  1.0000
  H   H112      1.0  0.47147  0.62511  0.22175  1.0000
  C   C103      1.0  0.41596  0.46700  0.17613  1.0000
  H   H113      1.0  0.46574  0.44292  0.03851  1.0000
  H   H114      1.0  0.12056  0.54389  0.01279  1.0000
  C   C104      1.0  0.00928  0.44059  0.12995  1.0000
  C   C105      1.0  0.00793  0.40114  0.05355  1.0000
  H   H115      1.0  0.07595  0.51580  0.22978  1.0000
  H   H116      1.0  0.04308  0.49007  0.06780  1.0000
  H   H117      1.0  0.20194  0.50422  0.33057  1.0000
  H   H118      1.0  0.44378  0.41849  0.41113  1.0000
  H   H119      1.0  0.43404  0.44070  0.14486  1.0000
  H   H120      1.0  0.09077  0.50808  0.34921  1.0000
  H   H121      1.0  0.34961  0.40644  0.46603  1.0000
  H   H122      1.0  0.39787  0.60998  0.21780  1.0000
  H   H123      1.0  0.01754  0.49367  0.34062  1.0000
  H   H124      1.0  0.42090  0.60511  0.27728  1.0000
  C   C106      1.0  0.43210  0.39454  0.44903  1.0000
  C   C107      1.0  0.03290  0.51552  0.34689  1.0000
  H   H125      1.0  0.07646  0.56772  0.34333  1.0000
  H   H126      1.0  0.07819  0.55218  0.37542  1.0000
  N   N8        1.0  0.39143  0.44149  0.47229  1.0000
  C   C108      1.0  0.04986  0.51968  0.01691  1.0000
  H   H127      1.0  0.02684  0.52966  0.33614  1.0000
  H   H128      1.0  0.02978  0.51689  0.36967  1.0000
  C   C109      1.0  0.41953  0.42984  0.43793  1.0000
  H   H129      1.0  0.03182  0.51174  0.03048  1.0000
  H   H130      1.0  0.30806  0.54547  0.11988  1.0000
  C   C110      1.0  0.07272  0.51754  0.25183  1.0000
  H   H131      1.0  0.33942  0.52788  0.12137  1.0000
  H   H132      1.0  0.34977  0.61228  0.15496  1.0000
  H   H133      1.0  0.35731  0.54651  0.15254  1.0000
  C   C111      1.0  0.37082  0.61666  0.15021  1.0000
  H   H134      1.0  0.43747  0.49341  0.22129  1.0000
  C   C112      1.0  0.40484  0.42510  0.46358  1.0000
  C   C113      1.0  0.46664  0.49778  0.18759  1.0000
  H   H135      1.0  0.10828  0.55364  0.08962  1.0000
  H   H136      1.0  0.21828  0.58294  0.29707  1.0000
  H   H137      1.0  0.04698  0.52426  0.07501  1.0000
  C   C114      1.0  0.32454  0.56549  0.12945  1.0000
  N   N9        1.0  0.35331  0.57219  0.12102  1.0000
  H   H138      1.0  0.31961  0.58180  0.12231  1.0000
  C   C115      1.0  0.10230  0.55393  0.06745  1.0000
  C   C116      1.0  0.35684  0.54818  0.12946  1.0000
  H   H139      1.0  0.41045  0.59438  0.11543  1.0000
  H   H140      1.0  0.10418  0.56115  0.25371  1.0000
  H   H141      1.0  0.21686  0.52633  0.19033  1.0000
  H   H142      1.0  0.25490  0.52490  0.23674  1.0000
  H   H143      1.0  0.32166  0.56281  0.15241  1.0000
  H   H144      1.0  0.36106  0.41080  0.02319  1.0000
  H   H145      1.0  0.44839  0.63742  0.13522  1.0000
  H   H146      1.0  0.47839  0.64019  0.25642  1.0000
  H   H147      1.0  0.41070  0.48362  0.18094  1.0000
  C   C117      1.0  0.39301  0.64165  0.16100  1.0000
  H   H148      1.0  0.37888  0.47053  0.45664  1.0000
  C   C118      1.0  0.00453  0.40273  0.17101  1.0000
  C   C119      1.0  0.39437  0.40712  0.00141  1.0000
  H   H149      1.0  0.10159  0.50582  0.08186  1.0000
  N   N10       1.0  0.08342  0.52524  0.05659  1.0000
  C   C120      1.0  0.37273  0.39987  0.02148  1.0000
  C   C121      1.0  0.41821  0.38966  0.47442  1.0000
  C   C122      1.0  0.36608  0.37849  0.04088  1.0000
  H   H150      1.0  0.41797  0.37424  0.48870  1.0000
  H   H151      1.0  0.02302  0.41346  0.03756  1.0000
  H   H152      1.0  0.43225  0.48228  0.12515  1.0000
  C   C123      1.0  0.39002  0.45929  0.44972  1.0000
  C   C124      1.0  0.43281  0.41462  0.43084  1.0000
  C   C125      1.0  0.17806  0.58522  0.99514  1.0000
  H   H153      1.0  0.44613  0.52587  0.49030  1.0000
  H   H154      1.0  0.41451  0.36018  0.02295  1.0000
  H   H155      1.0  0.43007  0.46230  0.00943  1.0000
  H   H156      1.0  0.12147  0.54912  0.48940  1.0000
  H   H157      1.0  0.40471  0.65404  0.23540  1.0000
  S   S34       1.0  0.48723  0.33554  0.08910  1.0000
  H   H158      1.0  0.43026  0.47418  0.48963  1.0000
  C   C126      1.0  0.49586  0.51165  0.18129  1.0000
  H   H159      1.0  0.04556  0.52265  0.48968  1.0000
  Fe  Fe17      1.0  0.15701  0.59634  0.86103  1.0000
  S   S35       1.0  0.14567  0.62871  0.87409  1.0000
  S   S36       1.0  0.16388  0.59345  0.81458  1.0000
  Fe  Fe18      1.0  0.16377  0.58370  0.92136  1.0000
  S   S37       1.0  0.15317  0.61513  0.93861  1.0000
  S   S38       1.0  0.17307  0.55507  0.94751  1.0000
  Fe  Fe19      1.0  0.11831  0.59744  0.90653  1.0000
  S   S39       1.0  0.07592  0.58991  0.92259  1.0000
  Fe  Fe20      1.0  0.18149  0.64385  0.90503  1.0000
  S   S40       1.0  0.12711  0.56397  0.89141  1.0000
  S   S41       1.0  0.19452  0.61343  0.88983  1.0000
  S   S42       1.0  0.45471  0.60473  0.81025  1.0000
  S   S43       1.0  0.45754  0.54874  0.82530  1.0000
  Fe  Fe21      1.0  0.45471  0.56976  0.78638  1.0000
  S   S44       1.0  0.42152  0.54582  0.75350  1.0000
  Fe  Fe22      1.0  0.46275  0.58623  0.84877  1.0000
  S   S45       1.0  0.44238  0.58911  0.88917  1.0000
  Fe  Fe23      1.0  0.38223  0.45436  0.57060  1.0000
  S   S46       1.0  0.42057  0.49438  0.55792  1.0000
  S   S47       1.0  0.38005  0.41189  0.56697  1.0000
  Fe  Fe24      1.0  0.34876  0.48430  0.58755  1.0000
  S   S48       1.0  0.38568  0.52618  0.57532  1.0000
  S   S49       1.0  0.31398  0.48961  0.60903  1.0000
  Fe  Fe25      1.0  0.38987  0.50463  0.53723  1.0000
  H   H160      1.0  0.45532  0.60432  0.73702  1.0000
  Fe  Fe26      1.0  0.41258  0.51189  0.59713  1.0000
  S   S50       1.0  0.44902  0.53848  0.62628  1.0000
  S   S51       1.0  0.35136  0.46340  0.54797  1.0000
  S   S52       1.0  0.37606  0.47115  0.61130  1.0000
  Fe  Fe27      1.0  0.14388  0.49351  0.68555  1.0000
  S   S53       1.0  0.12312  0.44982  0.66724  1.0000
  S   S54       1.0  0.14261  0.49338  0.73313  1.0000
  Fe  Fe28      1.0  0.15252  0.52001  0.62756  1.0000
  S   S55       1.0  0.13208  0.47830  0.60626  1.0000
  S   S56       1.0  0.16539  0.55970  0.60281  1.0000
  Fe  Fe29      1.0  0.09908  0.46392  0.63983  1.0000
  S   S57       1.0  0.05274  0.44917  0.62993  1.0000
  Fe  Fe30      1.0  0.15848  0.46867  0.63550  1.0000
  S   S58       1.0  0.18155  0.44745  0.61638  1.0000
  S   S59       1.0  0.11843  0.50657  0.65961  1.0000
  S   S60       1.0  0.18054  0.51136  0.65548  1.0000
  H   H161      1.0  0.45241  0.35467  0.62247  1.0000
  N   N11       1.0  0.23641  0.51831  0.54880  1.0000
  C   C127      1.0  0.01796  0.55728  0.92313  1.0000
  H   H162      1.0  0.08171  0.46212  0.69881  1.0000
  C   C128      1.0  0.01908  0.42127  0.63986  1.0000
  C   C129      1.0  0.01469  0.39500  0.64803  1.0000
  H   H163      1.0  0.10262  0.59246  0.50854  1.0000
  C   C130      1.0  0.24039  0.58751  0.52866  1.0000
  H   H164      1.0  0.25773  0.52448  0.50948  1.0000
  C   C131      1.0  0.40692  0.40387  0.55888  1.0000
  C   C132      1.0  0.39975  0.37556  0.55810  1.0000
  C   C133      1.0  0.41943  0.36770  0.54971  1.0000
  C   C134      1.0  0.44680  0.38805  0.54225  1.0000
  C   C135      1.0  0.45416  0.41649  0.54328  1.0000
  C   C136      1.0  0.43445  0.42441  0.55186  1.0000
  H   H165      1.0  0.37849  0.35947  0.56319  1.0000
  H   H166      1.0  0.41303  0.34570  0.54800  1.0000
  H   H167      1.0  0.01273  0.52502  0.85023  1.0000
  H   H168      1.0  0.44035  0.44632  0.55237  1.0000
  C   C137      1.0  0.27693  0.47684  0.61112  1.0000
  C   C138      1.0  0.25698  0.45360  0.59591  1.0000
  C   C139      1.0  0.22797  0.44475  0.59806  1.0000
  C   C140      1.0  0.21842  0.45908  0.61519  1.0000
  C   C141      1.0  0.23837  0.48239  0.63029  1.0000
  C   C142      1.0  0.26733  0.49103  0.62838  1.0000
  H   H169      1.0  0.26389  0.44234  0.58263  1.0000
  H   H170      1.0  0.21280  0.42663  0.58635  1.0000
  H   H171      1.0  0.23150  0.49363  0.64365  1.0000
  H   H172      1.0  0.28248  0.50897  0.64034  1.0000
  C   C143      1.0  0.42970  0.54467  0.71810  1.0000
  C   C144      1.0  0.40768  0.52934  0.69921  1.0000
  C   C145      1.0  0.41335  0.52743  0.67098  1.0000
  C   C146      1.0  0.44114  0.54072  0.66147  1.0000
  C   C147      1.0  0.46320  0.55614  0.68035  1.0000
  C   C148      1.0  0.45751  0.55825  0.70854  1.0000
  H   H173      1.0  0.38608  0.51885  0.70637  1.0000
  H   H174      1.0  0.39615  0.51572  0.65658  1.0000
  S   S61       1.0  0.38998  0.52019  0.49297  1.0000
  H   H175      1.0  0.47466  0.57035  0.72275  1.0000
  C   C149      1.0  0.43603  0.56710  0.91856  1.0000
  C   C150      1.0  0.42285  0.57043  0.94223  1.0000
  C   C151      1.0  0.41762  0.55344  0.96603  1.0000
  C   C152      1.0  0.42560  0.53296  0.96636  1.0000
  C   C153      1.0  0.43877  0.52966  0.94267  1.0000
  C   C154      1.0  0.44396  0.54660  0.91891  1.0000
  H   H176      1.0  0.41658  0.58618  0.94215  1.0000
  C   C155      1.0  0.07926  0.48065  0.56213  1.0000
  H   H177      1.0  0.44512  0.51397  0.94269  1.0000
  H   H178      1.0  0.45416  0.54384  0.90088  1.0000
  C   C156      1.0  0.04282  0.56465  0.90827  1.0000
  C   C157      1.0  0.04073  0.55243  0.88217  1.0000
  S   S62       1.0  0.49434  0.33552  0.58079  1.0000
  H   H179      1.0  0.05963  0.55800  0.87042  1.0000
  H   H180      1.0  0.19743  0.52556  0.90821  1.0000
  C   C158      1.0  0.17188  0.55630  0.50769  1.0000
  C   C159      1.0  0.16851  0.53384  0.52421  1.0000
  C   C160      1.0  0.16619  0.53463  0.55328  1.0000
  C   C161      1.0  0.16732  0.55792  0.56617  1.0000
  C   C162      1.0  0.17067  0.58045  0.54965  1.0000
  C   C163      1.0  0.17282  0.57962  0.52043  1.0000
  H   H181      1.0  0.17273  0.59173  0.75608  1.0000
  H   H182      1.0  0.16423  0.51751  0.56576  1.0000
  H   H183      1.0  0.17187  0.59868  0.55952  1.0000
  H   H184      1.0  0.17577  0.59718  0.50785  1.0000
  C   C164      1.0  0.15483  0.56477  0.79177  1.0000
  C   C165      1.0  0.14150  0.53699  0.80111  1.0000
  C   C166      1.0  0.13756  0.51531  0.78277  1.0000
  C   C167      1.0  0.14608  0.52105  0.75475  1.0000
  C   C168      1.0  0.15802  0.54857  0.74505  1.0000
  C   C169      1.0  0.16261  0.57034  0.76357  1.0000
  H   H185      1.0  0.13467  0.53231  0.82249  1.0000
  H   H186      1.0  0.12823  0.49404  0.79042  1.0000
  H   H187      1.0  0.16460  0.55327  0.72353  1.0000
  H   H188      1.0  0.16790  0.51583  0.51448  1.0000
  H   H189      1.0  0.99891  0.44559  0.63168  1.0000
  N   N12       1.0  0.20146  0.54109  0.86606  1.0000
  H   H190      1.0  0.49185  0.62262  0.72833  1.0000
  C   C170      1.0  0.23687  0.58258  0.57865  1.0000
  C   C171      1.0  0.17483  0.54171  0.86800  1.0000
  C   C172      1.0  0.20543  0.53510  0.83683  1.0000
  C   C173      1.0  0.20901  0.55432  0.81531  1.0000
  C   C174      1.0  0.20439  0.50976  0.82860  1.0000
  C   C175      1.0  0.43915  0.41924  0.62397  1.0000
  C   C176      1.0  0.01072  0.40437  0.57299  1.0000
  H   H191      1.0  0.18119  0.49890  0.88243  1.0000
  H   H192      1.0  0.47493  0.43246  0.53677  1.0000
  H   H193      1.0  0.22303  0.57334  0.89718  1.0000
  H   H194      1.0  0.40765  0.44813  0.51434  1.0000
  H   H195      1.0  0.17523  0.55867  0.85507  1.0000
  C   C177      1.0  0.46665  0.42316  0.62775  1.0000
  H   H196      1.0  0.06517  0.47067  0.77004  1.0000
  H   H197      1.0  0.47142  0.49217  0.79454  1.0000
  H   H198      1.0  0.49656  0.44810  0.68988  1.0000
  C   C178      1.0  0.43052  0.45379  0.98850  1.0000
  H   H199      1.0  0.28096  0.53659  0.55635  1.0000
  H   H200      1.0  0.47803  0.64004  0.86006  1.0000
  H   H201      1.0  0.23422  0.54576  0.59575  1.0000
  C   C179      1.0  0.23975  0.56188  0.52633  1.0000
  C   C180      1.0  0.20970  0.49630  0.56129  1.0000
  C   C181      1.0  0.09227  0.50791  0.57254  1.0000
  H   H202      1.0  0.38842  0.45735  0.96363  1.0000
  H   H203      1.0  0.47896  0.61752  0.67734  1.0000
  C   C182      1.0  0.06986  0.43044  0.74413  1.0000
  H   H204      1.0  0.49603  0.38588  0.60261  1.0000
  C   C183      1.0  0.99756  0.41922  0.56464  1.0000
  H   H205      1.0  0.24569  0.56963  0.87246  1.0000
  C   C184      1.0  0.45473  0.48418  0.77820  1.0000
  C   C185      1.0  0.01513  0.41936  0.76920  1.0000
  C   C186      1.0  0.19984  0.51996  0.88640  1.0000
  H   H206      1.0  0.47799  0.63830  0.75138  1.0000
  H   H207      1.0  0.44878  0.49581  0.70971  1.0000
  H   H208      1.0  0.06172  0.49169  0.49768  1.0000
  H   H209      1.0  0.22602  0.58640  0.86276  1.0000
  N   N13       1.0  0.46618  0.49502  0.75004  1.0000
  H   H210      1.0  0.20794  0.50006  0.58377  1.0000
  H   H211      1.0  0.21026  0.51847  0.75812  1.0000
  H   H212      1.0  0.09024  0.57706  0.54209  1.0000
  H   H213      1.0  0.23831  0.61712  0.55636  1.0000
  H   H214      1.0  0.43719  0.37089  0.60241  1.0000
  C   C187      1.0  0.44715  0.37179  0.62285  1.0000
  H   H215      1.0  0.15660  0.52151  0.86089  1.0000
  H   H216      1.0  0.21960  0.50685  0.50711  1.0000
  H   H217      1.0  0.24093  0.59890  0.51000  1.0000
  C   C188      1.0  0.01405  0.53369  0.87076  1.0000
  H   H218      1.0  0.25973  0.52399  0.58707  1.0000
  H   H219      1.0  0.36135  0.41159  0.50180  1.0000
  C   C189      1.0  0.40388  0.42025  0.95246  1.0000
  C   C190      1.0  0.45687  0.46922  0.62749  1.0000
  C   C191      1.0  0.20638  0.50407  0.80050  1.0000
  C   C192      1.0  0.06831  0.47513  0.53518  1.0000
  C   C193      1.0  0.43452  0.44203  0.62381  1.0000
  C   C194      1.0  0.12561  0.65736  0.96749  1.0000
  H   H220      1.0  0.42128  0.41560  0.95018  1.0000
  C   C195      1.0  0.23890  0.59780  0.55474  1.0000
  H   H221      1.0  0.46408  0.46411  0.70211  1.0000
  C   C196      1.0  0.39607  0.64862  0.72725  1.0000
  H   H222      1.0  0.06999  0.42928  0.76723  1.0000
  C   C197      1.0  0.23634  0.55700  0.57660  1.0000
  H   H223      1.0  0.21317  0.56319  0.77126  1.0000
  H   H224      1.0  0.23677  0.48862  0.51963  1.0000
  H   H225      1.0  0.03045  0.42815  0.78587  1.0000
  C   C198      1.0  0.09463  0.52988  0.55601  1.0000
  C   C199      1.0  0.44184  0.48671  0.73093  1.0000
  H   H226      1.0  0.11640  0.64914  0.91161  1.0000
  H   H227      1.0  0.44696  0.44762  0.98913  1.0000
  H   H228      1.0  0.45314  0.48682  0.62691  1.0000
  S   S63       1.0  0.46916  0.37791  0.52529  1.0000
  H   H229      1.0  0.41345  0.43860  0.62015  1.0000
  C   C200      1.0  0.26043  0.51975  0.56454  1.0000
  H   H230      1.0  0.08106  0.64997  0.93884  1.0000
  C   C201      1.0  0.44340  0.64265  0.71469  1.0000
  C   C202      1.0  0.48404  0.47379  0.63140  1.0000
  H   H231      1.0  0.23457  0.59008  0.59884  1.0000
  H   H232      1.0  0.42855  0.46352  0.72924  1.0000
  C   C203      1.0  0.39346  0.62211  0.72712  1.0000
  H   H233      1.0  0.42085  0.39888  0.62037  1.0000
  H   H234      1.0  0.04778  0.45838  0.69384  1.0000
  H   H235      1.0  0.06350  0.53546  0.94795  1.0000
  H   H236      1.0  0.41360  0.59804  0.72128  1.0000
  H   H237      1.0  0.08694  0.48623  0.74056  1.0000
  H   H238      1.0  0.03342  0.41504  0.57537  1.0000
  H   H239      1.0  0.01018  0.44150  0.56050  1.0000
  C   C204      1.0  0.17481  0.56034  0.98395  1.0000
  H   H240      1.0  0.20899  0.57359  0.81970  1.0000
  C   C205      1.0  0.00193  0.41266  0.72041  1.0000
  C   C206      1.0  0.05892  0.44815  0.70331  1.0000
  H   H241      1.0  0.43952  0.49087  0.78494  1.0000
  H   H242      1.0  0.01930  0.56661  0.94332  1.0000
  C   C207      1.0  0.48896  0.45117  0.63148  1.0000
  C   C208      1.0  0.02352  0.42542  0.74089  1.0000
  H   H243      1.0  0.12316  0.58188  0.52854  1.0000
  H   H244      1.0  0.05263  0.42819  0.69204  1.0000
  C   C209      1.0  0.23763  0.54576  0.55035  1.0000
  C   C210      1.0  0.48524  0.48465  0.74132  1.0000
  C   C211      1.0  0.08363  0.52497  0.52841  1.0000
  C   C212      1.0  0.46098  0.62043  0.68338  1.0000
  H   H245      1.0  0.26065  0.49965  0.56340  1.0000
  C   C213      1.0  0.10115  0.57593  0.52303  1.0000
  N   N14       1.0  0.05364  0.44356  0.73373  1.0000
  C   C214      1.0  0.38235  0.44072  0.97976  1.0000
  H   H246      1.0  0.18057  0.60188  0.98151  1.0000
  H   H247      1.0  0.44371  0.46087  0.77868  1.0000
  H   H248      1.0  0.38380  0.40093  0.94694  1.0000
  H   H249      1.0  0.19110  0.49504  0.55055  1.0000
  N   N15       1.0  0.40243  0.43004  0.98094  1.0000
  C   C215      1.0  0.21124  0.54851  0.78738  1.0000
  C   C216      1.0  0.07030  0.49689  0.51854  1.0000
  H   H250      1.0  0.17048  0.54535  0.88975  1.0000
  H   H251      1.0  0.40744  0.55619  0.98406  1.0000
  H   H252      1.0  0.20499  0.48443  0.79449  1.0000
  H   H253      1.0  0.44282  0.59900  0.68694  1.0000
  H   H254      1.0  0.20162  0.49380  0.84334  1.0000
  H   H255      1.0  0.21928  0.51834  0.88599  1.0000
  C   C217      1.0  0.40788  0.46014  0.49560  1.0000
  N   N16       1.0  0.08597  0.54763  0.51004  1.0000
  N   N17       1.0  0.46766  0.63880  0.70822  1.0000
  H   H256      1.0  0.05212  0.48139  0.74078  1.0000
  C   C218      1.0  0.06478  0.47155  0.74693  1.0000
  H   H257      1.0  0.04472  0.54001  0.52108  1.0000
  C   C219      1.0  0.23770  0.50930  0.51991  1.0000
  H   H258      1.0  0.43129  0.36650  0.63961  1.0000
  H   H259      1.0  0.11147  0.54837  0.96393  1.0000
  H   H260      1.0  0.42774  0.49450  0.73847  1.0000
  H   H261      1.0  0.02423  0.51730  0.98149  1.0000
  C   C220      1.0  0.48219  0.52604  0.75123  1.0000
  H   H262      1.0  0.20769  0.47517  0.56010  1.0000
  H   H263      1.0  0.40783  0.43646  0.93641  1.0000
  H   H264      1.0  0.24015  0.55488  0.50540  1.0000
  H   H265      1.0  0.03232  0.39136  0.64912  1.0000
  H   H266      1.0  0.06111  0.40878  0.73574  1.0000
  C   C221      1.0  0.47474  0.65834  0.85853  1.0000
  H   H267      1.0  0.05850  0.45392  0.52707  1.0000
  C   C222      1.0  0.22510  0.56878  0.87491  1.0000
  H   H268      1.0  0.10567  0.55052  0.56530  1.0000
  H   H269      1.0  0.07791  0.46385  0.57498  1.0000
  H   H270      1.0  0.09236  0.44249  0.73768  1.0000
  H   H271      1.0  0.10107  0.51217  0.59347  1.0000
  H   H272      1.0  0.37335  0.60376  0.73192  1.0000
  H   H273      1.0  0.43759  0.47152  0.97353  1.0000
  C   C223      1.0  0.20960  0.52331  0.77994  1.0000
  C   C224      1.0  0.48128  0.46915  0.71634  1.0000
  C   C225      1.0  0.47338  0.62539  0.73221  1.0000
  C   C226      1.0  0.41671  0.61908  0.72096  1.0000
  H   H274      1.0  0.48475  0.56655  0.67306  1.0000
  H   H275      1.0  0.39488  0.40054  0.50189  1.0000
  H   H276      1.0  0.45555  0.62928  0.66509  1.0000
  N   N18       1.0  0.47257  0.39968  0.62752  1.0000
  C   C227      1.0  0.09421  0.54027  0.97873  1.0000
  H   H277      1.0  0.47122  0.39656  0.67230  1.0000
  H   H278      1.0  0.00493  0.36488  0.58716  1.0000
  H   H279      1.0  0.10971  0.63519  0.96235  1.0000
  H   H280      1.0  0.39919  0.47370  0.50209  1.0000
  C   C228      1.0  0.05742  0.54209  0.50224  1.0000
  H   H281      1.0  0.00613  0.41608  0.69841  1.0000
  H   H282      1.0  0.45200  0.65051  0.86248  1.0000
  H   H283      1.0  0.48552  0.40762  0.58457  1.0000
  H   H284      1.0  0.46467  0.65821  0.91250  1.0000
  H   H285      1.0  0.49151  0.53516  0.73060  1.0000
  H   H286      1.0  0.37809  0.65095  0.73227  1.0000
  H   H287      1.0  0.14625  0.65821  0.96877  1.0000
  H   H288      1.0  0.36057  0.42369  0.97493  1.0000
  C   C229      1.0  0.48509  0.39845  0.65457  1.0000
  C   C230      1.0  0.06723  0.53296  0.96971  1.0000
  H   H289      1.0  0.46843  0.53451  0.75771  1.0000
  H   H290      1.0  0.49160  0.64978  0.90743  1.0000
  H   H291      1.0  0.46478  0.66150  0.78770  1.0000
  H   H292      1.0  0.48855  0.38014  0.65549  1.0000
  C   C231      1.0  0.49288  0.40419  0.60498  1.0000
  C   C232      1.0  0.04512  0.52270  0.98873  1.0000
  H   H293      1.0  0.12076  0.66203  0.98867  1.0000
  H   H294      1.0  0.42703  0.39748  0.98921  1.0000
  H   H295      1.0  0.32095  0.81860  0.43069  1.0000
  Fe  Fe31      1.0  0.42576  0.84592  0.44586  1.0000
  S   S64       1.0  0.38325  0.84278  0.44352  1.0000
  S   S65       1.0  0.45840  0.85981  0.41166  1.0000
  Fe  Fe32      1.0  0.40512  0.85034  0.02003  1.0000
  H   H296      1.0  0.44785  0.74432  0.31240  1.0000
  S   S66       1.0  0.41860  0.86095  0.06548  1.0000
  Fe  Fe33      1.0  0.36857  0.80596  0.47291  1.0000
  C   C233      1.0  0.46091  0.71273  0.21041  1.0000
  N   N19       1.0  0.33598  0.78686  0.07926  1.0000
  H   H297      1.0  0.42355  0.92948  0.43361  1.0000
  S   S67       1.0  0.41035  0.80730  0.47223  1.0000
  C   C234      1.0  0.42613  0.66746  0.22858  1.0000
  S   S68       1.0  0.47076  0.84712  0.21756  1.0000
  S   S69       1.0  0.46067  0.78427  0.23264  1.0000
  Fe  Fe34      1.0  0.46957  0.81113  0.19450  1.0000
  S   S70       1.0  0.44773  0.79246  0.15319  1.0000
  Fe  Fe35      1.0  0.46625  0.82200  0.25631  1.0000
  S   S71       1.0  0.43235  0.81065  0.28874  1.0000
  C   C235      1.0  0.27202  0.79934  0.45704  1.0000
  C   C236      1.0  0.22360  0.74624  0.44663  1.0000
  S   S72       1.0  0.38703  0.90477  0.48680  1.0000
  C   C237      1.0  0.37397  0.80123  0.16114  1.0000
  H   H298      1.0  0.49002  0.94285  0.17118  1.0000
  C   C238      1.0  0.24101  0.74979  0.46927  1.0000
  C   C239      1.0  0.47734  0.73390  0.36511  1.0000
  H   H299      1.0  0.49247  0.87473  0.36274  1.0000
  H   H300      1.0  0.37476  0.80025  0.05760  1.0000
  C   C240      1.0  0.45046  0.84643  0.37743  1.0000
  C   C241      1.0  0.47175  0.85776  0.35718  1.0000
  C   C242      1.0  0.46640  0.84728  0.32977  1.0000
  C   C243      1.0  0.43971  0.82528  0.32252  1.0000
  C   C244      1.0  0.41840  0.81402  0.34274  1.0000
  C   C245      1.0  0.42372  0.82455  0.37015  1.0000
  C   C246      1.0  0.26496  0.77583  0.47447  1.0000
  C   C247      1.0  0.43361  0.69447  0.21952  1.0000
  H   H301      1.0  0.39769  0.79701  0.33721  1.0000
  H   H302      1.0  0.40722  0.81568  0.38563  1.0000
  C   C248      1.0  0.42642  0.84131  0.08935  1.0000
  C   C249      1.0  0.42776  0.81761  0.08124  1.0000
  C   C250      1.0  0.43404  0.80267  0.10109  1.0000
  C   C251      1.0  0.43961  0.81161  0.12900  1.0000
  C   C252      1.0  0.43847  0.83540  0.13703  1.0000
  C   C253      1.0  0.43180  0.85012  0.11729  1.0000
  H   H303      1.0  0.42414  0.81088  0.05970  1.0000
  H   H304      1.0  0.43496  0.78429  0.09472  1.0000
  H   H305      1.0  0.44226  0.84218  0.15855  1.0000
  H   H306      1.0  0.43060  0.86832  0.12374  1.0000
  C   C254      1.0  0.24898  0.70287  0.42482  1.0000
  C   C255      1.0  0.26867  0.72957  0.41440  1.0000
  C   C256      1.0  0.29340  0.74786  0.42949  1.0000
  C   C257      1.0  0.29863  0.73990  0.45555  1.0000
  C   C258      1.0  0.27910  0.71311  0.46585  1.0000
  C   C259      1.0  0.25460  0.69467  0.45057  1.0000
  H   H307      1.0  0.26460  0.73625  0.39458  1.0000
  H   H308      1.0  0.30809  0.76824  0.42112  1.0000
  H   H309      1.0  0.38405  0.80489  0.18141  1.0000
  H   H310      1.0  0.48290  0.85624  0.31429  1.0000
  C   C260      1.0  0.31546  0.83500  0.43598  1.0000
  H   H311      1.0  0.31889  0.81468  0.08144  1.0000
  S   S73       1.0  0.44117  0.87540  0.48255  1.0000
  H   H312      1.0  0.46698  0.73394  0.20407  1.0000
  C   C261      1.0  0.30746  0.76171  0.08022  1.0000
  H   H313      1.0  0.33553  0.85525  0.43888  1.0000
  C   C262      1.0  0.33302  0.81049  0.06823  1.0000
  H   H314      1.0  0.27841  0.85139  0.44853  1.0000
  S   S74       1.0  0.38890  0.80962  0.99711  1.0000
  S   S75       1.0  0.21697  0.68161  0.40587  1.0000
  C   C263      1.0  0.45149  0.98752  0.49058  1.0000
  H   H315      1.0  0.35545  0.76331  0.06438  1.0000
  C   C264      1.0  0.22968  0.76890  0.42938  1.0000
  C   C265      1.0  0.49142  0.97795  0.39204  1.0000
  H   H316      1.0  0.46522  0.77472  0.38338  1.0000
  H   H317      1.0  0.35392  0.83006  0.06666  1.0000
  H   H318      1.0  0.30495  0.83777  0.41743  1.0000
  C   C266      1.0  0.34915  0.79228  0.10729  1.0000
  C   C267      1.0  0.35467  0.77222  0.12006  1.0000
  C   C268      1.0  0.35653  0.81705  0.12284  1.0000
  C   C269      1.0  0.49095  0.75720  0.34683  1.0000
  C   C270      1.0  0.36858  0.82123  0.14942  1.0000
  C   C271      1.0  0.43718  0.95770  0.48898  1.0000
  S   S76       1.0  0.32813  0.76286  0.47696  1.0000
  H   H319      1.0  0.32377  0.80602  0.04681  1.0000
  S   S77       1.0  0.36818  0.85528  0.00767  1.0000
  H   H320      1.0  0.34968  0.75290  0.10962  1.0000
  H   H321      1.0  0.35367  0.83376  0.11478  1.0000
  C   C272      1.0  0.49178  0.95824  0.15617  1.0000
  H   H322      1.0  0.48489  0.88972  0.14223  1.0000
  C   C273      1.0  0.48073  0.70399  0.21010  1.0000
  H   H323      1.0  0.25730  0.81197  0.42042  1.0000
  C   C274      1.0  0.36718  0.77686  0.14643  1.0000
  H   H324      1.0  0.41839  0.70157  0.21995  1.0000
  H   H325      1.0  0.30811  0.74247  0.08591  1.0000
  H   H326      1.0  0.29399  0.76443  0.09579  1.0000
  H   H327      1.0  0.29667  0.75748  0.05955  1.0000
  H   H328      1.0  0.37218  0.76176  0.15535  1.0000
  C   C275      1.0  0.47865  0.96627  0.11023  1.0000
  H   H329      1.0  0.46217  0.69365  0.30240  1.0000
  H   H330      1.0  0.34379  0.77752  0.03770  1.0000
  C   C276      1.0  0.44241  0.94307  0.42181  1.0000
  H   H331      1.0  0.37442  0.84041  0.16076  1.0000
  C   C277      1.0  0.35323  0.78169  0.05897  1.0000
  H   H332      1.0  0.46762  0.95815  0.09061  1.0000
  H   H333      1.0  0.43454  0.74262  0.34700  1.0000
  H   H334      1.0  0.49462  0.94064  0.38655  1.0000
  H   H335      1.0  0.46581  0.92549  0.12686  1.0000
  H   H336      1.0  0.48627  0.86156  0.10234  1.0000
  C   C278      1.0  0.45802  0.93203  0.41013  1.0000
  C   C279      1.0  0.48182  0.70387  0.29107  1.0000
  C   C280      1.0  0.25339  0.79513  0.43454  1.0000
  C   C281      1.0  0.48963  0.72917  0.27677  1.0000
  H   H337      1.0  0.44900  0.94690  0.48674  1.0000
  H   H338      1.0  0.45785  0.72892  0.37532  1.0000
  H   H339      1.0  0.47580  0.73785  0.27665  1.0000
  H   H340      1.0  0.43920  0.77000  0.32428  1.0000
  H   H341      1.0  0.21620  0.76587  0.41158  1.0000
  H   H342      1.0  0.23973  0.67434  0.45900  1.0000
  Fe  Fe36      1.0  0.39809  0.87027  0.48189  1.0000
  H   H343      1.0  0.27532  0.84292  0.48496  1.0000
  C   C282      1.0  0.44872  0.75709  0.33075  1.0000
  C   C283      1.0  0.48248  0.94943  0.39536  1.0000
  H   H344      1.0  0.45129  0.90997  0.41272  1.0000
  C   C284      1.0  0.48843  0.71632  0.37031  1.0000
  C   C285      1.0  0.47767  0.94790  0.13076  1.0000
  H   H345      1.0  0.20579  0.72566  0.44200  1.0000
  H   H346      1.0  0.46857  0.80319  0.36279  1.0000
  C   C286      1.0  0.47360  0.67716  0.21941  1.0000
  H   H347      1.0  0.43801  0.66862  0.16376  1.0000
  H   H348      1.0  0.47729  0.69811  0.38363  1.0000
  H   H349      1.0  0.28278  0.70660  0.48594  1.0000
  H   H350      1.0  0.49037  0.67227  0.21943  1.0000
  C   C287      1.0  0.45122  0.97156  0.41880  1.0000
  C   C288      1.0  0.31529  0.82775  0.48517  1.0000
  N   N20       1.0  0.29763  0.82707  0.46131  1.0000
  N   N21       1.0  0.47816  0.77481  0.34078  1.0000
  H   H351      1.0  0.48274  0.80841  0.31412  1.0000
  C   C289      1.0  0.28952  0.84864  0.46659  1.0000
  C   C290      1.0  0.47579  0.98985  0.40346  1.0000
  C   C291      1.0  0.47787  0.78952  0.36656  1.0000
  H   H352      1.0  0.43875  0.97920  0.42894  1.0000
  H   H353      1.0  0.38693  0.99178  0.99454  1.0000
  H   H354      1.0  0.32282  0.81254  0.48211  1.0000
  C   C292      1.0  0.49391  0.99510  0.11489  1.0000
  H   H355      1.0  0.26739  0.71754  0.99433  1.0000
  C   C293      1.0  0.49351  0.79635  0.31907  1.0000
  H   H356      1.0  0.30835  0.86961  0.47083  1.0000
  H   H357      1.0  0.49481  0.78663  0.29915  1.0000
  H   H358      1.0  0.23656  0.73186  0.48217  1.0000
  H   H359      1.0  0.33449  0.84880  0.48771  1.0000
  C   C294      1.0  0.40751  0.94203  0.48980  1.0000
  H   H360      1.0  0.33048  0.72247  0.56772  1.0000
  Fe  Fe37      1.0  0.41237  0.83563  0.96005  1.0000
  S   S78       1.0  0.37602  0.83948  0.94397  1.0000
  S   S79       1.0  0.43497  0.81961  0.93282  1.0000
  Fe  Fe38      1.0  0.42240  0.83648  0.50895  1.0000
  S   S80       1.0  0.38008  0.83340  0.51135  1.0000
  S   S81       1.0  0.44785  0.82995  0.54273  1.0000
  H   H361      1.0  0.35565  0.77315  0.52942  1.0000
  H   H362      1.0  0.21837  0.74701  0.96439  1.0000
  H   H363      1.0  0.46047  0.91437  0.59410  1.0000
  H   H364      1.0  0.40857  0.77100  0.52473  1.0000
  H   H365      1.0  0.27804  0.77662  0.49171  1.0000
  C   C295      1.0  0.38715  0.75248  0.57781  1.0000
  C   C296      1.0  0.47876  0.68319  0.78224  1.0000
  S   S82       1.0  0.44063  0.79806  0.74724  1.0000
  Fe  Fe39      1.0  0.45918  0.82513  0.70931  1.0000
  S   S83       1.0  0.43081  0.82452  0.67424  1.0000
  Fe  Fe40      1.0  0.46519  0.83716  0.77253  1.0000
  S   S84       1.0  0.44812  0.85411  0.80540  1.0000
  H   H366      1.0  0.42555  0.98107  0.91245  1.0000
  H   H367      1.0  0.39205  0.73310  0.52548  1.0000
  C   C297      1.0  0.39457  0.95923  0.97968  1.0000
  C   C298      1.0  0.13995  0.72757  0.95945  1.0000
  H   H368      1.0  0.22914  0.68417  0.96284  1.0000
  S   S85       1.0  0.21222  0.69134  0.90646  1.0000
  S   S86       1.0  0.46870  0.74888  0.75856  1.0000
  H   H369      1.0  0.42638  0.76061  0.64876  1.0000
  H   H370      1.0  0.45665  0.80358  0.88615  1.0000
  C   C299      1.0  0.43979  0.83012  0.89762  1.0000
  C   C300      1.0  0.45051  0.81830  0.87874  1.0000
  C   C301      1.0  0.45305  0.82528  0.85026  1.0000
  C   C302      1.0  0.44487  0.84413  0.84064  1.0000
  C   C303      1.0  0.43450  0.85615  0.85958  1.0000
  C   C304      1.0  0.43203  0.84925  0.88798  1.0000
  H   H371      1.0  0.44851  0.75915  0.60441  1.0000
  C   C305      1.0  0.16082  0.75496  0.96623  1.0000
  H   H372      1.0  0.42833  0.87090  0.85225  1.0000
  H   H373      1.0  0.42405  0.85870  0.90239  1.0000
  C   C306      1.0  0.44375  0.83024  0.57934  1.0000
  C   C307      1.0  0.42217  0.83320  0.59132  1.0000
  C   C308      1.0  0.41884  0.83184  0.62047  1.0000
  C   C309      1.0  0.43736  0.82813  0.63793  1.0000
  C   C310      1.0  0.45960  0.82625  0.62603  1.0000
  C   C311      1.0  0.46259  0.82705  0.59683  1.0000
  H   H374      1.0  0.40790  0.83629  0.57820  1.0000
  H   H375      1.0  0.40168  0.83346  0.62957  1.0000
  H   H376      1.0  0.47386  0.82318  0.63922  1.0000
  C   C312      1.0  0.09634  0.67217  0.94472  1.0000
  C   C313      1.0  0.24012  0.71388  0.92944  1.0000
  C   C314      1.0  0.25912  0.74153  0.92092  1.0000
  C   C315      1.0  0.28129  0.76035  0.93851  1.0000
  C   C316      1.0  0.28438  0.75194  0.96518  1.0000
  C   C317      1.0  0.26533  0.72431  0.97373  1.0000
  C   C318      1.0  0.24354  0.70530  0.95590  1.0000
  H   H377      1.0  0.25669  0.74844  0.90051  1.0000
  H   H378      1.0  0.29550  0.78156  0.93166  1.0000
  C   C319      1.0  0.46743  0.70051  0.77555  1.0000
  C   C320      1.0  0.18898  0.76194  0.96805  1.0000
  C   C321      1.0  0.44305  0.97357  0.96980  1.0000
  H   H379      1.0  0.08912  0.67597  0.96507  1.0000
  H   H380      1.0  0.15518  0.77096  0.96991  1.0000
  C   C322      1.0  0.36660  0.77393  0.54924  1.0000
  S   S87       1.0  0.31067  0.77530  0.98913  1.0000
  C   C323      1.0  0.13267  0.67041  0.91889  1.0000
  Fe  Fe41      1.0  0.39470  0.87886  0.97063  1.0000
  C   C324      1.0  0.48724  0.70421  0.87633  1.0000
  C   C325      1.0  0.47578  0.74888  0.87014  1.0000
  H   H381      1.0  0.45863  0.96884  0.96178  1.0000
  H   H382      1.0  0.47942  0.82487  0.58770  1.0000
  C   C326      1.0  0.41407  0.75455  0.57876  1.0000
  H   H383      1.0  0.29220  0.71219  0.82334  1.0000
  N   N22       1.0  0.49289  0.68062  0.87857  1.0000
  H   H384      1.0  0.38670  0.79427  0.54982  1.0000
  H   H385      1.0  0.49489  0.87222  0.66485  1.0000
  C   C327      1.0  0.47726  0.90941  0.59431  1.0000
  H   H386      1.0  0.25468  0.67825  0.85453  1.0000
  Fe  Fe42      1.0  0.47996  0.79436  0.74847  1.0000
  H   H387      1.0  0.44485  0.69184  0.77610  1.0000
  N   N23       1.0  0.37212  0.75026  0.55136  1.0000
  N   N24       1.0  0.12557  0.67718  0.94655  1.0000
  C   C328      1.0  0.45754  0.97384  0.89760  1.0000
  H   H388      1.0  0.20513  0.78323  0.97304  1.0000
  H   H389      1.0  0.37986  0.75721  0.64851  1.0000
  C   C329      1.0  0.41527  0.75765  0.62919  1.0000
  S   S88       1.0  0.40289  0.92040  0.95171  1.0000
  C   C330      1.0  0.48395  0.98478  0.88527  1.0000
  H   H390      1.0  0.42541  0.75511  0.56019  1.0000
  C   C331      1.0  0.47107  0.73509  0.89563  1.0000
  C   C332      1.0  0.39264  0.95640  0.49274  1.0000
  N   N25       1.0  0.35290  0.76019  0.89748  1.0000
  C   C333      1.0  0.35423  0.76094  0.92845  1.0000
  C   C334      1.0  0.37640  0.75660  0.88720  1.0000
  C   C335      1.0  0.35741  0.78779  0.88800  1.0000
  C   C336      1.0  0.32593  0.73740  0.88617  1.0000
  C   C337      1.0  0.30411  0.71718  0.90337  1.0000
  C   C338      1.0  0.32107  0.73467  0.85693  1.0000
  C   C339      1.0  0.27900  0.69588  0.89184  1.0000
  C   C340      1.0  0.29568  0.71353  0.84569  1.0000
  C   C341      1.0  0.27462  0.69428  0.86315  1.0000
  H   H391      1.0  0.35244  0.74141  0.93720  1.0000
  H   H392      1.0  0.37465  0.77851  0.93624  1.0000
  H   H393      1.0  0.33745  0.76423  0.93759  1.0000
  H   H394      1.0  0.37288  0.73538  0.89234  1.0000
  H   H395      1.0  0.39687  0.77222  0.89673  1.0000
  H   H396      1.0  0.37923  0.75949  0.86425  1.0000
  H   H397      1.0  0.33960  0.79083  0.89439  1.0000
  H   H398      1.0  0.37709  0.80536  0.89695  1.0000
  H   H399      1.0  0.35977  0.79048  0.86503  1.0000
  H   H400      1.0  0.30557  0.71762  0.92584  1.0000
  H   H401      1.0  0.33683  0.74901  0.84252  1.0000
  H   H402      1.0  0.49300  0.97147  0.88201  1.0000
  H   H403      1.0  0.30366  0.82300  0.50523  1.0000
  S   S89       1.0  0.43237  0.87601  0.98429  1.0000
  C   C342      1.0  0.42771  0.75691  0.60416  1.0000
  C   C343      1.0  0.47657  0.71298  0.89881  1.0000
  H   H404      1.0  0.35467  0.75163  0.60479  1.0000
  H   H405      1.0  0.37245  0.94347  0.97931  1.0000
  C   C344      1.0  0.44584  0.99095  0.90228  1.0000
  H   H406      1.0  0.11863  0.72367  0.95819  1.0000
  C   C345      1.0  0.19640  0.74155  0.96325  1.0000
  H   H407      1.0  0.42413  0.69291  0.72189  1.0000
  C   C346      1.0  0.34479  0.72359  0.55078  1.0000
  C   C347      1.0  0.14686  0.70627  0.95432  1.0000
  C   C348      1.0  0.40672  0.98570  0.49466  1.0000
  H   H408      1.0  0.45620  0.99153  0.58638  1.0000
  H   H409      1.0  0.47927  0.66555  0.83661  1.0000
  H   H410      1.0  0.47222  0.70308  0.91902  1.0000
  C   C349      1.0  0.38803  0.75099  0.52603  1.0000
  C   C350      1.0  0.48323  0.89935  0.57017  1.0000
  H   H411      1.0  0.18265  0.69917  0.95284  1.0000
  C   C351      1.0  0.17573  0.71413  0.95659  1.0000
  H   H412      1.0  0.09443  0.68553  0.92843  1.0000
  C   C352      1.0  0.48619  0.74077  0.84774  1.0000
  C   C353      1.0  0.38899  0.75572  0.62899  1.0000
  H   H413      1.0  0.46124  0.81608  0.83577  1.0000
  S   S90       1.0  0.48029  0.86460  0.73468  1.0000
  C   C354      1.0  0.48487  0.72879  0.76802  1.0000
  C   C355      1.0  0.49203  0.71895  0.85080  1.0000
  C   C356      1.0  0.37494  0.75290  0.60378  1.0000
  H   H414      1.0  0.36987  0.94476  0.49351  1.0000
  C   C357      1.0  0.41452  0.95236  0.97028  1.0000
  H   H415      1.0  0.35312  0.77418  0.56631  1.0000
  H   H416      1.0  0.46476  0.68866  0.71103  1.0000
  H   H417      1.0  0.48720  0.92066  0.63691  1.0000
  H   H418      1.0  0.49054  0.91870  0.82606  1.0000
  H   H419      1.0  0.37627  0.74972  0.50654  1.0000
  H   H420      1.0  0.49171  0.67641  0.68392  1.0000
  H   H421      1.0  0.44612  0.95202  0.90414  1.0000
  C   C358      1.0  0.42192  0.67217  0.72116  1.0000
  H   H422      1.0  0.34799  0.70525  0.55311  1.0000
  C   C359      1.0  0.49409  0.66547  0.70234  1.0000
  H   H423      1.0  0.48966  0.75135  0.82778  1.0000
  H   H424      1.0  0.33327  0.72103  0.53078  1.0000
  H   H425      1.0  0.26237  0.68098  0.90532  1.0000
  C   C360      1.0  0.48727  0.66756  0.90668  1.0000
  H   H426      1.0  0.13444  0.68578  0.90280  1.0000
  Fe  Fe43      1.0  0.35320  0.81556  0.98245  1.0000
  C   C361      1.0  0.40281  0.98679  0.98804  1.0000
  C   C362      1.0  0.44532  0.66939  0.71494  1.0000
  H   H427      1.0  0.47098  0.89619  0.55135  1.0000
  H   H428      1.0  0.48168  0.98917  0.56487  1.0000
  H   H429      1.0  0.15301  0.67061  0.91909  1.0000
  C   C363      1.0  0.49243  0.91252  0.61882  1.0000
  H   H430      1.0  0.46301  0.74156  0.91302  1.0000
  H   H431      1.0  0.47135  0.76588  0.86768  1.0000
  S   S91       1.0  0.49689  0.81922  0.70842  1.0000
  H   H432      1.0  0.49671  0.89423  0.84412  1.0000
  H   H433      1.0  0.39457  0.99616  0.49698  1.0000
  H   H434      1.0  0.50374  0.28096  0.09410  1.0000
  S   S92       1.0  0.81038  0.27655  0.19649  1.0000
  Fe  Fe44      1.0  0.61364  0.07425  0.23319  1.0000
  S   S93       1.0  0.57529  0.07851  0.23875  1.0000
  S   S94       1.0  0.60718  0.03304  0.25156  1.0000
  Fe  Fe45      1.0  0.64872  0.13457  0.20887  1.0000
  S   S95       1.0  0.61155  0.14110  0.21310  1.0000
  S   S96       1.0  0.68355  0.17302  0.18568  1.0000
  Fe  Fe46      1.0  0.60498  0.12139  0.25550  1.0000
  S   S97       1.0  0.59663  0.14403  0.29081  1.0000
  Fe  Fe47      1.0  0.58581  0.09777  0.19609  1.0000
  S   S98       1.0  0.55036  0.08572  0.16524  1.0000
  S   S99       1.0  0.64340  0.11683  0.25249  1.0000
  S   S100      1.0  0.62259  0.09135  0.18926  1.0000
  Fe  Fe48      1.0  0.50129  0.31751  0.05434  1.0000
  C   C364      1.0  0.51042  0.01548  0.20203  1.0000
  Fe  Fe49      1.0  0.54374  0.11022  0.45136  1.0000
  S   S101      1.0  0.56055  0.09666  0.41451  1.0000
  Fe  Fe50      1.0  0.54285  0.10874  0.00984  1.0000
  S   S102      1.0  0.57460  0.10341  0.03549  1.0000
  H   H435      1.0  0.53543  0.27901  0.05000  1.0000
  C   C365      1.0  0.63433  0.22450  0.10448  1.0000
  C   C366      1.0  0.51637  0.24397  0.12161  1.0000
  H   H436      1.0  0.52844  0.03669  0.38997  1.0000
  C   C367      1.0  0.55732  0.08887  0.12918  1.0000
  C   C368      1.0  0.58408  0.09689  0.11869  1.0000
  C   C369      1.0  0.58896  0.10018  0.08975  1.0000
  C   C370      1.0  0.56718  0.09568  0.07126  1.0000
  C   C371      1.0  0.54020  0.08649  0.08178  1.0000
  C   C372      1.0  0.53532  0.08318  0.11060  1.0000
  H   H437      1.0  0.60116  0.10112  0.13283  1.0000
  H   H438      1.0  0.60985  0.10702  0.08178  1.0000
  H   H439      1.0  0.52303  0.08189  0.06776  1.0000
  H   H440      1.0  0.51445  0.07652  0.11854  1.0000
  C   C373      1.0  0.58586  0.13018  0.32487  1.0000
  C   C374      1.0  0.57859  0.14475  0.34417  1.0000
  C   C375      1.0  0.57059  0.13478  0.37165  1.0000
  C   C376      1.0  0.57014  0.11027  0.38018  1.0000
  C   C377      1.0  0.57754  0.09579  0.36090  1.0000
  C   C378      1.0  0.58518  0.10555  0.33336  1.0000
  H   H441      1.0  0.57906  0.16383  0.33782  1.0000
  H   H442      1.0  0.56497  0.14615  0.38623  1.0000
  H   H443      1.0  0.57748  0.07693  0.36731  1.0000
  H   H444      1.0  0.59094  0.09426  0.31881  1.0000
  C   C379      1.0  0.77466  0.24852  0.19357  1.0000
  C   C380      1.0  0.75664  0.24710  0.17209  1.0000
  C   C381      1.0  0.72893  0.22395  0.17018  1.0000
  C   C382      1.0  0.71861  0.20199  0.18981  1.0000
  C   C383      1.0  0.73647  0.20357  0.21152  1.0000
  C   C384      1.0  0.76426  0.22662  0.21331  1.0000
  H   H445      1.0  0.76424  0.26359  0.15664  1.0000
  H   H446      1.0  0.71552  0.22294  0.15311  1.0000
  H   H447      1.0  0.72923  0.18666  0.22643  1.0000
  H   H448      1.0  0.77803  0.22727  0.22985  1.0000
  C   C385      1.0  0.52027  0.27405  0.16053  1.0000
  C   C386      1.0  0.63370  0.18310  0.13870  1.0000
  H   H449      1.0  0.56120  0.17452  0.09077  1.0000
  C   C387      1.0  0.55104  0.29345  0.12087  1.0000
  H   H450      1.0  0.54259  0.19946  0.13180  1.0000
  N   N26       1.0  0.68383  0.20288  0.28344  1.0000
  C   C388      1.0  0.71398  0.22468  0.28058  1.0000
  C   C389      1.0  0.67231  0.19162  0.25544  1.0000
  C   C390      1.0  0.66855  0.21686  0.29424  1.0000
  C   C391      1.0  0.68091  0.17966  0.30139  1.0000
  C   C392      1.0  0.66188  0.16908  0.32423  1.0000
  C   C393      1.0  0.69641  0.16594  0.29541  1.0000
  C   C394      1.0  0.65878  0.14634  0.33998  1.0000
  C   C395      1.0  0.69314  0.14322  0.31131  1.0000
  C   C396      1.0  0.67432  0.13340  0.33351  1.0000
  H   H451      1.0  0.72634  0.21704  0.26895  1.0000
  H   H452      1.0  0.71667  0.24318  0.26857  1.0000
  H   H453      1.0  0.72405  0.23215  0.30138  1.0000
  H   H454      1.0  0.68310  0.18132  0.24553  1.0000
  H   H455      1.0  0.67449  0.20827  0.24080  1.0000
  H   H456      1.0  0.64954  0.17564  0.25676  1.0000
  H   H457      1.0  0.67567  0.22517  0.31567  1.0000
  H   H458      1.0  0.67184  0.23474  0.28082  1.0000
  H   H459      1.0  0.64532  0.20221  0.29454  1.0000
  H   H460      1.0  0.64838  0.17733  0.32988  1.0000
  H   H461      1.0  0.71047  0.17204  0.27776  1.0000
  H   H462      1.0  0.62257  0.22641  0.04787  1.0000
  H   H463      1.0  0.70475  0.13270  0.30593  1.0000
  H   H464      1.0  0.67136  0.11540  0.34542  1.0000
  H   H465      1.0  0.50492  0.17076  0.09779  1.0000
  H   H466      1.0  0.64362  0.13824  0.35687  1.0000
  H   H467      1.0  0.56483  0.02709  0.20279  1.0000
  H   H468      1.0  0.60470  0.15344  0.10997  1.0000
  Fe  Fe51      1.0  0.51744  0.14722  0.00418  1.0000
  H   H469      1.0  0.66405  0.21691  0.16404  1.0000
  H   H470      1.0  0.55582  0.31523  0.12548  1.0000
  C   C397      1.0  0.51580  0.21263  0.02706  1.0000
  H   H471      1.0  0.60579  0.00951  0.19646  1.0000
  C   C398      1.0  0.61703  0.17551  0.11467  1.0000
  N   N27       1.0  0.60065  0.18717  0.07024  1.0000
  H   H472      1.0  0.59175  0.22106  0.06718  1.0000
  H   H473      1.0  0.52555  0.30504  0.00528  1.0000
  C   C399      1.0  0.61694  0.19591  0.09665  1.0000
  C   C400      1.0  0.65095  0.23190  0.12866  1.0000
  H   H474      1.0  0.55369  0.29210  0.09804  1.0000
  H   H475      1.0  0.55663  0.03735  0.17062  1.0000
  H   H476      1.0  0.63384  0.16706  0.15178  1.0000
  H   H477      1.0  0.52086  0.02442  0.22242  1.0000
  S   S103      1.0  0.52383  0.18669  0.48143  1.0000
  S   S104      1.0  0.53008  0.18978  0.02498  1.0000
  C   C401      1.0  0.60095  0.21062  0.05462  1.0000
  H   H478      1.0  0.63517  0.18938  0.04682  1.0000
  C   C402      1.0  0.53347  0.23332  0.13201  1.0000
  C   C403      1.0  0.55267  0.01871  0.18305  1.0000
  H   H479      1.0  0.63581  0.24155  0.09211  1.0000
  C   C404      1.0  0.57070  0.16620  0.07584  1.0000
  C   C405      1.0  0.52212  0.25829  0.04149  1.0000
  H   H480      1.0  0.56280  0.32011  0.00651  1.0000
  H   H481      1.0  0.56207  0.00785  0.17155  1.0000
  H   H482      1.0  0.50996  0.03164  0.43760  1.0000
  C   C406      1.0  0.58918  0.99827  0.23795  1.0000
  S   S105      1.0  0.50170  0.10814  0.45327  1.0000
  C   C407      1.0  0.50804  0.00565  0.14018  1.0000
  S   S106      1.0  0.50578  0.10845  0.02963  1.0000
  H   H483      1.0  0.61227  0.15574  0.06163  1.0000
  C   C408      1.0  0.65075  0.21124  0.14563  1.0000
  H   H484      1.0  0.55044  0.24533  0.14651  1.0000
  H   H485      1.0  0.60087  0.16671  0.03189  1.0000
  H   H486      1.0  0.53634  0.27112  0.17177  1.0000
  H   H487      1.0  0.56757  0.29091  0.13166  1.0000
  H   H488      1.0  0.58809  0.20305  0.03515  1.0000
  Fe  Fe52      1.0  0.83750  0.31866  0.17381  1.0000
  H   H489      1.0  0.51422  0.05766  0.37862  1.0000
  S   S107      1.0  0.56465  0.14766  0.47993  1.0000
  C   C409      1.0  0.53276  0.23983  0.03799  1.0000
  C   C410      1.0  0.61277  0.17429  0.05185  1.0000
  H   H490      1.0  0.55774  0.16016  0.05642  1.0000
  H   H491      1.0  0.66448  0.25379  0.13409  1.0000
  H   H492      1.0  0.56799  0.14631  0.08447  1.0000
  H   H493      1.0  0.55422  0.24655  0.04411  1.0000
  N   N28       1.0  0.52226  0.99946  0.18840  1.0000
  C   C411      1.0  0.50892  0.03545  0.38142  1.0000
  C   C412      1.0  0.50792  0.19083  0.10472  1.0000
  C   C413      1.0  0.52924  0.20714  0.12365  1.0000
  H   H494      1.0  0.51939  0.02818  0.14285  1.0000
  N   N29       1.0  0.52219  0.27234  0.12981  1.0000
  H   H495      1.0  0.52374  0.29502  0.16712  1.0000
  H   H496      1.0  0.50008  0.05660  0.42652  1.0000
  H   H497      1.0  0.51331  0.03358  0.18930  1.0000
  H   H498      1.0  0.54002  0.24480  0.47518  1.0000
  H   H499      1.0  0.50461  0.02586  0.36027  1.0000
  S   S108      1.0  0.53402  0.07987  0.48679  1.0000
  H   H500      1.0  0.49914  0.25788  0.16819  1.0000
  Fe  Fe53      1.0  0.52191  0.14396  0.48461  1.0000
  S   S109      1.0  0.86849  0.32819  0.13874  1.0000
  C   C414      1.0  0.50234  0.28023  0.11722  1.0000
  H   H501      1.0  0.50699  0.30146  0.12404  1.0000
  C   C415      1.0  0.54514  0.31828  0.99346  1.0000
  H   H502      1.0  0.91472  0.32634  0.05911  1.0000
  Fe  Fe54      1.0  0.82258  0.30028  0.66617  1.0000
  S   S110      1.0  0.79165  0.25276  0.66803  1.0000
  Fe  Fe55      1.0  0.60949  0.06328  0.72191  1.0000
  S   S111      1.0  0.56788  0.05860  0.73349  1.0000
  S   S112      1.0  0.61487  0.02646  0.70872  1.0000
  Fe  Fe56      1.0  0.64175  0.12807  0.73138  1.0000
  S   S113      1.0  0.60141  0.12667  0.74394  1.0000
  S   S114      1.0  0.67973  0.17248  0.73741  1.0000
  Fe  Fe57      1.0  0.59146  0.08829  0.76880  1.0000
  S   S115      1.0  0.57959  0.07711  0.81448  1.0000
  Fe  Fe58      1.0  0.58205  0.09750  0.70740  1.0000
  S   S116      1.0  0.55193  0.10169  0.67782  1.0000
  S   S117      1.0  0.63274  0.09098  0.75846  1.0000
  S   S118      1.0  0.62262  0.10067  0.69351  1.0000
  C   C416      1.0  0.66037  0.15733  0.90187  1.0000
  H   H503      1.0  0.54584  0.21820  0.57983  1.0000
  Fe  Fe59      1.0  0.52808  0.12073  0.95158  1.0000
  S   S119      1.0  0.53587  0.13079  0.90523  1.0000
  Fe  Fe60      1.0  0.55082  0.11708  0.51533  1.0000
  S   S120      1.0  0.58261  0.12467  0.54927  1.0000
  H   H504      1.0  0.55317  0.15904  0.55424  1.0000
  H   H505      1.0  0.63090  0.15453  0.93309  1.0000
  H   H506      1.0  0.59257  0.21698  0.52721  1.0000
  N   N30       1.0  0.65692  0.16609  0.82342  1.0000
  C   C417      1.0  0.56053  0.10815  0.64206  1.0000
  C   C418      1.0  0.58672  0.11354  0.63215  1.0000
  C   C419      1.0  0.59304  0.11836  0.60365  1.0000
  C   C420      1.0  0.57339  0.11817  0.58479  1.0000
  C   C421      1.0  0.54730  0.11321  0.59462  1.0000
  C   C422      1.0  0.54086  0.10811  0.62319  1.0000
  H   H507      1.0  0.60213  0.11393  0.64636  1.0000
  H   H508      1.0  0.61316  0.12196  0.59619  1.0000
  H   H509      1.0  0.53223  0.11353  0.58033  1.0000
  H   H510      1.0  0.52068  0.10427  0.63077  1.0000
  C   C423      1.0  0.56721  0.09225  0.83923  1.0000
  C   C424      1.0  0.56552  0.08438  0.86737  1.0000
  C   C425      1.0  0.55570  0.09573  0.88784  1.0000
  C   C426      1.0  0.54741  0.11505  0.88028  1.0000
  C   C427      1.0  0.54894  0.12280  0.85212  1.0000
  C   C428      1.0  0.55879  0.11146  0.83165  1.0000
  H   H511      1.0  0.57207  0.06957  0.87343  1.0000
  H   H512      1.0  0.55480  0.08973  0.90946  1.0000
  H   H513      1.0  0.54257  0.13777  0.84611  1.0000
  H   H514      1.0  0.55969  0.11746  0.81003  1.0000
  C   C429      1.0  0.76033  0.23105  0.68737  1.0000
  C   C430      1.0  0.74389  0.20246  0.68017  1.0000
  C   C431      1.0  0.71880  0.18440  0.69463  1.0000
  C   C432      1.0  0.71003  0.19458  0.71690  1.0000
  C   C433      1.0  0.72637  0.22321  0.72395  1.0000
  C   C434      1.0  0.75117  0.24140  0.70915  1.0000
  H   H515      1.0  0.75077  0.19409  0.66351  1.0000
  H   H516      1.0  0.70670  0.16243  0.68907  1.0000
  H   H517      1.0  0.71990  0.23140  0.74114  1.0000
  H   H518      1.0  0.76348  0.26327  0.71498  1.0000
  H   H519      1.0  0.64253  0.17060  0.78281  1.0000
  H   H520      1.0  0.61502  0.14902  0.80648  1.0000
  H   H521      1.0  0.75928  0.27714  0.63938  1.0000
  H   H522      1.0  0.51962  0.03134  0.54243  1.0000
  C   C435      1.0  0.63618  0.16825  0.80514  1.0000
  H   H523      1.0  0.58286  0.24339  0.58006  1.0000
  H   H524      1.0  0.59998  0.16009  0.89938  1.0000
  C   C436      1.0  0.53858  0.27754  0.96817  1.0000
  C   C437      1.0  0.61881  0.16029  0.89207  1.0000
  H   H525      1.0  0.53313  0.27843  0.50403  1.0000
  N   N31       1.0  0.57301  0.20190  0.56738  1.0000
  C   C438      1.0  0.59726  0.21126  0.54808  1.0000
  C   C439      1.0  0.54892  0.17680  0.55481  1.0000
  H   H526      1.0  0.60750  0.00129  0.77658  1.0000
  C   C440      1.0  0.57829  0.19459  0.59562  1.0000
  C   C441      1.0  0.60306  0.19368  0.60262  1.0000
  C   C442      1.0  0.55748  0.18643  0.61669  1.0000
  C   C443      1.0  0.60656  0.18509  0.62906  1.0000
  C   C444      1.0  0.56119  0.17780  0.64301  1.0000
  C   C445      1.0  0.58565  0.17708  0.64916  1.0000
  C   C446      1.0  0.50858  0.03369  0.59902  1.0000
  H   H527      1.0  0.52478  0.06563  0.55112  1.0000
  C   C447      1.0  0.54003  0.03749  0.64765  1.0000
  H   H528      1.0  0.54488  0.18079  0.53302  1.0000
  H   H529      1.0  0.55491  0.27622  0.98089  1.0000
  C   C448      1.0  0.52797  0.32165  0.92219  1.0000
  S   S121      1.0  0.55597  0.14853  0.98601  1.0000
  H   H530      1.0  0.56347  0.23165  0.54785  1.0000
  C   C449      1.0  0.57336  0.32376  0.95343  1.0000
  H   H531      1.0  0.61974  0.19888  0.58788  1.0000
  H   H532      1.0  0.53785  0.18598  0.61273  1.0000
  C   C450      1.0  0.66704  0.16041  0.87348  1.0000
  C   C451      1.0  0.55323  0.04476  0.62179  1.0000
  H   H533      1.0  0.58965  0.32334  0.96701  1.0000
  C   C452      1.0  0.50875  0.04302  0.54845  1.0000
  H   H534      1.0  0.67388  0.15488  0.91678  1.0000
  H   H535      1.0  0.60215  0.19419  0.54410  1.0000
  H   H536      1.0  0.67544  0.13931  0.82484  1.0000
  H   H537      1.0  0.55225  0.03992  0.66633  1.0000
  H   H538      1.0  0.69048  0.19482  0.79641  1.0000
  H   H539      1.0  0.70205  0.19062  0.82984  1.0000
  Fe  Fe61      1.0  0.51705  0.31847  0.55455  1.0000
  N   N32       1.0  0.54465  0.30688  0.96532  1.0000
  H   H540      1.0  0.57574  0.05275  0.62055  1.0000
  H   H541      1.0  0.51812  0.26389  0.97868  1.0000
  C   C453      1.0  0.63624  0.15718  0.91112  1.0000
  H   H542      1.0  0.63429  0.18692  0.81038  1.0000
  H   H543      1.0  0.52900  0.16975  0.56645  1.0000
  C   C454      1.0  0.51839  0.20993  0.50336  1.0000
  H   H544      1.0  0.68597  0.16038  0.86731  1.0000
  H   H545      1.0  0.54474  0.17094  0.65857  1.0000
  C   C455      1.0  0.62512  0.16313  0.86361  1.0000
  H   H546      1.0  0.62523  0.18381  0.63382  1.0000
  H   H547      1.0  0.61031  0.16487  0.85008  1.0000
  C   C456      1.0  0.53794  0.04311  0.59777  1.0000
  H   H548      1.0  0.63835  0.12156  0.81761  1.0000
  H   H549      1.0  0.58960  0.03311  0.78863  1.0000
  H   H550      1.0  0.53757  0.26804  0.94740  1.0000
  H   H551      1.0  0.58802  0.16952  0.66931  1.0000
  N   N33       1.0  0.74148  0.25104  0.60291  1.0000
  C   C457      1.0  0.73874  0.26002  0.63136  1.0000
  C   C458      1.0  0.76176  0.24067  0.60372  1.0000
  C   C459      1.0  0.75379  0.27640  0.58490  1.0000
  C   C460      1.0  0.71377  0.22816  0.59314  1.0000
  C   C461      1.0  0.70114  0.22951  0.56766  1.0000
  C   C462      1.0  0.69896  0.20305  0.60888  1.0000
  C   C463      1.0  0.67536  0.20702  0.55867  1.0000
  C   C464      1.0  0.67315  0.18081  0.59978  1.0000
  C   C465      1.0  0.66144  0.18273  0.57466  1.0000
  H   H552      1.0  0.73177  0.24293  0.64693  1.0000
  H   H553      1.0  0.61632  0.23010  0.55630  1.0000
  H   H554      1.0  0.72337  0.26760  0.63177  1.0000
  H   H555      1.0  0.75580  0.22368  0.61932  1.0000
  H   H556      1.0  0.78331  0.25758  0.60972  1.0000
  H   H557      1.0  0.76331  0.23232  0.58309  1.0000
  H   H558      1.0  0.73974  0.28552  0.58346  1.0000
  H   H559      1.0  0.77434  0.29332  0.59332  1.0000
  H   H560      1.0  0.75834  0.27181  0.56356  1.0000
  H   H561      1.0  0.71090  0.24755  0.55412  1.0000
  H   H562      1.0  0.70745  0.20024  0.62825  1.0000
  H   H563      1.0  0.66624  0.20821  0.53898  1.0000
  H   H564      1.0  0.66232  0.16182  0.61216  1.0000
  H   H565      1.0  0.64161  0.16527  0.56742  1.0000
  C   C466      1.0  0.52503  0.25711  0.51114  1.0000
  C   C467      1.0  0.50643  0.32188  0.90673  1.0000
  S   S122      1.0  0.51908  0.08102  0.97352  1.0000
  C   C468      1.0  0.55280  0.00116  0.80951  1.0000
  C   C469      1.0  0.56607  0.22472  0.56897  1.0000
  C   C470      1.0  0.51029  0.24857  0.53634  1.0000
  H   H566      1.0  0.68456  0.21071  0.82651  1.0000
  C   C471      1.0  0.65864  0.14134  0.81401  1.0000
  C   C472      1.0  0.52891  0.23791  0.49479  1.0000
  C   C473      1.0  0.68469  0.19166  0.81896  1.0000
  C   C474      1.0  0.64952  0.16322  0.85340  1.0000
  H   H567      1.0  0.66353  0.14258  0.79135  1.0000
  H   H568      1.0  0.54985  0.05003  0.57867  1.0000
  S   S123      1.0  0.85291  0.31372  0.63011  1.0000
  C   C475      1.0  0.52239  0.30739  0.94818  1.0000
  S   S124      1.0  0.50910  0.11462  0.52142  1.0000
  H   H569      1.0  0.88189  0.32302  0.57161  1.0000
  C   C476      1.0  0.57802  0.01132  0.79504  1.0000
  C   C477      1.0  0.51133  0.02806  0.64958  1.0000
  H   H570      1.0  0.57500  0.31572  0.93265  1.0000
  H   H571      1.0  0.50135  0.02308  0.66989  1.0000
  C   C478      1.0  0.49882  0.01294  0.87756  1.0000
  H   H572      1.0  0.54499  0.01533  0.81428  1.0000
  S   S125      1.0  0.85710  0.32862  0.69611  1.0000
  S   S126      1.0  0.50407  0.27164  0.55772  1.0000
  C   C479      1.0  0.50387  0.20143  0.52871  1.0000
  H   H573      1.0  0.49997  0.05206  0.87652  1.0000
  H   H574      1.0  0.51951  0.02160  0.86819  1.0000
  H   H575      1.0  0.91166  0.32151  0.55841  1.0000
  H   H576      1.0  0.90920  0.32805  0.59511  1.0000
  C   C480      1.0  0.49987  0.22060  0.54499  1.0000
  H   H577      1.0  0.62835  0.44145  0.46034  1.0000
  Fe  Fe62      1.0  0.52501  0.58704  0.30376  1.0000
  S   S127      1.0  0.56041  0.58099  0.28629  1.0000
  H   H578      1.0  0.71520  0.42529  0.27082  1.0000
  S   S128      1.0  0.52322  0.61183  0.34050  1.0000
  Fe  Fe63      1.0  0.62504  0.45145  0.28282  1.0000
  S   S129      1.0  0.65967  0.49414  0.29655  1.0000
  S   S130      1.0  0.61396  0.45124  0.23674  1.0000
  Fe  Fe64      1.0  0.61600  0.42997  0.34309  1.0000
  S   S131      1.0  0.64949  0.47111  0.36023  1.0000
  S   S132      1.0  0.58881  0.39289  0.37103  1.0000
  Fe  Fe65      1.0  0.63082  0.49010  0.33152  1.0000
  S   S133      1.0  0.62074  0.52265  0.34901  1.0000
  Fe  Fe66      1.0  0.67535  0.47119  0.32386  1.0000
  S   S134      1.0  0.72287  0.48609  0.32399  1.0000
  S   S135      1.0  0.59556  0.44877  0.31680  1.0000
  S   S136      1.0  0.64255  0.42873  0.30767  1.0000
  Fe  Fe67      1.0  0.91201  0.49028  0.38957  1.0000
  S   S137      1.0  0.90930  0.44949  0.40070  1.0000
  S   S138      1.0  0.95411  0.52620  0.37385  1.0000
  Fe  Fe68      1.0  0.84728  0.46597  0.39784  1.0000
  S   S139      1.0  0.84151  0.42373  0.40936  1.0000
  S   S140      1.0  0.80598  0.46680  0.40396  1.0000
  Fe  Fe69      1.0  0.88055  0.44693  0.43561  1.0000
  H   H579      1.0  0.50935  0.48402  0.34948  1.0000
  Fe  Fe70      1.0  0.87061  0.43052  0.37345  1.0000
  S   S141      1.0  0.86083  0.39566  0.34254  1.0000
  S   S142      1.0  0.88542  0.48921  0.42586  1.0000
  S   S143      1.0  0.87428  0.47127  0.36037  1.0000
  Fe  Fe71      1.0  0.90116  0.36458  0.16401  1.0000
  S   S144      1.0  0.88961  0.39547  0.14716  1.0000
  S   S145      1.0  0.94651  0.37491  0.17322  1.0000
  S   S146      1.0  0.82258  0.34736  0.15741  1.0000
  Fe  Fe72      1.0  0.85524  0.35882  0.12342  1.0000
  S   S147      1.0  0.84662  0.35526  0.07621  1.0000
  Fe  Fe73      1.0  0.85842  0.38107  0.18257  1.0000
  S   S148      1.0  0.85790  0.41325  0.21174  1.0000
  H   H580      1.0  0.91778  0.40544  0.29883  1.0000
  C   C481      1.0  0.54735  0.44365  0.44131  1.0000
  C   C482      1.0  0.92416  0.38546  0.09108  1.0000
  S   S149      1.0  0.54257  0.39726  0.07419  1.0000
  Fe  Fe74      1.0  0.55078  0.37482  0.03938  1.0000
  H   H581      1.0  0.97144  0.40713  0.22293  1.0000
  Fe  Fe75      1.0  0.53340  0.35994  0.10084  1.0000
  S   S150      1.0  0.54383  0.35583  0.14629  1.0000
  C   C483      1.0  0.86098  0.40117  0.30621  1.0000
  C   C484      1.0  0.85141  0.37816  0.28809  1.0000
  C   C485      1.0  0.85047  0.38163  0.25912  1.0000
  C   C486      1.0  0.85918  0.40821  0.24800  1.0000
  C   C487      1.0  0.86898  0.43128  0.26609  1.0000
  C   C488      1.0  0.87005  0.42782  0.29506  1.0000
  H   H582      1.0  0.84431  0.35745  0.29650  1.0000
  H   H583      1.0  0.84242  0.36359  0.24548  1.0000
  H   H584      1.0  0.87597  0.45195  0.25763  1.0000
  H   H585      1.0  0.87806  0.44583  0.30867  1.0000
  H   H586      1.0  0.50319  0.50902  0.16124  1.0000
  S   S151      1.0  0.88816  0.44196  0.48183  1.0000
  C   C489      1.0  0.84836  0.37247  0.02193  1.0000
  C   C490      1.0  0.85323  0.38088  0.05010  1.0000
  C   C491      1.0  0.86326  0.40909  0.05652  1.0000
  C   C492      1.0  0.86776  0.42846  0.03506  1.0000
  C   C493      1.0  0.96682  0.46682  0.26814  1.0000
  H   H587      1.0  0.84055  0.35069  0.01669  1.0000
  H   H588      1.0  0.86708  0.41592  0.07804  1.0000
  H   H589      1.0  0.51897  0.51561  0.30942  1.0000
  C   C494      1.0  0.74513  0.47946  0.34626  1.0000
  C   C495      1.0  0.73662  0.46732  0.37267  1.0000
  C   C496      1.0  0.75543  0.46351  0.38989  1.0000
  C   C497      1.0  0.78294  0.47154  0.38096  1.0000
  C   C498      1.0  0.79145  0.48375  0.35462  1.0000
  C   C499      1.0  0.77272  0.48774  0.33747  1.0000
  H   H590      1.0  0.71557  0.46093  0.37987  1.0000
  H   H591      1.0  0.74856  0.45418  0.41027  1.0000
  H   H592      1.0  0.81272  0.49079  0.34775  1.0000
  H   H593      1.0  0.77970  0.49746  0.31725  1.0000
  C   C500      1.0  0.59127  0.39593  0.40788  1.0000
  C   C501      1.0  0.61149  0.42054  0.42103  1.0000
  C   C502      1.0  0.61258  0.42246  0.45031  1.0000
  C   C503      1.0  0.59327  0.40002  0.46677  1.0000
  C   C504      1.0  0.57317  0.37526  0.45370  1.0000
  C   C505      1.0  0.57223  0.37325  0.42438  1.0000
  H   H594      1.0  0.62637  0.43804  0.40871  1.0000
  H   H595      1.0  0.57365  0.46966  0.36527  1.0000
  H   H596      1.0  0.53380  0.43414  0.30227  1.0000
  H   H597      1.0  0.55662  0.35403  0.41443  1.0000
  C   C506      1.0  0.59471  0.42418  0.21199  1.0000
  C   C507      1.0  0.58189  0.39572  0.21881  1.0000
  C   C508      1.0  0.56637  0.37513  0.19844  1.0000
  C   C509      1.0  0.56336  0.38271  0.17114  1.0000
  C   C510      1.0  0.57595  0.41118  0.16444  1.0000
  C   C511      1.0  0.59151  0.43175  0.18476  1.0000
  H   H598      1.0  0.58404  0.38957  0.23968  1.0000
  H   H599      1.0  0.55669  0.35319  0.20390  1.0000
  H   H600      1.0  0.57389  0.41735  0.14354  1.0000
  H   H601      1.0  0.60132  0.45370  0.17927  1.0000
  C   C512      1.0  0.67610  0.49639  0.43028  1.0000
  C   C513      1.0  0.97992  0.40188  0.16104  1.0000
  C   C514      1.0  0.98260  0.42163  0.14114  1.0000
  H   H602      1.0  0.93264  0.39931  0.03798  1.0000
  H   H603      1.0  0.96409  0.42188  0.13384  1.0000
  C   C515      1.0  0.57622  0.56399  0.30408  1.0000
  C   C516      1.0  0.57316  0.55906  0.33283  1.0000
  C   C517      1.0  0.58654  0.54601  0.34620  1.0000
  C   C518      1.0  0.60250  0.53703  0.33095  1.0000
  C   C519      1.0  0.60518  0.54154  0.30214  1.0000
  C   C520      1.0  0.59242  0.55527  0.28888  1.0000
  H   H604      1.0  0.56094  0.56583  0.34485  1.0000
  H   H605      1.0  0.58469  0.54312  0.36853  1.0000
  H   H606      1.0  0.61803  0.53547  0.29028  1.0000
  H   H607      1.0  0.59529  0.55939  0.26673  1.0000
  C   C521      1.0  0.94829  0.43740  0.27016  1.0000
  C   C522      1.0  0.96956  0.36997  0.09526  1.0000
  H   H608      1.0  0.53695  0.50815  0.26601  1.0000
  C   C523      1.0  0.51692  0.44176  0.47911  1.0000
  H   H609      1.0  0.93065  0.41196  0.20387  1.0000
  N   N34       1.0  0.54681  0.46509  0.25227  1.0000
  C   C524      1.0  0.98772  0.53869  0.38975  1.0000
  H   H610      1.0  0.90241  0.38196  0.08979  1.0000
  H   H611      1.0  0.84214  0.38317  0.47960  1.0000
  C   C525      1.0  0.53589  0.46948  0.27889  1.0000
  H   H612      1.0  0.67646  0.48022  0.44290  1.0000
  H   H613      1.0  0.78682  0.40604  0.47780  1.0000
  H   H614      1.0  0.83691  0.47883  0.46001  1.0000
  C   C526      1.0  0.71007  0.54480  0.34652  1.0000
  H   H615      1.0  0.69255  0.54919  0.34308  1.0000
  H   H616      1.0  0.91265  0.33254  0.09557  1.0000
  H   H617      1.0  0.58620  0.48432  0.22992  1.0000
  C   C527      1.0  0.52171  0.49748  0.30730  1.0000
  H   H618      1.0  0.92673  0.37920  0.11245  1.0000
  H   H619      1.0  0.50788  0.45310  0.23083  1.0000
  C   C528      1.0  0.53040  0.45184  0.30249  1.0000
  C   C529      1.0  0.85323  0.39192  0.00043  1.0000
  H   H620      1.0  0.52285  0.41982  0.25381  1.0000
  C   C530      1.0  0.95425  0.47438  0.31439  1.0000
  H   H621      1.0  0.95597  0.48850  0.33108  1.0000
  H   H622      1.0  0.81966  0.45962  0.00490  1.0000
  C   C531      1.0  0.95930  0.37689  0.07107  1.0000
  Fe  Fe76      1.0  0.49716  0.62386  0.31285  1.0000
  H   H623      1.0  0.94866  0.44787  0.21431  1.0000
  H   H624      1.0  0.73882  0.52383  0.37138  1.0000
  N   N35       1.0  0.79109  0.41977  0.30828  1.0000
  C   C532      1.0  0.80281  0.41733  0.33544  1.0000
  C   C533      1.0  0.78850  0.39694  0.28988  1.0000
  C   C534      1.0  0.81178  0.44716  0.29587  1.0000
  C   C535      1.0  0.76323  0.41781  0.31075  1.0000
  C   C536      1.0  0.74790  0.41104  0.33619  1.0000
  C   C537      1.0  0.75037  0.42228  0.28707  1.0000
  C   C538      1.0  0.72160  0.40930  0.33767  1.0000
  C   C539      1.0  0.72428  0.42095  0.28893  1.0000
  C   C540      1.0  0.86276  0.42004  0.00690  1.0000
  H   H625      1.0  0.80521  0.43395  0.35032  1.0000
  H   H626      1.0  0.78950  0.39640  0.34516  1.0000
  H   H627      1.0  0.82400  0.41955  0.33302  1.0000
  H   H628      1.0  0.77281  0.37599  0.29821  1.0000
  H   H629      1.0  0.80889  0.39729  0.28784  1.0000
  H   H630      1.0  0.78183  0.39855  0.26837  1.0000
  H   H631      1.0  0.81224  0.46484  0.30750  1.0000
  H   H632      1.0  0.83353  0.45044  0.29613  1.0000
  H   H633      1.0  0.80715  0.44904  0.27367  1.0000
  H   H634      1.0  0.75595  0.40757  0.35543  1.0000
  H   H635      1.0  0.76050  0.42708  0.26693  1.0000
  S   S152      1.0  0.87175  0.35218  0.20053  1.0000
  C   C541      1.0  0.52654  0.40414  0.47490  1.0000
  H   H636      1.0  0.90403  0.38402  0.25605  1.0000
  H   H637      1.0  0.71577  0.50852  0.41243  1.0000
  H   H638      1.0  0.55559  0.41999  0.37765  1.0000
  N   N36       1.0  0.92942  0.36958  0.06933  1.0000
  N   N37       1.0  0.72125  0.55104  0.37541  1.0000
  C   C542      1.0  0.65266  0.49993  0.43117  1.0000
  C   C543      1.0  0.69834  0.53375  0.39521  1.0000
  C   C544      1.0  0.57685  0.48687  0.24954  1.0000
  H   H639      1.0  0.58960  0.48574  0.26712  1.0000
  H   H640      1.0  0.53829  0.54061  0.19503  1.0000
  H   H641      1.0  0.55139  0.43369  0.22944  1.0000
  H   H642      1.0  0.70179  0.52232  0.34147  1.0000
  H   H643      1.0  0.73920  0.58640  0.40328  1.0000
  H   H644      1.0  0.71626  0.58762  0.37720  1.0000
  C   C545      1.0  0.74541  0.54593  0.37683  1.0000
  H   H645      1.0  0.69002  0.41409  0.31571  1.0000
  H   H646      1.0  0.75056  0.59485  0.36762  1.0000
  C   C546      1.0  0.56727  0.48122  0.40625  1.0000
  H   H647      1.0  0.87508  0.45014  0.04035  1.0000
  H   H648      1.0  0.76219  0.55905  0.36161  1.0000
  H   H649      1.0  0.89853  0.36949  0.04116  1.0000
  C   C547      1.0  0.70996  0.41452  0.31419  1.0000
  N   N38       1.0  0.53864  0.43473  0.47047  1.0000
  C   C548      1.0  0.97939  0.39266  0.05013  1.0000
  H   H650      1.0  0.71051  0.40474  0.35737  1.0000
  H   H651      1.0  0.93877  0.40842  0.08892  1.0000
  C   C549      1.0  0.69867  0.51293  0.41256  1.0000
  H   H652      1.0  0.53732  0.46191  0.20818  1.0000
  H   H653      1.0  0.92474  0.37504  0.23443  1.0000
  C   C550      1.0  0.91050  0.33910  0.07423  1.0000
  H   H654      1.0  0.49834  0.43188  0.46491  1.0000
  C   C551      1.0  0.67425  0.53694  0.39695  1.0000
  H   H655      1.0  0.88784  0.33303  0.07219  1.0000
  H   H656      1.0  0.72662  0.55718  0.33082  1.0000
  H   H657      1.0  0.53949  0.40320  0.42428  1.0000
  H   H658      1.0  0.80536  0.43042  0.45064  1.0000
  H   H659      1.0  0.52365  0.54842  0.24132  1.0000
  H   H660      1.0  0.50740  0.39153  0.46192  1.0000
  C   C552      1.0  0.65176  0.52017  0.41455  1.0000
  C   C553      1.0  0.80675  0.42570  0.47299  1.0000
  H   H661      1.0  0.58072  0.44565  0.48238  1.0000
  H   H662      1.0  0.82476  0.42174  0.47467  1.0000
  H   H663      1.0  0.67207  0.55179  0.38394  1.0000
  H   H664      1.0  0.54210  0.39742  0.47055  1.0000
  H   H665      1.0  0.97880  0.47606  0.24939  1.0000
  S   S153      1.0  0.54658  0.34004  0.06731  1.0000
  H   H666      1.0  0.63492  0.48662  0.44436  1.0000
  H   H667      1.0  0.91369  0.42485  0.22654  1.0000
  C   C554      1.0  0.73227  0.58125  0.38117  1.0000
  C   C555      1.0  0.93603  0.44565  0.31714  1.0000
  H   H668      1.0  0.97266  0.51134  0.42532  1.0000
  C   C556      1.0  0.96969  0.48496  0.28997  1.0000
  H   H669      1.0  0.55983  0.48757  0.44837  1.0000
  C   C557      1.0  0.92141  0.37632  0.04198  1.0000
  H   H670      1.0  0.53479  0.48903  0.22530  1.0000
  H   H671      1.0  0.93306  0.38125  0.27069  1.0000
  H   H672      1.0  0.54754  0.33949  0.99199  1.0000
  C   C558      1.0  0.99099  0.52785  0.41497  1.0000
  H   H673      1.0  0.92357  0.43751  0.33597  1.0000
  C   C559      1.0  0.51639  0.47974  0.32994  1.0000
  N   N39       1.0  0.94534  0.41874  0.24654  1.0000
  C   C560      1.0  0.53094  0.46740  0.22821  1.0000
  C   C561      1.0  0.97323  0.42215  0.23949  1.0000
  C   C562      1.0  0.52075  0.45699  0.32756  1.0000
  H   H674      1.0  0.55913  0.43508  0.26529  1.0000
  C   C563      1.0  0.93421  0.42625  0.22180  1.0000
  H   H675      1.0  0.95582  0.35890  0.11255  1.0000
  C   C564      1.0  0.93292  0.42732  0.29543  1.0000
  H   H676      1.0  0.63321  0.52243  0.41458  1.0000
  C   C565      1.0  0.54658  0.42504  0.42029  1.0000
  H   H677      1.0  0.75525  0.55065  0.39791  1.0000
  H   H678      1.0  0.98808  0.44333  0.23122  1.0000
  C   C566      1.0  0.54475  0.43717  0.25030  1.0000
  H   H679      1.0  0.57568  0.50306  0.40063  1.0000
  C   C567      1.0  0.78701  0.45413  0.48634  1.0000
  C   C568      1.0  0.51614  0.52963  0.20051  1.0000
  H   H680      1.0  0.78467  0.45736  0.46372  1.0000
  C   C569      1.0  0.92597  0.38852  0.25237  1.0000
  C   C570      1.0  0.55584  0.43444  0.39319  1.0000
  C   C571      1.0  0.55808  0.47209  0.43344  1.0000
  H   H681      1.0  0.57990  0.50840  0.24953  1.0000
  C   C572      1.0  0.56618  0.46243  0.38621  1.0000
  H   H682      1.0  0.55836  0.35766  0.46614  1.0000
  H   H683      1.0  0.92540  0.36545  0.02455  1.0000
  H   H684      1.0  0.52804  0.45180  0.00742  1.0000
  S   S154      1.0  0.50608  0.35123  0.02474  1.0000
  S   S155      1.0  0.58656  0.39564  0.00810  1.0000
  C   C573      1.0  0.53170  0.49277  0.28229  1.0000
  H   H685      1.0  0.98347  0.50741  0.28775  1.0000
  H   H686      1.0  0.78283  0.44468  0.01075  1.0000
  H   H687      1.0  0.98305  0.41828  0.25803  1.0000
  H   H688      1.0  0.80403  0.48166  0.00421  1.0000
  S   S156      1.0  0.50310  0.60291  0.27519  1.0000
  C   C574      1.0  0.56352  0.44953  0.48904  1.0000
  H   H689      1.0  0.85591  0.47165  0.48638  1.0000
  C   C575      1.0  0.80066  0.46065  0.99823  1.0000
  H   H690      1.0  0.51696  0.44343  0.34536  1.0000
  C   C576      1.0  0.83736  0.47442  0.48262  1.0000
  H   H691      1.0  0.97368  0.39908  0.03111  1.0000
  C   C577      1.0  0.50798  0.53407  0.22661  1.0000
  H   H692      1.0  0.57220  0.47258  0.48922  1.0000
  H   H693      1.0  0.52494  0.46469  0.47946  1.0000
  Fe  Fe77      1.0  0.49712  0.37208  0.06065  1.0000
  C   C578      1.0  0.92316  0.42379  0.73417  1.0000
  C   C579      1.0  0.96819  0.40571  0.56264  1.0000
  S   S157      1.0  0.51878  0.54047  0.82315  1.0000
  S   S158      1.0  0.51604  0.34190  0.51623  1.0000
  H   H694      1.0  0.51418  0.42242  0.60902  1.0000
  Fe  Fe78      1.0  0.61553  0.42939  0.78851  1.0000
  S   S159      1.0  0.65442  0.47043  0.79923  1.0000
  S   S160      1.0  0.61313  0.40731  0.74724  1.0000
  Fe  Fe79      1.0  0.59419  0.42199  0.84915  1.0000
  S   S161      1.0  0.63145  0.46203  0.86353  1.0000
  S   S162      1.0  0.55905  0.39574  0.87924  1.0000
  Fe  Fe80      1.0  0.62426  0.47940  0.82365  1.0000
  S   S163      1.0  0.62485  0.52127  0.82443  1.0000
  Fe  Fe81      1.0  0.65776  0.44913  0.83816  1.0000
  S   S164      1.0  0.69137  0.43976  0.85551  1.0000
  S   S165      1.0  0.58549  0.43971  0.81048  1.0000
  S   S166      1.0  0.62018  0.40773  0.82621  1.0000
  Fe  Fe82      1.0  0.91114  0.48081  0.88640  1.0000
  S   S167      1.0  0.89651  0.43798  0.90417  1.0000
  S   S168      1.0  0.95618  0.50380  0.86917  1.0000
  Fe  Fe83      1.0  0.84957  0.47075  0.88627  1.0000
  S   S169      1.0  0.83172  0.42726  0.90371  1.0000
  S   S170      1.0  0.82402  0.49204  0.87509  1.0000
  Fe  Fe84      1.0  0.86914  0.44629  0.93307  1.0000
  C   C580      1.0  0.99125  0.53813  0.91190  1.0000
  Fe  Fe85      1.0  0.86089  0.42333  0.87314  1.0000
  S   S171      1.0  0.85141  0.38606  0.84547  1.0000
  S   S172      1.0  0.88590  0.49043  0.91683  1.0000
  S   S173      1.0  0.87641  0.46560  0.85418  1.0000
  H   H695      1.0  0.50622  0.41712  0.65807  1.0000
  S   S174      1.0  0.87684  0.37921  0.64837  1.0000
  H   H696      1.0  0.52025  0.39814  0.49694  1.0000
  Fe  Fe86      1.0  0.49756  0.36213  0.54370  1.0000
  Fe  Fe87      1.0  0.84182  0.34707  0.62132  1.0000
  H   H697      1.0  0.70331  0.45972  0.93478  1.0000
  Fe  Fe88      1.0  0.84555  0.36101  0.68370  1.0000
  S   S175      1.0  0.84180  0.39109  0.71342  1.0000
  H   H698      1.0  0.82160  0.47589  0.58513  1.0000
  C   C581      1.0  0.81000  0.41832  0.53154  1.0000
  C   C582      1.0  0.55763  0.45143  0.97838  1.0000
  S   S176      1.0  0.53973  0.39725  0.55671  1.0000
  Fe  Fe89      1.0  0.55801  0.37588  0.53165  1.0000
  H   H699      1.0  0.69317  0.41251  0.71942  1.0000
  Fe  Fe90      1.0  0.53773  0.37037  0.59292  1.0000
  S   S177      1.0  0.54329  0.39265  0.63503  1.0000
  C   C583      1.0  0.84659  0.38666  0.80895  1.0000
  C   C584      1.0  0.84459  0.40842  0.79613  1.0000
  C   C585      1.0  0.84271  0.40924  0.76689  1.0000
  C   C586      1.0  0.84268  0.38828  0.75015  1.0000
  C   C587      1.0  0.84409  0.36619  0.76298  1.0000
  C   C588      1.0  0.84597  0.36537  0.79224  1.0000
  H   H700      1.0  0.84471  0.42477  0.80870  1.0000
  H   H701      1.0  0.84158  0.42638  0.75716  1.0000
  H   H702      1.0  0.84387  0.34980  0.75038  1.0000
  C   C589      1.0  0.90520  0.33263  0.57343  1.0000
  C   C590      1.0  0.87167  0.41514  0.50734  1.0000
  H   H703      1.0  0.57936  0.34624  0.95135  1.0000
  C   C591      1.0  0.83693  0.36797  0.52211  1.0000
  C   C592      1.0  0.84632  0.37416  0.54993  1.0000
  C   C593      1.0  0.86857  0.40095  0.55632  1.0000
  C   C594      1.0  0.88116  0.42125  0.53514  1.0000
  H   H704      1.0  0.58910  0.53360  0.91339  1.0000
  H   H705      1.0  0.74965  0.49292  0.91472  1.0000
  H   H706      1.0  0.87567  0.40629  0.57767  1.0000
  H   H707      1.0  0.89813  0.44202  0.54039  1.0000
  C   C595      1.0  0.72841  0.45500  0.86061  1.0000
  C   C596      1.0  0.73880  0.43810  0.87138  1.0000
  C   C597      1.0  0.76795  0.44886  0.87541  1.0000
  C   C598      1.0  0.78716  0.47684  0.86891  1.0000
  C   C599      1.0  0.77677  0.49372  0.85810  1.0000
  C   C600      1.0  0.74762  0.48286  0.85376  1.0000
  H   H708      1.0  0.72417  0.41648  0.87664  1.0000
  H   H709      1.0  0.77551  0.43560  0.88381  1.0000
  H   H710      1.0  0.79142  0.51540  0.85304  1.0000
  H   H711      1.0  0.74006  0.49611  0.84533  1.0000
  C   C601      1.0  0.56748  0.39716  0.91495  1.0000
  C   C602      1.0  0.54572  0.38730  0.93456  1.0000
  C   C603      1.0  0.55140  0.38703  0.96306  1.0000
  C   C604      1.0  0.96835  0.40357  0.64443  1.0000
  C   C605      1.0  0.60089  0.40722  0.95277  1.0000
  C   C606      1.0  0.59519  0.40742  0.92413  1.0000
  H   H712      1.0  0.52428  0.37966  0.92769  1.0000
  H   H713      1.0  0.90467  0.41140  0.72124  1.0000
  H   H714      1.0  0.62231  0.41489  0.95973  1.0000
  H   H715      1.0  0.61216  0.41502  0.90915  1.0000
  C   C607      1.0  0.59335  0.40338  0.71633  1.0000
  C   C608      1.0  0.57622  0.41538  0.71344  1.0000
  C   C609      1.0  0.56115  0.41185  0.68842  1.0000
  C   C610      1.0  0.56292  0.39627  0.66599  1.0000
  C   C611      1.0  0.58001  0.38424  0.66889  1.0000
  C   C612      1.0  0.59513  0.38782  0.69390  1.0000
  H   H716      1.0  0.57468  0.42744  0.73044  1.0000
  H   H717      1.0  0.54812  0.42134  0.68644  1.0000
  H   H718      1.0  0.58158  0.37219  0.65189  1.0000
  H   H719      1.0  0.60824  0.37839  0.69587  1.0000
  H   H720      1.0  0.95077  0.40723  0.64323  1.0000
  C   C613      1.0  0.96384  0.37709  0.65196  1.0000
  H   H721      1.0  0.82037  0.47296  0.93057  1.0000
  C   C614      1.0  0.84955  0.38828  0.50089  1.0000
  C   C615      1.0  0.96520  0.36238  0.57803  1.0000
  C   C616      1.0  0.54887  0.53605  0.82299  1.0000
  C   C617      1.0  0.57644  0.55852  0.82077  1.0000
  C   C618      1.0  0.59940  0.55360  0.82081  1.0000
  C   C619      1.0  0.59512  0.52620  0.82255  1.0000
  C   C620      1.0  0.56751  0.50372  0.82443  1.0000
  C   C621      1.0  0.54464  0.50867  0.82503  1.0000
  H   H722      1.0  0.58012  0.57969  0.81924  1.0000
  H   H723      1.0  0.62066  0.57119  0.81949  1.0000
  H   H724      1.0  0.56375  0.48252  0.82572  1.0000
  H   H725      1.0  0.52344  0.49109  0.82684  1.0000
  H   H726      1.0  0.98395  0.35265  0.65979  1.0000
  H   H727      1.0  0.95151  0.43983  0.69941  1.0000
  C   C622      1.0  0.77087  0.45819  0.95941  1.0000
  H   H728      1.0  0.89941  0.41156  0.77154  1.0000
  H   H729      1.0  0.97230  0.53291  0.92340  1.0000
  H   H730      1.0  0.88718  0.36646  0.58913  1.0000
  C   C623      1.0  0.77230  0.47776  0.93918  1.0000
  H   H731      1.0  0.49974  0.53419  0.76660  1.0000
  S   S178      1.0  0.92966  0.34838  0.65903  1.0000
  H   H732      1.0  0.90090  0.44041  0.80772  1.0000
  H   H733      1.0  0.56016  0.50912  0.89136  1.0000
  H   H734      1.0  0.59545  0.52467  0.87952  1.0000
  N   N40       1.0  0.69170  0.41144  0.76436  1.0000
  H   H735      1.0  0.84728  0.34833  0.80196  1.0000
  C   C624      1.0  0.67142  0.39338  0.78597  1.0000
  C   C625      1.0  0.69497  0.43985  0.76633  1.0000
  C   C626      1.0  0.71921  0.41306  0.76911  1.0000
  C   C627      1.0  0.73109  0.40205  0.75002  1.0000
  C   C628      1.0  0.73482  0.42559  0.79377  1.0000
  C   C629      1.0  0.75707  0.40384  0.75544  1.0000
  C   C630      1.0  0.76081  0.42743  0.79890  1.0000
  C   C631      1.0  0.77190  0.41652  0.77980  1.0000
  H   H736      1.0  0.81735  0.43126  0.60133  1.0000
  H   H737      1.0  0.65875  0.39934  0.73350  1.0000
  H   H738      1.0  0.90406  0.39767  0.81383  1.0000
  H   H739      1.0  0.66891  0.37205  0.78593  1.0000
  H   H740      1.0  0.76678  0.43598  0.49350  1.0000
  H   H741      1.0  0.67817  0.40216  0.80733  1.0000
  H   H742      1.0  0.71170  0.45482  0.75203  1.0000
  C   C632      1.0  0.79041  0.42734  0.96109  1.0000
  H   H743      1.0  0.70039  0.44869  0.78780  1.0000
  H   H744      1.0  0.72078  0.39192  0.73079  1.0000
  H   H745      1.0  0.72691  0.43398  0.80935  1.0000
  H   H746      1.0  0.97725  0.47895  0.82192  1.0000
  C   C633      1.0  0.94944  0.43993  0.72188  1.0000
  H   H747      1.0  0.79199  0.41784  0.78394  1.0000
  N   N41       1.0  0.93995  0.43984  0.81132  1.0000
  C   C634      1.0  0.96669  0.45619  0.82714  1.0000
  C   C635      1.0  0.92197  0.45211  0.81768  1.0000
  C   C636      1.0  0.92582  0.41064  0.82207  1.0000
  C   C637      1.0  0.94381  0.43999  0.78076  1.0000
  H   H748      1.0  0.92327  0.40999  0.84517  1.0000
  C   C638      1.0  0.92033  0.42388  0.76310  1.0000
  N   N42       1.0  0.91998  0.36329  0.56790  1.0000
  H   H749      1.0  0.98142  0.44820  0.82340  1.0000
  S   S179      1.0  0.56029  0.35210  0.56901  1.0000
  H   H750      1.0  0.91935  0.35980  0.52316  1.0000
  H   H751      1.0  0.96289  0.45523  0.85007  1.0000
  S   S180      1.0  0.80949  0.33193  0.65566  1.0000
  H   H752      1.0  0.93188  0.47434  0.81070  1.0000
  H   H753      1.0  0.81971  0.34733  0.51691  1.0000
  H   H754      1.0  0.77242  0.43736  0.81784  1.0000
  C   C639      1.0  0.98914  0.52650  0.88544  1.0000
  H   H755      1.0  0.98931  0.46985  0.77916  1.0000
  H   H756      1.0  0.55840  0.44222  0.51103  1.0000
  H   H757      1.0  0.54888  0.33344  0.91352  1.0000
  C   C640      1.0  0.52294  0.46570  0.72585  1.0000
  S   S181      1.0  0.50988  0.61010  0.84429  1.0000
  C   C641      1.0  0.97035  0.45646  0.76756  1.0000
  H   H758      1.0  0.55033  0.46063  0.88616  1.0000
  S   S182      1.0  0.86776  0.44535  0.98100  1.0000
  C   C642      1.0  0.57196  0.46168  0.95319  1.0000
  H   H759      1.0  0.54568  0.50467  0.93644  1.0000
  C   C643      1.0  0.54987  0.49003  0.94743  1.0000
  H   H760      1.0  0.84915  0.38504  0.97894  1.0000
  H   H761      1.0  0.58520  0.45350  0.94629  1.0000
  H   H762      1.0  0.93779  0.39996  0.81662  1.0000
  H   H763      1.0  0.91928  0.39906  0.58569  1.0000
  H   H764      1.0  0.50910  0.43402  0.50056  1.0000
  S   S183      1.0  0.50108  0.59267  0.77817  1.0000
  Fe  Fe91      1.0  0.88625  0.34496  0.65898  1.0000
  C   C644      1.0  0.99459  0.37606  0.57968  1.0000
  H   H765      1.0  0.62730  0.51227  0.89537  1.0000
  H   H766      1.0  0.58417  0.47639  0.86943  1.0000
  C   C645      1.0  0.61495  0.50260  0.91474  1.0000
  C   C646      1.0  0.58203  0.51592  0.89838  1.0000
  N   N43       1.0  0.58445  0.49236  0.91056  1.0000
  C   C647      1.0  0.57325  0.46928  0.88987  1.0000
  H   H767      1.0  0.61926  0.48547  0.92012  1.0000
  H   H768      1.0  0.62383  0.51862  0.93161  1.0000
  H   H769      1.0  0.57603  0.45157  0.89684  1.0000
  H   H770      1.0  0.53438  0.37958  0.97774  1.0000
  H   H771      1.0  0.53738  0.45849  0.72002  1.0000
  H   H772      1.0  0.76587  0.39533  0.74071  1.0000
  H   H773      1.0  0.50140  0.49506  0.63393  1.0000
  C   C648      1.0  0.81585  0.43469  0.57928  1.0000
  C   C649      1.0  0.56895  0.48172  0.93714  1.0000
  C   C650      1.0  0.91085  0.36741  0.53996  1.0000
  H   H774      1.0  0.91765  0.38974  0.53562  1.0000
  Fe  Fe92      1.0  0.50459  0.57320  0.81847  1.0000
  Fe  Fe93      1.0  0.50133  0.62696  0.80446  1.0000
  H   H775      1.0  0.67505  0.43957  0.76081  1.0000
  C   C651      1.0  0.81249  0.44375  0.52141  1.0000
  H   H776      1.0  0.78480  0.42230  0.93867  1.0000
  C   C652      1.0  0.95107  0.37681  0.56917  1.0000
  C   C653      1.0  0.82206  0.47632  0.95351  1.0000
  C   C654      1.0  0.53541  0.47936  0.97253  1.0000
  H   H777      1.0  0.95894  0.41826  0.55665  1.0000
  C   C655      1.0  0.67908  0.39968  0.73667  1.0000
  H   H778      1.0  0.95780  0.38471  0.71188  1.0000
  C   C656      1.0  0.97297  0.45629  0.73852  1.0000
  H   H779      1.0  0.80986  0.39450  0.56732  1.0000
  H   H780      1.0  0.67406  0.37755  0.73442  1.0000
  C   C657      1.0  0.97388  0.39459  0.72791  1.0000
  H   H781      1.0  0.79167  0.49240  0.92886  1.0000
  H   H782      1.0  0.54566  0.48598  0.76334  1.0000
  S   S184      1.0  0.82900  0.34801  0.57593  1.0000
  C   C658      1.0  0.74816  0.47834  0.93076  1.0000
  S   S185      1.0  0.59438  0.40450  0.50341  1.0000
  H   H783      1.0  0.84037  0.47433  0.96047  1.0000
  C   C659      1.0  0.98719  0.37303  0.65391  1.0000
  C   C660      1.0  0.57896  0.39677  0.97236  1.0000
  H   H784      1.0  0.65020  0.39103  0.78260  1.0000
  C   C661      1.0  0.81161  0.41398  0.56006  1.0000
  C   C662      1.0  0.72201  0.45962  0.94204  1.0000
  H   H785      1.0  0.98114  0.39673  0.79822  1.0000
  H   H786      1.0  0.81862  0.48415  0.53554  1.0000
  C   C663      1.0  0.81657  0.46432  0.54163  1.0000
  N   N44       1.0  0.79566  0.45587  0.96780  1.0000
  H   H787      1.0  0.80710  0.40151  0.51789  1.0000
  C   C664      1.0  0.91050  0.37623  0.58913  1.0000
  C   C665      1.0  0.96639  0.38901  0.75586  1.0000
  H   H788      1.0  0.91823  0.45182  0.84049  1.0000
  H   H789      1.0  0.94458  0.37494  0.76142  1.0000
  H   H790      1.0  0.80929  0.42526  0.96538  1.0000
  C   C666      1.0  0.52755  0.48109  0.75026  1.0000
  C   C667      1.0  0.81827  0.45980  0.57010  1.0000
  H   H791      1.0  0.95407  0.34072  0.58454  1.0000
  C   C668      1.0  0.99576  0.42538  0.63812  1.0000
  C   C669      1.0  0.98698  0.40141  0.77650  1.0000
  C   C670      1.0  0.74396  0.43983  0.97096  1.0000
  H   H792      1.0  0.82765  0.49836  0.95786  1.0000
  H   H793      1.0  0.78977  0.47316  0.49721  1.0000
  H   H794      1.0  0.51371  0.50262  0.77678  1.0000
  H   H795      1.0  0.91703  0.37353  0.61036  1.0000
  H   H796      1.0  0.88745  0.35598  0.53792  1.0000
  C   C671      1.0  0.50906  0.49046  0.75787  1.0000
  H   H797      1.0  0.52108  0.48605  0.98011  1.0000
  C   C672      1.0  0.71994  0.44056  0.96230  1.0000
  H   H798      1.0  0.51044  0.45575  0.63417  1.0000
  C   C673      1.0  0.53932  0.46015  0.98800  1.0000
  H   H799      1.0  0.51140  0.33352  0.88730  1.0000
  H   H800      1.0  0.56062  0.43646  0.99052  1.0000
  H   H801      1.0  0.77301  0.41079  0.97358  1.0000
  H   H802      1.0  0.84127  0.49367  0.49383  1.0000
  H   H803      1.0  0.99332  0.46903  0.72879  1.0000
  H   H804      1.0  0.69951  0.42605  0.97106  1.0000
  H   H805      1.0  0.74123  0.42443  0.98645  1.0000
  H   H806      1.0  0.51191  0.66182  0.69771  1.0000
  N   N45       1.0  0.81089  0.44917  0.49139  1.0000
  C   C674      1.0  0.49991  0.45983  0.70893  1.0000
  Fe  Fe94      1.0  0.51731  0.86333  0.22271  1.0000
  S   S186      1.0  0.54839  0.90704  0.20554  1.0000
  C   C675      1.0  0.51995  0.97794  0.20858  1.0000
  S   S187      1.0  0.52774  0.77670  0.24662  1.0000
  H   H807      1.0  0.50646  0.85017  0.12125  1.0000
  H   H808      1.0  0.57054  0.97987  0.27752  1.0000
  C   C676      1.0  0.57280  0.97567  0.25593  1.0000
  C   C677      1.0  0.56344  0.94184  0.21882  1.0000
  C   C678      1.0  0.55966  0.94764  0.24636  1.0000
  C   C679      1.0  0.57989  0.96444  0.20087  1.0000
  H   H809      1.0  0.54730  0.93055  0.26051  1.0000
  H   H810      1.0  0.58346  0.96030  0.17970  1.0000
  C   C680      1.0  0.54222  0.94682  0.11631  1.0000
  C   C681      1.0  0.53312  0.73153  0.26324  1.0000
  H   H811      1.0  0.54730  0.74870  0.33065  1.0000
  H   H812      1.0  0.55249  0.95111  0.13642  1.0000
  H   H813      1.0  0.55328  0.74236  0.25283  1.0000
  H   H814      1.0  0.53900  0.69733  0.27719  1.0000
  H   H815      1.0  0.51977  0.86834  0.08880  1.0000
  C   C682      1.0  0.50573  0.89249  0.14813  1.0000
  C   C683      1.0  0.52499  0.70585  0.27694  1.0000
  C   C684      1.0  0.52588  0.91891  0.10617  1.0000
  H   H816      1.0  0.53177  0.98768  0.22823  1.0000
  C   C685      1.0  0.55051  0.89951  0.13222  1.0000
  N   N46       1.0  0.52260  0.89497  0.12312  1.0000
  C   C686      1.0  0.53173  0.96557  0.07527  1.0000
  H   H817      1.0  0.56164  0.91757  0.14666  1.0000
  H   H818      1.0  0.54851  0.88123  0.14420  1.0000
  H   H819      1.0  0.56451  0.90309  0.11407  1.0000
  H   H820      1.0  0.49959  0.80310  0.37481  1.0000
  S   S188      1.0  0.51609  0.82804  0.19759  1.0000
  H   H821      1.0  0.52902  0.96542  0.20001  1.0000
  H   H822      1.0  0.55794  0.99088  0.10900  1.0000
  C   C687      1.0  0.59249  0.99245  0.21028  1.0000
  C   C688      1.0  0.51568  0.74357  0.26328  1.0000
  Fe  Fe95      1.0  0.50725  0.80358  0.23770  1.0000
  C   C689      1.0  0.49950  0.69209  0.29145  1.0000
  H   H823      1.0  0.51520  0.81205  0.32592  1.0000
  C   C690      1.0  0.52800  0.74493  0.34068  1.0000
  H   H824      1.0  0.51638  0.91143  0.16160  1.0000
  C   C691      1.0  0.54526  0.96974  0.10091  1.0000
  H   H825      1.0  0.52902  0.77965  0.32093  1.0000
  C   C692      1.0  0.50823  0.86770  0.10808  1.0000
  H   H826      1.0  0.53400  0.98339  0.06346  1.0000
  C   C693      1.0  0.51359  0.72171  0.35795  1.0000
  H   H827      1.0  0.51071  0.99020  0.38056  1.0000
  C   C694      1.0  0.50737  0.98759  0.16168  1.0000
  H   H828      1.0  0.52166  0.70751  0.36127  1.0000
  H   H829      1.0  0.50210  0.87433  0.16136  1.0000
  S   S189      1.0  0.51294  0.84059  0.26338  1.0000
  C   C695      1.0  0.51180  0.91537  0.08022  1.0000
  C   C696      1.0  0.51704  0.76255  0.33516  1.0000
  C   C697      1.0  0.51485  0.93845  0.06509  1.0000
  H   H830      1.0  0.50218  0.71864  0.20373  1.0000
  H   H831      1.0  0.49772  0.96349  0.21475  1.0000
  H   H832      1.0  0.50385  0.93522  0.04537  1.0000
  H   H833      1.0  0.49806  0.89499  0.07117  1.0000
  Fe  Fe96      1.0  0.51680  0.85758  0.73643  1.0000
  S   S190      1.0  0.56065  0.89475  0.72953  1.0000
  H   H834      1.0  0.56838  0.91851  0.82216  1.0000
  C   C698      1.0  0.54874  0.89689  0.64502  1.0000
  H   H835      1.0  0.58137  0.95190  0.78971  1.0000
  N   N47       1.0  0.52962  0.90873  0.64620  1.0000
  C   C699      1.0  0.56917  0.97360  0.72416  1.0000
  C   C700      1.0  0.57335  0.93123  0.72492  1.0000
  C   C701      1.0  0.55699  0.94421  0.72843  1.0000
  C   C702      1.0  0.60149  0.94771  0.71693  1.0000
  H   H836      1.0  0.53513  0.93178  0.73437  1.0000
  H   H837      1.0  0.61437  0.93809  0.71407  1.0000
  H   H838      1.0  0.50074  0.68287  0.92292  1.0000
  H   H839      1.0  0.54809  0.73123  0.77493  1.0000
  C   C703      1.0  0.57308  0.96515  0.79626  1.0000
  H   H840      1.0  0.63512  0.98868  0.70584  1.0000
  H   H841      1.0  0.52785  0.76141  0.76223  1.0000
  C   C704      1.0  0.54752  0.95415  0.81145  1.0000
  C   C705      1.0  0.61332  0.97652  0.71227  1.0000
  C   C706      1.0  0.50438  0.89238  0.57044  1.0000
  H   H842      1.0  0.50085  0.67989  0.72067  1.0000
  H   H843      1.0  0.52126  0.89542  0.68915  1.0000
  C   C707      1.0  0.52197  0.90660  0.79414  1.0000
  H   H844      1.0  0.50019  0.71357  0.83286  1.0000
  H   H845      1.0  0.56046  0.93101  0.85357  1.0000
  C   C708      1.0  0.59757  0.98988  0.71605  1.0000
  H   H846      1.0  0.56588  0.90803  0.62953  1.0000
  C   C709      1.0  0.51373  0.90502  0.62002  1.0000
  H   H847      1.0  0.56091  0.95065  0.63446  1.0000
  S   S191      1.0  0.50342  0.83241  0.77631  1.0000
  H   H848      1.0  0.53943  0.89489  0.84292  1.0000
  C   C710      1.0  0.51948  0.89509  0.59491  1.0000
  C   C711      1.0  0.53760  0.97301  0.81762  1.0000
  H   H849      1.0  0.56093  0.94315  0.67071  1.0000
  C   C712      1.0  0.52548  0.72245  0.77500  1.0000
  C   C713      1.0  0.58817  0.99338  0.78846  1.0000
  C   C714      1.0  0.50712  0.91658  0.83746  1.0000
  H   H850      1.0  0.55667  0.98361  0.72698  1.0000
  H   H851      1.0  0.51808  0.96653  0.82844  1.0000
  H   H852      1.0  0.53519  0.88881  0.59365  1.0000
  H   H853      1.0  0.50937  0.88394  0.79941  1.0000
  C   C715      1.0  0.52279  0.69044  0.87170  1.0000
  H   H854      1.0  0.55950  0.89902  0.66542  1.0000
  S   S192      1.0  0.52348  0.67339  0.79182  1.0000
  N   N48       1.0  0.53204  0.92419  0.81958  1.0000
  H   H855      1.0  0.52798  0.67339  0.87418  1.0000
  C   C716      1.0  0.50986  0.89470  0.66967  1.0000
  H   H856      1.0  0.49715  0.90461  0.67498  1.0000
  H   H857      1.0  0.53729  0.70827  0.88531  1.0000
  H   H858      1.0  0.53688  0.87407  0.64001  1.0000
  H   H859      1.0  0.51306  0.92942  0.85683  1.0000
  C   C717      1.0  0.54700  0.93912  0.65234  1.0000
  C   C718      1.0  0.51406  0.73971  0.76790  1.0000
  H   H860      1.0  0.53392  0.94886  0.65697  1.0000
  C   C719      1.0  0.50795  0.69406  0.78220  1.0000
  H   H861      1.0  0.53957  0.90915  0.78066  1.0000
  H   H862      1.0  0.52795  0.69747  0.84966  1.0000
  H   H863      1.0  0.50832  0.88382  0.55172  1.0000
  H   H864      1.0  0.50819  0.91179  0.78140  1.0000
  C   C720      1.0  0.55093  0.91694  0.83523  1.0000
