data_image0
_chemical_formula_structural       FeS2FeSCFeSFeS2HSCFeSCH4SHSH3C6H4C6H2C5H3CH2C3NH2C2HCFeCH4CH7C3H4CSHNH2C2H3C2NH5CH3SHC2H2C3FeH2CH2C2SC3SCH2NCHCHCHCNCH6C3SCH4CHFeSCFeSCFeSFeCS2HSCSH2C6H5NCHCHC2NH2FeHCHSHSCH2C2HC2HCHC2HSHCH3C2H2C3HC2HC2HCHCH2SC2HCHC2HCH2CHCH2CH2CHCHFeSH4CNCSHFeH2SCHNFeSH2SCFeSCFeC3H4SC6H4SHCHCH5CH2FeHCHCHCH2C4HCH4C3SFeHSHCNCSCH2CH3CHSCHCH4C2HCH4SHCSC2HC2HCHS2FeCH3CHCFeCH2FeCSHFeS2FeSFeS2H4CSC6H4C3HCH2C2SC5H2C3H6CH4CSCH2C3NH2CHCH2SCFeNHCHCH2NHSHCFeH8C2SCFeS2FeS2FeSFeCS2HSHSHFeSHCH3SCHC2SC7H2C6HCH2C6H4C3SNC5H8SCH4CHC3FeH5SHNHCHFeHCSC2HCH2CH4CHNCHCHC2HCHCH2CH2NHFeS2FeS2FeSFeS3FeSCSCFeSC6H4C3HC2H2CH2C2H5C3H6C8HC2H3CHSCH2SHC5HC2HCH2C2SH4CH2CH4C2SH2CHCH2CHCHFeCSCH3N2HCFeH4CH3SCHCFeS2FeS2FeSFeS5H3C2HCHC7HC7H4C6H4C4H4CHFeH2CHC2HC2H2C3HCH2FeH4NCHC2FeH3CHNHC4SC3H2CH7SH3SHNCHC2H2SHCH2CHCSH4CH4C2H2C4NHCHCHCH2FeCHFeS2CFeS2FeS2FeSFeHS3C6H4C2HCH2C6H4CHC2NCSC4HC2H4NCH7CH2C2HCH2C2H4C4H3C2HCH5C3H4NHC2NH2C4H2C2HC2NHCH2SC2H4C2HCHCH4NSHFeC2SCHC3H3C2H5CH2C2H2C2H2CH8CHFeH2C2HFeS2FeCNCHFeHS2NHCH2CH2C6H8CNCHCH3CHC3H2C2HCH3FeCHSH2C3SH4CHCH2CHC3H2C2H6FeSHCHCH2SCHFeHSH3CH2CSH2SHSH2C4N2HCFeCSHCSC6H4CSH2SH2C2SFeH2CH4SH3CH2CHC3NC9H2C2HCH3FeCH3C2H2NC2HCH5C3H2C2HCH6SHC2FeSHCH2C2FeH2FeS2CFe2S3C7FeH3SC6H2FeH3C2H2C3HC2H2CHC2H2C3HNHSCSNH2CH4CH2SHCHCH5CHNSH2C2H3CH3CH5C2H2C2FeCHFeCSHC2HSCSCHSFeH2CH2SC2HFe2C2HSHFeHCHCHSC6SH3SCHC2NCFeH6CHSH3CH3SCSCH3CHSC2H5SH
_chemical_formula_sum              "Fe80 S160 C600 H720 N40"
_cell_length_a       37.8121
_cell_length_b       37.7081
_cell_length_c       34.583
_cell_angle_alpha    89.8979
_cell_angle_beta     90.0979
_cell_angle_gamma    90.5391

_space_group_name_H-M_alt    "P 1"
_space_group_IT_number       1

loop_
  _space_group_symop_operation_xyz
  'x, y, z'

loop_
  _atom_site_type_symbol
  _atom_site_label
  _atom_site_symmetry_multiplicity
  _atom_site_fract_x
  _atom_site_fract_y
  _atom_site_fract_z
  _atom_site_occupancy
  Fe  Fe1       1.0  0.06704  0.34591  0.13283  1.0000
  S   S1        1.0  0.10183  0.29824  0.12975  1.0000
  S   S2        1.0  0.06466  0.38656  0.08436  1.0000
  Fe  Fe2       1.0  0.03891  0.32577  0.21410  1.0000
  S   S3        1.0  0.07094  0.27574  0.21583  1.0000
  C   C1        1.0  0.28879  0.33073  0.31142  1.0000
  Fe  Fe3       1.0  0.11438  0.31028  0.19200  1.0000
  S   S4        1.0  0.16814  0.31799  0.21858  1.0000
  Fe  Fe4       1.0  0.05490  0.26826  0.15346  1.0000
  S   S5        1.0  0.01890  0.31597  0.15362  1.0000
  S   S6        1.0  0.08335  0.36023  0.19286  1.0000
  H   H1        1.0  0.09799  0.40761  0.25866  1.0000
  S   S7        1.0  0.09018  0.06160  0.11553  1.0000
  C   C2        1.0  0.22268  0.29969  0.32575  1.0000
  Fe  Fe5       1.0  0.18756  0.45207  0.38402  1.0000
  S   S8        1.0  0.15342  0.40326  0.37557  1.0000
  C   C3        1.0  0.33891  0.48071  0.45979  1.0000
  H   H2        1.0  0.25113  0.05384  0.42365  1.0000
  H   H3        1.0  0.11522  0.48259  0.99831  1.0000
  H   H4        1.0  0.23851  0.38318  0.39413  1.0000
  H   H5        1.0  0.02725  0.03271  0.23164  1.0000
  S   S9        1.0  0.22496  0.46134  0.43361  1.0000
  H   H6        1.0  0.01605  0.42246  0.14587  1.0000
  S   S10       1.0  0.22625  0.47056  0.33966  1.0000
  H   H7        1.0  0.10913  0.47610  0.33083  1.0000
  H   H8        1.0  0.03384  0.33071  0.48655  1.0000
  H   H9        1.0  0.20828  0.09495  0.08296  1.0000
  C   C4        1.0  0.15839  0.37940  0.33211  1.0000
  C   C5        1.0  0.13152  0.35589  0.32045  1.0000
  C   C6        1.0  0.13407  0.33766  0.28520  1.0000
  C   C7        1.0  0.16406  0.34196  0.26195  1.0000
  C   C8        1.0  0.19110  0.36518  0.27375  1.0000
  C   C9        1.0  0.18823  0.38390  0.30867  1.0000
  H   H10       1.0  0.10835  0.35213  0.33837  1.0000
  H   H11       1.0  0.11302  0.31979  0.27635  1.0000
  H   H12       1.0  0.21441  0.36850  0.25595  1.0000
  H   H13       1.0  0.20943  0.40129  0.31756  1.0000
  C   C10       1.0  0.04978  0.17651  0.11964  1.0000
  C   C11       1.0  0.07950  0.16647  0.14106  1.0000
  C   C12       1.0  0.09162  0.13121  0.13945  1.0000
  C   C13       1.0  0.07424  0.10573  0.11639  1.0000
  C   C14       1.0  0.04471  0.11583  0.09479  1.0000
  C   C15       1.0  0.12976  0.40490  0.99265  1.0000
  H   H14       1.0  0.09297  0.18580  0.15903  1.0000
  H   H15       1.0  0.05998  0.43059  0.27613  1.0000
  C   C16       1.0  0.27233  0.30954  0.28334  1.0000
  C   C17       1.0  0.10025  0.40455  0.01754  1.0000
  C   C18       1.0  0.10212  0.38791  0.05389  1.0000
  C   C19       1.0  0.13355  0.37158  0.06507  1.0000
  C   C20       1.0  0.16277  0.37156  0.04010  1.0000
  H   H16       1.0  0.19514  0.06001  0.11545  1.0000
  H   H17       1.0  0.29763  0.04513  0.42841  1.0000
  H   H18       1.0  0.13553  0.35912  0.09314  1.0000
  C   C21       1.0  0.09378  0.47734  0.23242  1.0000
  H   H19       1.0  0.05906  0.51069  0.13186  1.0000
  H   H20       1.0  0.08545  0.32379  0.01867  1.0000
  C   C22       1.0  0.32437  0.37362  0.36777  1.0000
  C   C23       1.0  0.28163  0.08198  0.48898  1.0000
  C   C24       1.0  0.27242  0.33702  0.34776  1.0000
  N   N1        1.0  0.28864  0.35974  0.37802  1.0000
  H   H21       1.0  0.30432  0.43677  0.99484  1.0000
  H   H22       1.0  0.19379  0.08930  0.01210  1.0000
  C   C25       1.0  0.03469  0.32390  0.38907  1.0000
  C   C26       1.0  0.23938  0.29409  0.29047  1.0000
  H   H23       1.0  0.26346  0.40711  0.35841  1.0000
  C   C27       1.0  0.27101  0.03828  0.44018  1.0000
  Fe  Fe6       1.0  0.26217  0.48425  0.38939  1.0000
  C   C28       1.0  0.16111  0.38832  0.00392  1.0000
  H   H24       1.0  0.07362  0.44585  0.40966  1.0000
  H   H25       1.0  0.15302  0.43703  0.24777  1.0000
  H   H26       1.0  0.32343  0.39128  0.34189  1.0000
  H   H27       1.0  0.26551  0.10161  0.47277  1.0000
  C   C29       1.0  0.07670  0.51065  0.22840  1.0000
  H   H28       1.0  0.26600  0.33169  0.42688  1.0000
  H   H29       1.0  0.22411  0.32540  0.38028  1.0000
  H   H30       1.0  0.19642  0.28870  0.33054  1.0000
  H   H31       1.0  0.03631  0.28410  0.07587  1.0000
  H   H32       1.0  0.02902  0.32663  0.05542  1.0000
  H   H33       1.0  0.33580  0.39044  0.39128  1.0000
  H   H34       1.0  0.04195  0.33917  0.36359  1.0000
  C   C30       1.0  0.09833  0.45713  0.19824  1.0000
  C   C31       1.0  0.08083  0.29462  0.01750  1.0000
  C   C32       1.0  0.08928  0.42894  0.27851  1.0000
  H   H35       1.0  0.05069  0.36451  0.42908  1.0000
  H   H36       1.0  0.07108  0.43534  0.48014  1.0000
  H   H37       1.0  0.09569  0.41933  0.30814  1.0000
  H   H38       1.0  0.05070  0.04027  0.18761  1.0000
  C   C33       1.0  0.29141  0.37096  0.02290  1.0000
  S   S11       1.0  0.16065  0.50463  0.38953  1.0000
  H   H39       1.0  0.30753  0.31479  0.41000  1.0000
  N   N2        1.0  0.04256  0.28629  0.01389  1.0000
  H   H40       1.0  0.07068  0.49224  0.30657  1.0000
  H   H41       1.0  0.11169  0.43194  0.19904  1.0000
  C   C34       1.0  0.01575  0.28351  0.45553  1.0000
  C   C35       1.0  0.03258  0.15102  0.09646  1.0000
  H   H42       1.0  0.27690  0.40820  0.40804  1.0000
  H   H43       1.0  0.09235  0.28298  0.04429  1.0000
  H   H44       1.0  0.28482  0.30559  0.25549  1.0000
  C   C36       1.0  0.08594  0.46903  0.16243  1.0000
  C   C37       1.0  0.05387  0.03127  0.21819  1.0000
  N   N3        1.0  0.10663  0.46358  0.27000  1.0000
  H   H45       1.0  0.16226  0.08433  0.09044  1.0000
  H   H46       1.0  0.30093  0.34482  0.03345  1.0000
  H   H47       1.0  0.07449  0.48153  0.02473  1.0000
  H   H48       1.0  0.03106  0.09653  0.07693  1.0000
  H   H49       1.0  0.18688  0.35862  0.04902  1.0000
  C   C38       1.0  0.05331  0.45850  0.42683  1.0000
  H   H50       1.0  0.08933  0.45273  0.13684  1.0000
  H   H51       1.0  0.29649  0.39143  0.04543  1.0000
  H   H52       1.0  0.30944  0.08561  0.47879  1.0000
  S   S12       1.0  0.31983  0.46818  0.38360  1.0000
  H   H53       1.0  0.22614  0.27873  0.26811  1.0000
  C   C39       1.0  0.23878  0.32089  0.35398  1.0000
  C   C40       1.0  0.24630  0.03690  0.01480  1.0000
  H   H54       1.0  0.15659  0.45098  0.29678  1.0000
  H   H55       1.0  0.11351  0.51343  0.29959  1.0000
  C   C41       1.0  0.24394  0.01612  0.08106  1.0000
  C   C42       1.0  0.06894  0.50155  0.15955  1.0000
  C   C43       1.0  0.09946  0.48754  0.30306  1.0000
  Fe  Fe7       1.0  0.06475  0.01799  0.07901  1.0000
  H   H56       1.0  0.11448  0.12370  0.15631  1.0000
  H   H57       1.0  0.31403  0.34226  0.30369  1.0000
  C   C44       1.0  0.26577  0.39072  0.38503  1.0000
  H   H58       1.0  0.01609  0.27947  0.35600  1.0000
  H   H59       1.0  0.14957  0.07602  0.02430  1.0000
  C   C45       1.0  0.05189  0.45263  0.46656  1.0000
  C   C46       1.0  0.03006  0.31835  0.45865  1.0000
  S   S13       1.0  0.34105  0.04205  0.35101  1.0000
  C   C47       1.0  0.22695  0.03378  0.04991  1.0000
  C   C48       1.0  0.14545  0.45845  0.26813  1.0000
  C   C49       1.0  0.02869  0.48067  0.40934  1.0000
  S   S14       1.0  0.03303  0.22034  0.12063  1.0000
  C   C50       1.0  0.29210  0.33942  0.41460  1.0000
  H   H60       1.0  0.07119  0.05111  0.23299  1.0000
  H   H61       1.0  0.15926  0.48321  0.25869  1.0000
  N   N4        1.0  0.19051  0.04730  0.05449  1.0000
  C   C51       1.0  0.02513  0.29779  0.05016  1.0000
  H   H62       1.0  0.07575  0.41651  0.00831  1.0000
  C   C52       1.0  0.03956  0.33807  0.42589  1.0000
  H   H63       1.0  0.04685  0.23357  0.03806  1.0000
  C   C53       1.0  0.18913  0.07268  0.08722  1.0000
  H   H64       1.0  0.31133  0.48645  0.46496  1.0000
  C   C54       1.0  0.16611  0.01722  0.06268  1.0000
  N   N5        1.0  0.26863  0.04519  0.48225  1.0000
  C   C55       1.0  0.03783  0.24723  0.01117  1.0000
  H   H65       1.0  0.13809  0.02590  0.06380  1.0000
  H   H66       1.0  0.18092  0.03005  0.37734  1.0000
  H   H67       1.0  0.34336  0.35181  0.36247  1.0000
  H   H68       1.0  0.02974  0.48520  0.37843  1.0000
  H   H69       1.0  0.26204  0.36887  0.02034  1.0000
  H   H70       1.0  0.30579  0.35532  0.43740  1.0000
  C   C56       1.0  0.17691  0.06599  0.01971  1.0000
  C   C57       1.0  0.28047  0.02334  0.01145  1.0000
  C   C58       1.0  0.09351  0.49944  0.00947  1.0000
  S   S15       1.0  0.01705  0.34521  0.27134  1.0000
  C   C59       1.0  0.02018  0.29006  0.38487  1.0000
  H   H71       1.0  0.01590  0.21113  0.46808  1.0000
  H   H72       1.0  0.01407  0.40100  0.21337  1.0000
  H   H73       1.0  0.12151  0.01571  0.20867  1.0000
  H   H74       1.0  0.17531  0.04798  0.99434  1.0000
  C   C60       1.0  0.02601  0.46897  0.48906  1.0000
  H   H75       1.0  0.09647  0.28427  0.99290  1.0000
  Fe  Fe8       1.0  0.20667  0.42265  0.92168  1.0000
  S   S16       1.0  0.24675  0.40507  0.87761  1.0000
  C   C61       1.0  0.03682  0.44200  0.78626  1.0000
  Fe  Fe9       1.0  0.19280  0.49189  0.87937  1.0000
  S   S17       1.0  0.23299  0.48003  0.83402  1.0000
  C   C62       1.0  0.08991  0.50303  0.63864  1.0000
  Fe  Fe10      1.0  0.20850  0.42576  0.83335  1.0000
  S   S18       1.0  0.19429  0.41013  0.77212  1.0000
  Fe  Fe11      1.0  0.26797  0.46084  0.88235  1.0000
  C   C63       1.0  0.06441  0.41792  0.79123  1.0000
  S   S19       1.0  0.16674  0.43818  0.87701  1.0000
  S   S20       1.0  0.22959  0.47766  0.92857  1.0000
  H   H76       1.0  0.30301  0.36210  0.92627  1.0000
  S   S21       1.0  0.08903  0.28331  0.73354  1.0000
  C   C64       1.0  0.05701  0.19165  0.73335  1.0000
  S   S22       1.0  0.07680  0.05811  0.56823  1.0000
  H   H77       1.0  0.19714  0.43795  0.69561  1.0000
  H   H78       1.0  0.23557  0.04911  0.98912  1.0000
  C   C65       1.0  0.16421  0.37527  0.76261  1.0000
  C   C66       1.0  0.15927  0.34741  0.78881  1.0000
  C   C67       1.0  0.13590  0.31941  0.77972  1.0000
  C   C68       1.0  0.11676  0.31959  0.74490  1.0000
  C   C69       1.0  0.12076  0.34810  0.71935  1.0000
  C   C70       1.0  0.14470  0.37568  0.72803  1.0000
  H   H79       1.0  0.17414  0.34696  0.81557  1.0000
  H   H80       1.0  0.13286  0.29738  0.79956  1.0000
  H   H81       1.0  0.10607  0.34843  0.69248  1.0000
  H   H82       1.0  0.14797  0.39736  0.70789  1.0000
  H   H83       1.0  0.11067  0.42215  0.60299  1.0000
  N   N6        1.0  0.30808  0.38071  0.98540  1.0000
  C   C71       1.0  0.06730  0.44644  0.90269  1.0000
  H   H84       1.0  0.06163  0.27468  0.93837  1.0000
  C   C72       1.0  0.04901  0.15866  0.59723  1.0000
  H   H85       1.0  0.06875  0.10720  0.67148  1.0000
  C   C73       1.0  0.06833  0.12740  0.59079  1.0000
  C   C74       1.0  0.16149  0.02484  0.52031  1.0000
  N   N7        1.0  0.17896  0.49174  0.68855  1.0000
  H   H86       1.0  0.11016  0.47329  0.93012  1.0000
  H   H87       1.0  0.11687  0.15049  0.67650  1.0000
  Fe  Fe12      1.0  0.04837  0.29001  0.68625  1.0000
  H   H88       1.0  0.16029  0.07923  0.53778  1.0000
  C   C75       1.0  0.07722  0.49026  0.80131  1.0000
  H   H89       1.0  0.13085  0.47544  0.81382  1.0000
  S   S23       1.0  0.05444  0.27785  0.62275  1.0000
  H   H90       1.0  0.03001  0.24484  0.54365  1.0000
  S   S24       1.0  0.02671  0.36299  0.56351  1.0000
  C   C76       1.0  0.14339  0.45254  0.64229  1.0000
  H   H91       1.0  0.05315  0.23546  0.98713  1.0000
  H   H92       1.0  0.23000  0.47065  0.70452  1.0000
  C   C77       1.0  0.14763  0.48438  0.66394  1.0000
  C   C78       1.0  0.08854  0.18565  0.71384  1.0000
  H   H93       1.0  0.32524  0.48760  0.95972  1.0000
  C   C79       1.0  0.02258  0.48989  0.94544  1.0000
  C   C80       1.0  0.05977  0.49413  0.95029  1.0000
  H   H94       1.0  0.12808  0.41714  0.96445  1.0000
  C   C81       1.0  0.05273  0.09806  0.57209  1.0000
  H   H95       1.0  0.30392  0.42404  0.94479  1.0000
  C   C82       1.0  0.20685  0.46435  0.68565  1.0000
  C   C83       1.0  0.06465  0.13029  0.68937  1.0000
  H   H96       1.0  0.09530  0.12568  0.60105  1.0000
  S   S25       1.0  0.19848  0.38661  0.97345  1.0000
  H   H97       1.0  0.05980  0.38970  0.78701  1.0000
  C   C84       1.0  0.08167  0.47171  0.92792  1.0000
  H   H98       1.0  0.15408  0.46856  0.73846  1.0000
  H   H99       1.0  0.06103  0.18071  0.61251  1.0000
  H   H100      1.0  0.21688  0.46192  0.65553  1.0000
  C   C85       1.0  0.03601  0.26197  0.51813  1.0000
  C   C86       1.0  0.11971  0.50926  0.66174  1.0000
  H   H101      1.0  0.08460  0.42934  0.88631  1.0000
  H   H102      1.0  0.11911  0.41123  0.80621  1.0000
  C   C87       1.0  0.16772  0.49358  0.72955  1.0000
  C   C88       1.0  0.29493  0.41612  0.97420  1.0000
  C   C89       1.0  0.03195  0.13579  0.70848  1.0000
  H   H103      1.0  0.19068  0.49737  0.74944  1.0000
  C   C90       1.0  0.02816  0.31016  0.90798  1.0000
  C   C91       1.0  0.17619  0.05855  0.52487  1.0000
  H   H104      1.0  0.13456  0.01960  0.52956  1.0000
  C   C92       1.0  0.04245  0.47908  0.79153  1.0000
  C   C93       1.0  0.11336  0.44654  0.61941  1.0000
  H   H105      1.0  0.05414  0.21578  0.75008  1.0000
  C   C94       1.0  0.23183  0.03883  0.49547  1.0000
  H   H106      1.0  0.22046  0.09239  0.51709  1.0000
  C   C95       1.0  0.08684  0.47185  0.61734  1.0000
  H   H107      1.0  0.29095  0.02416  0.53465  1.0000
  H   H108      1.0  0.03573  0.06340  0.69766  1.0000
  S   S26       1.0  0.32792  0.46862  0.87758  1.0000
  C   C96       1.0  0.01792  0.10067  0.55873  1.0000
  C   C97       1.0  0.09241  0.15496  0.69197  1.0000
  H   H109      1.0  0.26560  0.41694  0.97384  1.0000
  C   C98       1.0  0.02895  0.16735  0.73070  1.0000
  H   H110      1.0  0.06394  0.46732  0.59904  1.0000
  C   C99       1.0  0.10452  0.46607  0.80616  1.0000
  C   C100      1.0  0.02833  0.30368  0.97877  1.0000
  H   H111      1.0  0.10983  0.20512  0.71548  1.0000
  C   C101      1.0  0.09803  0.42995  0.80154  1.0000
  H   H112      1.0  0.04298  0.28844  0.53024  1.0000
  H   H113      1.0  0.19660  0.02230  0.91873  1.0000
  C   C102      1.0  0.04122  0.29431  0.94164  1.0000
  H   H114      1.0  0.02657  0.46306  0.51961  1.0000
  C   C103      1.0  0.03079  0.44276  0.89889  1.0000
  H   H115      1.0  0.32100  0.02560  0.49432  1.0000
  H   H116      1.0  0.03824  0.30243  0.87990  1.0000
  C   C104      1.0  0.01470  0.07403  0.71675  1.0000
  H   H117      1.0  0.29448  0.02564  0.98417  1.0000
  H   H118      1.0  0.16289  0.43180  0.64241  1.0000
  C   C105      1.0  0.21087  0.06566  0.51277  1.0000
  H   H119      1.0  0.05997  0.25120  0.50388  1.0000
  C   C106      1.0  0.29291  0.02081  0.50277  1.0000
  H   H120      1.0  0.28160  0.08873  0.52028  1.0000
  Fe  Fe13      1.0  0.01985  0.32559  0.61416  1.0000
  S   S27       1.0  0.01891  0.34081  0.67697  1.0000
  H   H121      1.0  0.01968  0.42291  0.87959  1.0000
  H   H122      1.0  0.02543  0.07481  0.74676  1.0000
  H   H123      1.0  0.26647  0.35148  0.95616  1.0000
  H   H124      1.0  0.30729  0.32780  0.96214  1.0000
  C   C107      1.0  0.29586  0.35436  0.95628  1.0000
  N   N8        1.0  0.01401  0.50555  0.78733  1.0000
  C   C108      1.0  0.01393  0.16089  0.58470  1.0000
  S   S28       1.0  0.06286  0.65635  0.26854  1.0000
  H   H125      1.0  0.19275  0.90630  0.42325  1.0000
  Fe  Fe14      1.0  0.03390  0.94191  0.08749  1.0000
  H   H126      1.0  0.05670  0.73569  0.17295  1.0000
  H   H127      1.0  0.02642  0.97205  0.34506  1.0000
  S   S29       1.0  0.08880  0.96439  0.08827  1.0000
  C   C109      1.0  0.15339  0.60756  0.43077  1.0000
  H   H128      1.0  0.20933  0.91041  0.99227  1.0000
  N   N9        1.0  0.06912  0.99519  0.22051  1.0000
  Fe  Fe15      1.0  0.08746  0.95916  0.02362  1.0000
  S   S30       1.0  0.18791  0.54804  0.28994  1.0000
  H   H129      1.0  0.10403  0.72867  0.17240  1.0000
  H   H130      1.0  0.09745  0.71185  0.46520  1.0000
  S   S31       1.0  0.24146  0.53983  0.39313  1.0000
  C   C110      1.0  0.21516  0.98471  0.38043  1.0000
  Fe  Fe16      1.0  0.02711  0.65231  0.21651  1.0000
  S   S32       1.0  0.03334  0.93261  0.02339  1.0000
  C   C111      1.0  0.09617  0.83574  0.14927  1.0000
  Fe  Fe17      1.0  0.20178  0.52378  0.34760  1.0000
  C   C112      1.0  0.15881  0.95185  0.42090  1.0000
  C   C113      1.0  0.19034  0.93355  0.41383  1.0000
  C   C114      1.0  0.21864  0.95006  0.39421  1.0000
  H   H131      1.0  0.32513  0.88650  0.06819  1.0000
  H   H132      1.0  0.24259  0.93551  0.38848  1.0000
  H   H133      1.0  0.09642  0.84019  0.11825  1.0000
  H   H134      1.0  0.11312  0.72190  0.25722  1.0000
  S   S33       1.0  0.24852  0.00513  0.35208  1.0000
  C   C115      1.0  0.09532  0.62374  0.27467  1.0000
  C   C116      1.0  0.10922  0.61748  0.31169  1.0000
  C   C117      1.0  0.13680  0.59322  0.31694  1.0000
  C   C118      1.0  0.15134  0.57611  0.28500  1.0000
  C   C119      1.0  0.13701  0.58187  0.24810  1.0000
  C   C120      1.0  0.10871  0.60530  0.24297  1.0000
  H   H135      1.0  0.09886  0.63167  0.33630  1.0000
  H   H136      1.0  0.14757  0.58862  0.34543  1.0000
  H   H137      1.0  0.14811  0.56848  0.22333  1.0000
  H   H138      1.0  0.09819  0.61004  0.21434  1.0000
  S   S34       1.0  0.04056  0.65190  0.15326  1.0000
  H   H139      1.0  0.06214  0.56276  0.01645  1.0000
  C   C121      1.0  0.14351  0.65918  0.47252  1.0000
  H   H140      1.0  0.12269  0.52572  0.46675  1.0000
  C   C122      1.0  0.08040  0.73085  0.19134  1.0000
  H   H141      1.0  0.07294  0.52845  0.25244  1.0000
  H   H142      1.0  0.03039  0.52795  0.01460  1.0000
  H   H143      1.0  0.10550  0.51744  0.03148  1.0000
  H   H144      1.0  0.10034  0.88150  0.23352  1.0000
  H   H145      1.0  0.16791  0.99653  0.03990  1.0000
  C   C123      1.0  0.15589  0.98704  0.40856  1.0000
  H   H146      1.0  0.05546  0.77620  0.27117  1.0000
  H   H147      1.0  0.07657  0.70426  0.20482  1.0000
  Fe  Fe18      1.0  0.07812  0.95403  0.47647  1.0000
  H   H148      1.0  0.09369  0.82182  0.26012  1.0000
  C   C124      1.0  0.09895  0.86454  0.17424  1.0000
  H   H149      1.0  0.04739  0.73148  0.25753  1.0000
  C   C125      1.0  0.11599  0.74927  0.24511  1.0000
  H   H150      1.0  0.18203  0.70180  0.46271  1.0000
  C   C126      1.0  0.08269  0.96622  0.34072  1.0000
  H   H151      1.0  0.21407  0.67177  0.41118  1.0000
  H   H152      1.0  0.19679  0.61128  0.39081  1.0000
  C   C127      1.0  0.09166  0.80138  0.16385  1.0000
  C   C128      1.0  0.17288  0.67577  0.45407  1.0000
  C   C129      1.0  0.05295  0.75849  0.24570  1.0000
  C   C130      1.0  0.21583  0.00483  0.49106  1.0000
  H   H153      1.0  0.05407  0.94202  0.20393  1.0000
  C   C131      1.0  0.13434  0.62439  0.45999  1.0000
  H   H154      1.0  0.08846  0.78059  0.14263  1.0000
  H   H155      1.0  0.10126  0.89113  0.16251  1.0000
  H   H156      1.0  0.14081  0.75011  0.22783  1.0000
  H   H157      1.0  0.13817  0.96316  0.32850  1.0000
  C   C132      1.0  0.04499  0.98281  0.28709  1.0000
  C   C133      1.0  0.09035  0.79484  0.20437  1.0000
  C   C134      1.0  0.09815  0.85905  0.21408  1.0000
  S   S35       1.0  0.02549  0.92512  0.47868  1.0000
  Fe  Fe19      1.0  0.30719  0.99302  0.35732  1.0000
  H   H158      1.0  0.14653  0.58067  0.42241  1.0000
  S   S36       1.0  0.05386  0.00805  0.47068  1.0000
  H   H159      1.0  0.22971  0.98327  0.47741  1.0000
  C   C135      1.0  0.18189  0.62467  0.41314  1.0000
  N   N10       1.0  0.08503  0.75895  0.22101  1.0000
  C   C136      1.0  0.09416  0.82475  0.22903  1.0000
  S   S37       1.0  0.12319  0.92894  0.44309  1.0000
  C   C137      1.0  0.19158  0.65875  0.42469  1.0000
  H   H160      1.0  0.31109  0.86258  0.13721  1.0000
  H   H161      1.0  0.02927  0.76687  0.22897  1.0000
  C   C138      1.0  0.02345  0.84381  0.09120  1.0000
  H   H162      1.0  0.11961  0.76724  0.27025  1.0000
  H   H163      1.0  0.26633  0.00991  0.43314  1.0000
  H   H164      1.0  0.13634  0.73148  0.48672  1.0000
  C   C139      1.0  0.33700  0.84914  0.13407  1.0000
  H   H165      1.0  0.01743  0.97022  0.21442  1.0000
  S   S38       1.0  0.33556  0.97308  0.41020  1.0000
  C   C140      1.0  0.04436  0.96974  0.20167  1.0000
  H   H166      1.0  0.23069  0.01231  0.10843  1.0000
  C   C141      1.0  0.07437  0.98518  0.26161  1.0000
  H   H167      1.0  0.03276  0.86105  0.06828  1.0000
  H   H168      1.0  0.17175  0.00418  0.09079  1.0000
  H   H169      1.0  0.09734  0.00268  0.16683  1.0000
  H   H170      1.0  0.08592  0.95904  0.37096  1.0000
  C   C142      1.0  0.10233  0.99553  0.19760  1.0000
  C   C143      1.0  0.18378  0.00319  0.38787  1.0000
  H   H171      1.0  0.04084  0.97570  0.17031  1.0000
  C   C144      1.0  0.10825  0.97788  0.27768  1.0000
  H   H172      1.0  0.33228  0.82319  0.11951  1.0000
  H   H173      1.0  0.03014  0.79605  0.05791  1.0000
  H   H174      1.0  0.11304  0.60923  0.47279  1.0000
  H   H175      1.0  0.11498  0.96901  0.19738  1.0000
  S   S39       1.0  0.13761  0.93277  0.00171  1.0000
  H   H176      1.0  0.05136  0.54774  0.18982  1.0000
  C   C145      1.0  0.06440  0.52232  0.19241  1.0000
  S   S40       1.0  0.34070  0.96190  0.31601  1.0000
  C   C146      1.0  0.11211  0.96848  0.31664  1.0000
  C   C147      1.0  0.04921  0.97347  0.32601  1.0000
  H   H177      1.0  0.13177  0.00143  0.41392  1.0000
  C   C148      1.0  0.02196  0.80691  0.08540  1.0000
  C   C149      1.0  0.29636  0.00624  0.04257  1.0000
  H   H178      1.0  0.13232  0.97948  0.26101  1.0000
  C   C150      1.0  0.04946  0.54322  0.99652  1.0000
  H   H179      1.0  0.29050  0.98921  0.10153  1.0000
  S   S41       1.0  0.01440  0.90453  0.13469  1.0000
  S   S42       1.0  0.06634  0.01423  0.01417  1.0000
  Fe  Fe20      1.0  0.20190  0.51600  0.43478  1.0000
  C   C151      1.0  0.27814  0.00266  0.07736  1.0000
  H   H180      1.0  0.32275  0.99558  0.03946  1.0000
  H   H181      1.0  0.34663  0.84202  0.16345  1.0000
  H   H182      1.0  0.01849  0.98840  0.27718  1.0000
  C   C152      1.0  0.19541  0.52616  0.67735  1.0000
  H   H183      1.0  0.06412  0.66131  0.78502  1.0000
  C   C153      1.0  0.09276  0.65801  0.51798  1.0000
  Fe  Fe21      1.0  0.32440  0.97786  0.90821  1.0000
  C   C154      1.0  0.05831  0.78162  0.72327  1.0000
  H   H184      1.0  0.14507  0.99707  0.95451  1.0000
  H   H185      1.0  0.12646  0.67662  0.75883  1.0000
  Fe  Fe22      1.0  0.03012  0.93158  0.54306  1.0000
  C   C155      1.0  0.15318  0.54518  0.51504  1.0000
  S   S43       1.0  0.07515  0.68008  0.69649  1.0000
  H   H186      1.0  0.08352  0.51788  0.80561  1.0000
  Fe  Fe23      1.0  0.05409  0.60859  0.61987  1.0000
  S   S44       1.0  0.10289  0.64243  0.61909  1.0000
  S   S45       1.0  0.04674  0.56829  0.57202  1.0000
  Fe  Fe24      1.0  0.10574  0.63149  0.68253  1.0000
  S   S46       1.0  0.15682  0.61622  0.71129  1.0000
  Fe  Fe25      1.0  0.06703  0.68784  0.63279  1.0000
  S   S47       1.0  0.08088  0.73585  0.59550  1.0000
  S   S48       1.0  0.05963  0.59410  0.68259  1.0000
  H   H187      1.0  0.15357  0.70665  0.78625  1.0000
  H   H188      1.0  0.09116  0.55474  0.93193  1.0000
  H   H189      1.0  0.13654  0.69436  0.56265  1.0000
  H   H190      1.0  0.08334  0.73429  0.85375  1.0000
  C   C156      1.0  0.19955  0.99805  0.93513  1.0000
  S   S49       1.0  0.08392  0.95723  0.54113  1.0000
  C   C157      1.0  0.08893  0.54233  0.51370  1.0000
  C   C158      1.0  0.03517  0.75708  0.73996  1.0000
  C   C159      1.0  0.03193  0.78705  0.61682  1.0000
  C   C160      1.0  0.06067  0.77812  0.59346  1.0000
  C   C161      1.0  0.07411  0.80348  0.56733  1.0000
  C   C162      1.0  0.05910  0.83744  0.56450  1.0000
  H   H191      1.0  0.02128  0.76776  0.63695  1.0000
  H   H192      1.0  0.11772  0.70252  0.86266  1.0000
  H   H193      1.0  0.09638  0.79691  0.54920  1.0000
  H   H194      1.0  0.06979  0.85667  0.54429  1.0000
  C   C163      1.0  0.08757  0.55689  0.55101  1.0000
  C   C164      1.0  0.11909  0.56378  0.57085  1.0000
  C   C165      1.0  0.15170  0.55842  0.55278  1.0000
  H   H195      1.0  0.14071  0.66551  0.80668  1.0000
  C   C166      1.0  0.14938  0.68084  0.53781  1.0000
  H   H196      1.0  0.11850  0.57314  0.60028  1.0000
  H   H197      1.0  0.17337  0.69673  0.53061  1.0000
  C   C167      1.0  0.10235  0.54235  0.95847  1.0000
  C   C168      1.0  0.15480  0.55968  0.82863  1.0000
  S   S50       1.0  0.26847  0.99999  0.90964  1.0000
  C   C169      1.0  0.18592  0.57877  0.77072  1.0000
  C   C170      1.0  0.15516  0.59451  0.75638  1.0000
  C   C171      1.0  0.12412  0.59312  0.77838  1.0000
  C   C172      1.0  0.12424  0.57651  0.81489  1.0000
  C   C173      1.0  0.03047  0.84648  0.58791  1.0000
  H   H198      1.0  0.10032  0.60537  0.76754  1.0000
  H   H199      1.0  0.10048  0.57616  0.83226  1.0000
  C   C174      1.0  0.23244  0.98088  0.93549  1.0000
  C   C175      1.0  0.23584  0.94938  0.95652  1.0000
  C   C176      1.0  0.17034  0.98389  0.95549  1.0000
  H   H200      1.0  0.02850  0.51732  0.72845  1.0000
  H   H201      1.0  0.17780  0.54900  0.68264  1.0000
  H   H202      1.0  0.13430  0.75872  0.76786  1.0000
  H   H203      1.0  0.09747  0.72649  0.51464  1.0000
  H   H204      1.0  0.07871  0.67295  0.54104  1.0000
  H   H205      1.0  0.11172  0.80114  0.72081  1.0000
  C   C177      1.0  0.17368  0.95220  0.97620  1.0000
  H   H206      1.0  0.15835  0.65433  0.54802  1.0000
  H   H207      1.0  0.08507  0.65351  0.83072  1.0000
  H   H208      1.0  0.03448  0.55870  0.97455  1.0000
  H   H209      1.0  0.04868  0.80053  0.70213  1.0000
  C   C178      1.0  0.10660  0.75705  0.76042  1.0000
  S   S51       1.0  0.34222  0.92728  0.93665  1.0000
  C   C179      1.0  0.04759  0.73214  0.76662  1.0000
  H   H210      1.0  0.21016  0.58027  0.75417  1.0000
  H   H211      1.0  0.26091  0.93584  0.95702  1.0000
  C   C180      1.0  0.18129  0.99801  0.50362  1.0000
  C   C181      1.0  0.10714  0.72162  0.84103  1.0000
  C   C182      1.0  0.13105  0.68768  0.78825  1.0000
  N   N11       1.0  0.12493  0.67730  0.50446  1.0000
  H   H212      1.0  0.17595  0.56476  0.56805  1.0000
  H   H213      1.0  0.20970  0.54955  0.81736  1.0000
  C   C183      1.0  0.09388  0.78181  0.73375  1.0000
  H   H214      1.0  0.04927  0.68369  0.82807  1.0000
  C   C184      1.0  0.18564  0.56109  0.80646  1.0000
  H   H215      1.0  0.06937  0.52280  0.63660  1.0000
  H   H216      1.0  0.21992  0.53181  0.69424  1.0000
  S   S52       1.0  0.15398  0.53721  0.87348  1.0000
  C   C185      1.0  0.07306  0.67442  0.81225  1.0000
  Fe  Fe26      1.0  0.02813  0.64317  0.69340  1.0000
  N   N12       1.0  0.09836  0.70391  0.80399  1.0000
  H   H217      1.0  0.09936  0.63183  0.53092  1.0000
  C   C186      1.0  0.08407  0.73066  0.77678  1.0000
  H   H218      1.0  0.12747  0.74287  0.83715  1.0000
  C   C187      1.0  0.02339  0.53117  0.75627  1.0000
  H   H219      1.0  0.12091  0.53394  0.67762  1.0000
  H   H220      1.0  0.02816  0.71361  0.77779  1.0000
  N   N13       1.0  0.07571  0.51950  0.97817  1.0000
  H   H221      1.0  0.11235  0.56401  0.97752  1.0000
  S   S53       1.0  0.01739  0.65438  0.63025  1.0000
  H   H222      1.0  0.04736  0.54720  0.76335  1.0000
  C   C188      1.0  0.20654  0.93503  0.97652  1.0000
  Fe  Fe27      1.0  0.05580  0.00960  0.53566  1.0000
  H   H223      1.0  0.12620  0.52742  0.94960  1.0000
  H   H224      1.0  0.14936  0.51586  0.73497  1.0000
  H   H225      1.0  0.28726  0.99250  0.49605  1.0000
  H   H226      1.0  0.20234  0.52652  0.64604  1.0000
  H   H227      1.0  0.16951  0.97186  0.49987  1.0000
  H   H228      1.0  0.03379  0.54114  0.83178  1.0000
  H   H229      1.0  0.07350  0.65383  0.49403  1.0000
  H   H230      1.0  0.06479  0.53652  0.49819  1.0000
  C   C189      1.0  0.12174  0.53629  0.49576  1.0000
  C   C190      1.0  0.01697  0.82113  0.61408  1.0000
  S   S54       1.0  0.19481  0.54199  0.49283  1.0000
  C   C191      1.0  0.11367  0.71322  0.49205  1.0000
  Fe  Fe28      1.0  0.57792  0.11212  0.11241  1.0000
  S   S55       1.0  0.62633  0.14656  0.11735  1.0000
  S   S56       1.0  0.57432  0.06700  0.06896  1.0000
  Fe  Fe29      1.0  0.54378  0.14756  0.18254  1.0000
  S   S57       1.0  0.58996  0.18480  0.19116  1.0000
  S   S58       1.0  0.50207  0.15112  0.22907  1.0000
  Fe  Fe30      1.0  0.58835  0.19144  0.12643  1.0000
  S   S59       1.0  0.59445  0.23870  0.08568  1.0000
  Fe  Fe31      1.0  0.62263  0.13613  0.18110  1.0000
  C   C192      1.0  0.67762  0.41308  0.06300  1.0000
  S   S60       1.0  0.53970  0.15716  0.11843  1.0000
  S   S61       1.0  0.57652  0.09881  0.17569  1.0000
  H   H231      1.0  0.62388  0.06016  0.21854  1.0000
  S   S62       1.0  0.60637  0.47973  0.04372  1.0000
  H   H232      1.0  0.65569  0.07440  0.15714  1.0000
  S   S63       1.0  0.52489  0.48858  0.07197  1.0000
  H   H233      1.0  0.63189  0.50517  0.47322  1.0000
  Fe  Fe32      1.0  0.56277  0.44343  0.06443  1.0000
  S   S64       1.0  0.57384  0.40395  0.11285  1.0000
  H   H234      1.0  0.35401  0.37688  0.04980  1.0000
  C   C193      1.0  0.66507  0.08832  0.01105  1.0000
  H   H235      1.0  0.48829  0.06958  0.42109  1.0000
  H   H236      1.0  0.55074  0.16378  0.29680  1.0000
  H   H237      1.0  0.46774  0.10134  0.36275  1.0000
  S   S65       1.0  0.59954  0.43842  0.44996  1.0000
  C   C194      1.0  0.66656  0.06648  0.12869  1.0000
  H   H238      1.0  0.62746  0.11791  0.04410  1.0000
  C   C195      1.0  0.67722  0.42497  0.29526  1.0000
  C   C196      1.0  0.35009  0.47158  0.42265  1.0000
  S   S66       1.0  0.40162  0.01820  0.25577  1.0000
  C   C197      1.0  0.56810  0.08603  0.37865  1.0000
  C   C198      1.0  0.64365  0.05700  0.24063  1.0000
  C   C199      1.0  0.44474  0.03171  0.47536  1.0000
  C   C200      1.0  0.66414  0.35085  0.06382  1.0000
  C   C201      1.0  0.64354  0.45459  0.44775  1.0000
  C   C202      1.0  0.41774  0.05629  0.48126  1.0000
  C   C203      1.0  0.67024  0.08253  0.24551  1.0000
  H   H239      1.0  0.50014  0.07247  0.00241  1.0000
  H   H240      1.0  0.65584  0.41027  0.28183  1.0000
  C   C204      1.0  0.47412  0.11413  0.23604  1.0000
  C   C205      1.0  0.47411  0.08576  0.21010  1.0000
  C   C206      1.0  0.45137  0.05664  0.21620  1.0000
  C   C207      1.0  0.42946  0.05524  0.24889  1.0000
  C   C208      1.0  0.42993  0.08328  0.27522  1.0000
  C   C209      1.0  0.45174  0.11298  0.26836  1.0000
  H   H241      1.0  0.49100  0.08667  0.18489  1.0000
  C   C210      1.0  0.49583  0.09711  0.36722  1.0000
  H   H242      1.0  0.41278  0.08254  0.30023  1.0000
  H   H243      1.0  0.45117  0.13519  0.28810  1.0000
  C   C211      1.0  0.58404  0.28357  0.09510  1.0000
  C   C212      1.0  0.58727  0.29835  0.13203  1.0000
  C   C213      1.0  0.58293  0.33514  0.13727  1.0000
  C   C214      1.0  0.57472  0.35735  0.10585  1.0000
  C   C215      1.0  0.56997  0.34225  0.06927  1.0000
  C   C216      1.0  0.57525  0.30570  0.06384  1.0000
  H   H244      1.0  0.59428  0.28164  0.15626  1.0000
  H   H245      1.0  0.58656  0.34653  0.16570  1.0000
  H   H246      1.0  0.56286  0.35877  0.04497  1.0000
  H   H247      1.0  0.57258  0.29445  0.03521  1.0000
  C   C217      1.0  0.61112  0.06346  0.03802  1.0000
  C   C218      1.0  0.65197  0.48892  0.46000  1.0000
  C   C219      1.0  0.67060  0.45589  0.31744  1.0000
  S   S67       1.0  0.54310  0.42921  0.00511  1.0000
  N   N14       1.0  0.58235  0.11927  0.31610  1.0000
  C   C220      1.0  0.57685  0.15787  0.31014  1.0000
  C   C221      1.0  0.62011  0.11428  0.32666  1.0000
  C   C222      1.0  0.57609  0.10088  0.27890  1.0000
  C   C223      1.0  0.55721  0.10532  0.34533  1.0000
  C   C224      1.0  0.52031  0.11017  0.34037  1.0000
  H   H248      1.0  0.57864  0.17257  0.33796  1.0000
  H   H249      1.0  0.62672  0.12753  0.35450  1.0000
  H   H250      1.0  0.63821  0.12585  0.30442  1.0000
  H   H251      1.0  0.62703  0.08568  0.32861  1.0000
  H   H252      1.0  0.54887  0.10490  0.26768  1.0000
  H   H253      1.0  0.59437  0.11102  0.25615  1.0000
  H   H254      1.0  0.57994  0.07180  0.28178  1.0000
  H   H255      1.0  0.51017  0.12415  0.31548  1.0000
  S   S68       1.0  0.67028  0.12224  0.21827  1.0000
  C   C225      1.0  0.61881  0.03091  0.02044  1.0000
  H   H256      1.0  0.45067  0.03534  0.19533  1.0000
  H   H257      1.0  0.61692  0.45557  0.26472  1.0000
  H   H258      1.0  0.66371  0.40712  0.42129  1.0000
  H   H259      1.0  0.63688  0.41180  0.99802  1.0000
  C   C226      1.0  0.61180  0.43976  0.34014  1.0000
  H   H260      1.0  0.62294  0.36659  0.00370  1.0000
  C   C227      1.0  0.63384  0.09235  0.03224  1.0000
  C   C228      1.0  0.54337  0.07335  0.40559  1.0000
  C   C229      1.0  0.66991  0.43385  0.43056  1.0000
  Fe  Fe33      1.0  0.50742  0.47675  0.01082  1.0000
  H   H261      1.0  0.59677  0.16950  0.28990  1.0000
  H   H262      1.0  0.65699  0.41768  0.08547  1.0000
  H   H263      1.0  0.61387  0.39800  0.04076  1.0000
  H   H264      1.0  0.37229  0.49073  0.00992  1.0000
  H   H265      1.0  0.59556  0.08067  0.38477  1.0000
  S   S69       1.0  0.37952  0.05757  0.45211  1.0000
  H   H266      1.0  0.60817  0.41676  0.32048  1.0000
  N   N15       1.0  0.66843  0.38221  0.03814  1.0000
  H   H267      1.0  0.64641  0.35651  0.08869  1.0000
  C   C230      1.0  0.38603  0.46414  0.41646  1.0000
  H   H268      1.0  0.65196  0.32771  0.04879  1.0000
  Fe  Fe34      1.0  0.37112  0.02044  0.40180  1.0000
  H   H269      1.0  0.49125  0.01669  0.03625  1.0000
  C   C231      1.0  0.41065  0.46586  0.44712  1.0000
  S   S70       1.0  0.44713  0.48163  0.00800  1.0000
  C   C232      1.0  0.63409  0.38985  0.01934  1.0000
  C   C233      1.0  0.50735  0.07899  0.39993  1.0000
  H   H270      1.0  0.59136  0.48893  0.28789  1.0000
  C   C234      1.0  0.64955  0.02714  0.99797  1.0000
  H   H271      1.0  0.43821  0.46006  0.44203  1.0000
  H   H272      1.0  0.39490  0.45712  0.38777  1.0000
  C   C235      1.0  0.66751  0.02221  0.29378  1.0000
  H   H273      1.0  0.62379  0.42972  0.36739  1.0000
  H   H274      1.0  0.63511  0.49932  0.27056  1.0000
  H   H275      1.0  0.52326  0.03449  0.31916  1.0000
  H   H276      1.0  0.55218  0.05948  0.43134  1.0000
  C   C236      1.0  0.64194  0.02739  0.26505  1.0000
  H   H277      1.0  0.64366  0.06217  0.10919  1.0000
  N   N16       1.0  0.63391  0.46845  0.32291  1.0000
  C   C237      1.0  0.67318  0.05571  0.99418  1.0000
  H   H278      1.0  0.58477  0.44906  0.34761  1.0000
  C   C238      1.0  0.39934  0.47469  0.48434  1.0000
  H   H279      1.0  0.41794  0.38264  0.04965  1.0000
  C   C239      1.0  0.40357  0.38323  0.02248  1.0000
  C   C240      1.0  0.36665  0.38010  0.02207  1.0000
  H   H280      1.0  0.67927  0.43805  0.04581  1.0000
  C   C241      1.0  0.61869  0.47845  0.28491  1.0000
  H   H281      1.0  0.64244  0.49397  0.37791  1.0000
  C   C242      1.0  0.63146  0.49980  0.34874  1.0000
  H   H282      1.0  0.66683  0.48838  0.99623  1.0000
  H   H283      1.0  0.60355  0.50801  0.35335  1.0000
  C   C243      1.0  0.36342  0.48213  0.49046  1.0000
  H   H284      1.0  0.67941  0.01931  0.07302  1.0000
  H   H285      1.0  0.66650  0.03323  0.59640  1.0000
  N   N17       1.0  0.43666  0.25280  0.65037  1.0000
  H   H286      1.0  0.44248  0.01996  0.74081  1.0000
  Fe  Fe35      1.0  0.53092  0.17679  0.62796  1.0000
  S   S71       1.0  0.56787  0.13033  0.62100  1.0000
  S   S72       1.0  0.53668  0.22721  0.59177  1.0000
  Fe  Fe36      1.0  0.47767  0.13170  0.67403  1.0000
  S   S73       1.0  0.50973  0.08258  0.66890  1.0000
  S   S74       1.0  0.42592  0.12788  0.70583  1.0000
  Fe  Fe37      1.0  0.55551  0.11836  0.68356  1.0000
  S   S75       1.0  0.58354  0.10136  0.73818  1.0000
  Fe  Fe38      1.0  0.51841  0.09883  0.60731  1.0000
  S   S76       1.0  0.51524  0.05666  0.56045  1.0000
  S   S77       1.0  0.52259  0.16728  0.69159  1.0000
  S   S78       1.0  0.48234  0.14541  0.61125  1.0000
  Fe  Fe39      1.0  0.58510  0.46825  0.98458  1.0000
  S   S79       1.0  0.58806  0.46966  0.55552  1.0000
  C   C244      1.0  0.63115  0.38943  0.52971  1.0000
  S   S80       1.0  0.50869  0.48214  0.58801  1.0000
  C   C245      1.0  0.40397  0.38987  0.95319  1.0000
  Fe  Fe40      1.0  0.54401  0.43518  0.57844  1.0000
  S   S81       1.0  0.55475  0.39306  0.62422  1.0000
  C   C246      1.0  0.54241  0.27302  0.60213  1.0000
  C   C247      1.0  0.54143  0.29724  0.57119  1.0000
  C   C248      1.0  0.54519  0.33394  0.57755  1.0000
  C   C249      1.0  0.55008  0.34693  0.61504  1.0000
  C   C250      1.0  0.55170  0.32271  0.64598  1.0000
  C   C251      1.0  0.54780  0.28591  0.63963  1.0000
  H   H287      1.0  0.53740  0.28754  0.54207  1.0000
  H   H288      1.0  0.54398  0.35213  0.55343  1.0000
  H   H289      1.0  0.55571  0.33250  0.67506  1.0000
  H   H290      1.0  0.54920  0.26761  0.66368  1.0000
  C   C252      1.0  0.47796  0.05703  0.52958  1.0000
  C   C253      1.0  0.42083  0.08081  0.51143  1.0000
  C   C254      1.0  0.58933  0.11237  0.84378  1.0000
  H   H291      1.0  0.37927  0.03143  0.72703  1.0000
  C   C255      1.0  0.45070  0.08114  0.53545  1.0000
  C   C256      1.0  0.66947  0.46590  0.93928  1.0000
  H   H292      1.0  0.45240  0.10008  0.55857  1.0000
  H   H293      1.0  0.38127  0.26477  0.65406  1.0000
  C   C257      1.0  0.46318  0.36104  0.61975  1.0000
  H   H294      1.0  0.41846  0.39470  0.92664  1.0000
  H   H295      1.0  0.57017  0.12056  0.82217  1.0000
  C   C258      1.0  0.42370  0.47319  0.93199  1.0000
  C   C259      1.0  0.39676  0.47041  0.90379  1.0000
  H   H296      1.0  0.41143  0.23723  0.59688  1.0000
  H   H297      1.0  0.62466  0.34180  0.58604  1.0000
  H   H298      1.0  0.45106  0.46941  0.92402  1.0000
  H   H299      1.0  0.35439  0.48888  0.51917  1.0000
  H   H300      1.0  0.63304  0.41735  0.51980  1.0000
  C   C260      1.0  0.65412  0.03534  0.78612  1.0000
  C   C261      1.0  0.62309  0.05339  0.77686  1.0000
  C   C262      1.0  0.62165  0.07561  0.74444  1.0000
  H   H301      1.0  0.51228  0.07380  0.95236  1.0000
  H   H302      1.0  0.45184  0.02697  0.98624  1.0000
  H   H303      1.0  0.50983  0.03221  0.89784  1.0000
  H   H304      1.0  0.60011  0.05032  0.79520  1.0000
  H   H305      1.0  0.65579  0.43350  0.58389  1.0000
  H   H306      1.0  0.60392  0.38576  0.54148  1.0000
  C   C263      1.0  0.60332  0.08014  0.90202  1.0000
  C   C264      1.0  0.37927  0.48508  0.98026  1.0000
  C   C265      1.0  0.43740  0.05855  0.81400  1.0000
  C   C266      1.0  0.46741  0.07198  0.79502  1.0000
  C   C267      1.0  0.46391  0.09364  0.76223  1.0000
  C   C268      1.0  0.43034  0.10248  0.74843  1.0000
  C   C269      1.0  0.40025  0.08985  0.76801  1.0000
  C   C270      1.0  0.40374  0.06755  0.80052  1.0000
  H   H307      1.0  0.48733  0.10376  0.74791  1.0000
  C   C271      1.0  0.45869  0.33584  0.59074  1.0000
  C   C272      1.0  0.61281  0.03362  0.61694  1.0000
  H   H308      1.0  0.46382  0.37079  0.68078  1.0000
  H   H309      1.0  0.67071  0.33620  0.59542  1.0000
  H   H310      1.0  0.49354  0.06534  0.80541  1.0000
  C   C273      1.0  0.65130  0.07894  0.72052  1.0000
  H   H311      1.0  0.59505  0.06368  0.92618  1.0000
  S   S82       1.0  0.52117  0.42205  0.52043  1.0000
  C   C274      1.0  0.45091  0.31611  0.66807  1.0000
  H   H312      1.0  0.46809  0.25334  0.70292  1.0000
  H   H313      1.0  0.37421  0.09690  0.75769  1.0000
  S   S83       1.0  0.42861  0.47657  0.52439  1.0000
  H   H314      1.0  0.46260  0.34358  0.56082  1.0000
  C   C275      1.0  0.64199  0.01831  0.59924  1.0000
  C   C276      1.0  0.57850  0.09175  0.87508  1.0000
  C   C277      1.0  0.41497  0.47986  0.97055  1.0000
  C   C278      1.0  0.36707  0.38745  0.95246  1.0000
  C   C279      1.0  0.36094  0.47451  0.91376  1.0000
  H   H315      1.0  0.65448  0.01821  0.81094  1.0000
  C   C280      1.0  0.45947  0.35116  0.65833  1.0000
  C   C281      1.0  0.44617  0.28966  0.63925  1.0000
  H   H316      1.0  0.40368  0.46451  0.87416  1.0000
  C   C282      1.0  0.65464  0.40507  0.59236  1.0000
  H   H317      1.0  0.38045  0.05756  0.81526  1.0000
  H   H318      1.0  0.61471  0.06054  0.62786  1.0000
  C   C283      1.0  0.42930  0.02973  0.62584  1.0000
  C   C284      1.0  0.65083  0.11133  0.86691  1.0000
  S   S84       1.0  0.52889  0.50705  0.49898  1.0000
  H   H319      1.0  0.49038  0.23753  0.66076  1.0000
  H   H320      1.0  0.44870  0.28234  0.57618  1.0000
  H   H321      1.0  0.55086  0.08456  0.87811  1.0000
  H   H322      1.0  0.65049  0.09634  0.69563  1.0000
  C   C285      1.0  0.42248  0.02248  0.66480  1.0000
  H   H323      1.0  0.44835  0.30984  0.69842  1.0000
  H   H324      1.0  0.57431  0.02533  0.70823  1.0000
  C   C286      1.0  0.51663  0.05936  0.98000  1.0000
  H   H325      1.0  0.43678  0.05639  0.61692  1.0000
  H   H326      1.0  0.40436  0.26736  0.69939  1.0000
  H   H327      1.0  0.63357  0.37256  0.50348  1.0000
  H   H328      1.0  0.45792  0.22630  0.60038  1.0000
  C   C287      1.0  0.47487  0.03215  0.49948  1.0000
  C   C288      1.0  0.47066  0.01706  0.96406  1.0000
  S   S85       1.0  0.44354  0.02990  0.85366  1.0000
  H   H329      1.0  0.39404  0.22503  0.67936  1.0000
  H   H330      1.0  0.66761  0.32812  0.98531  1.0000
  C   C289      1.0  0.45062  0.30057  0.60012  1.0000
  H   H331      1.0  0.40003  0.09983  0.51621  1.0000
  C   C290      1.0  0.63899  0.08958  0.89804  1.0000
  H   H332      1.0  0.65195  0.32475  0.54863  1.0000
  H   H333      1.0  0.54478  0.06357  0.98860  1.0000
  C   C291      1.0  0.46441  0.23795  0.67586  1.0000
  H   H334      1.0  0.45786  0.21023  0.68483  1.0000
  C   C292      1.0  0.62492  0.12190  0.83954  1.0000
  H   H335      1.0  0.67705  0.17261  0.83365  1.0000
  Fe  Fe41      1.0  0.48858  0.47129  0.52753  1.0000
  C   C293      1.0  0.43269  0.22843  0.61688  1.0000
  S   S86       1.0  0.62336  0.45672  0.93523  1.0000
  C   C294      1.0  0.40262  0.25254  0.67169  1.0000
  H   H336      1.0  0.63196  0.13722  0.81418  1.0000
  H   H337      1.0  0.42557  0.20098  0.62628  1.0000
  H   H338      1.0  0.62861  0.40121  0.60697  1.0000
  N   N18       1.0  0.50806  0.02106  0.97661  1.0000
  N   N19       1.0  0.65862  0.38094  0.55880  1.0000
  H   H339      1.0  0.47055  0.38810  0.61234  1.0000
  C   C295      1.0  0.65147  0.34425  0.57275  1.0000
  Fe  Fe42      1.0  0.56377  0.45885  0.49763  1.0000
  H   H340      1.0  0.65677  0.07945  0.91972  1.0000
  H   H341      1.0  0.42469  0.04442  0.68487  1.0000
  H   H342      1.0  0.46447  0.03199  0.93721  1.0000
  H   H343      1.0  0.67749  0.17447  0.88560  1.0000
  C   C296      1.0  0.35246  0.48281  0.95199  1.0000
  H   H344      1.0  0.67569  0.40053  0.61428  1.0000
  H   H345      1.0  0.55904  0.02873  0.63268  1.0000
  H   H346      1.0  0.35420  0.39118  0.92481  1.0000
  S   S87       1.0  0.54735  0.51416  0.98438  1.0000
  C   C297      1.0  0.34723  0.38204  0.98684  1.0000
  H   H347      1.0  0.45067  0.39155  0.98876  1.0000
  C   C298      1.0  0.42216  0.38810  0.98814  1.0000
  Fe  Fe43      1.0  0.49763  0.80227  0.11321  1.0000
  S   S88       1.0  0.46144  0.76265  0.14146  1.0000
  S   S89       1.0  0.48980  0.81340  0.04952  1.0000
  Fe  Fe44      1.0  0.53626  0.81829  0.18848  1.0000
  S   S90       1.0  0.50346  0.77978  0.22305  1.0000
  S   S91       1.0  0.57292  0.86009  0.21336  1.0000
  Fe  Fe45      1.0  0.51024  0.74341  0.17166  1.0000
  S   S92       1.0  0.51496  0.68412  0.18134  1.0000
  Fe  Fe46      1.0  0.45759  0.80166  0.18997  1.0000
  S   S93       1.0  0.40408  0.81749  0.21241  1.0000
  S   S94       1.0  0.54724  0.78034  0.13970  1.0000
  S   S95       1.0  0.48953  0.84299  0.15908  1.0000
  S   S96       1.0  0.58211  0.58068  0.05692  1.0000
  S   S97       1.0  0.39916  0.89350  0.37480  1.0000
  H   H348      1.0  0.45961  0.97873  0.22606  1.0000
  H   H349      1.0  0.44945  0.84497  0.34221  1.0000
  H   H350      1.0  0.61077  0.92675  0.19178  1.0000
  C   C299      1.0  0.46480  0.64315  0.06952  1.0000
  C   C300      1.0  0.46857  0.70424  0.04827  1.0000
  H   H351      1.0  0.60597  0.82931  0.38876  1.0000
  C   C301      1.0  0.42984  0.88955  0.00070  1.0000
  H   H352      1.0  0.63653  0.91213  0.47038  1.0000
  C   C302      1.0  0.40211  0.83575  0.25900  1.0000
  C   C303      1.0  0.37231  0.85528  0.26943  1.0000
  C   C304      1.0  0.37086  0.87214  0.30546  1.0000
  C   C305      1.0  0.39893  0.86908  0.33154  1.0000
  C   C306      1.0  0.42805  0.84811  0.32187  1.0000
  C   C307      1.0  0.42988  0.83186  0.28540  1.0000
  C   C308      1.0  0.52835  0.00773  0.30946  1.0000
  H   H353      1.0  0.62054  0.00840  0.26161  1.0000
  C   C309      1.0  0.54029  0.83339  0.41510  1.0000
  C   C310      1.0  0.60193  0.84955  0.25134  1.0000
  C   C311      1.0  0.62162  0.87703  0.26837  1.0000
  C   C312      1.0  0.64503  0.87000  0.29878  1.0000
  C   C313      1.0  0.64912  0.83532  0.31229  1.0000
  C   C314      1.0  0.62921  0.80775  0.29556  1.0000
  C   C315      1.0  0.60549  0.81486  0.26514  1.0000
  H   H354      1.0  0.61884  0.90391  0.25804  1.0000
  H   H355      1.0  0.44052  0.59292  0.47563  1.0000
  H   H356      1.0  0.50515  0.97596  0.01505  1.0000
  H   H357      1.0  0.59032  0.79351  0.25210  1.0000
  C   C316      1.0  0.56215  0.60884  0.09122  1.0000
  C   C317      1.0  0.56632  0.64571  0.08709  1.0000
  C   C318      1.0  0.55165  0.66909  0.11424  1.0000
  C   C319      1.0  0.53310  0.65570  0.14608  1.0000
  C   C320      1.0  0.52881  0.61881  0.15017  1.0000
  C   C321      1.0  0.54310  0.59543  0.12273  1.0000
  H   H358      1.0  0.58108  0.65626  0.06283  1.0000
  H   H359      1.0  0.55510  0.69742  0.11079  1.0000
  H   H360      1.0  0.51453  0.60831  0.17480  1.0000
  H   H361      1.0  0.54004  0.56707  0.12640  1.0000
  C   C322      1.0  0.47034  0.85449  0.03948  1.0000
  C   C323      1.0  0.47795  0.88436  0.06209  1.0000
  C   C324      1.0  0.46071  0.91652  0.05469  1.0000
  C   C325      1.0  0.46873  0.67922  0.07789  1.0000
  H   H362      1.0  0.49677  0.88254  0.08555  1.0000
  H   H363      1.0  0.46592  0.93931  0.07288  1.0000
  H   H364      1.0  0.37256  0.88841  0.18934  1.0000
  H   H365      1.0  0.48699  0.87834  0.38354  1.0000
  C   C326      1.0  0.46403  0.69330  0.01012  1.0000
  H   H366      1.0  0.37494  0.00117  0.17869  1.0000
  Fe  Fe47      1.0  0.56641  0.52345  0.04514  1.0000
  H   H367      1.0  0.49227  0.57566  0.06806  1.0000
  H   H368      1.0  0.65987  0.89155  0.31173  1.0000
  C   C327      1.0  0.54216  0.89435  0.39224  1.0000
  H   H369      1.0  0.40809  0.85288  0.14361  1.0000
  C   C328      1.0  0.59569  0.85669  0.39276  1.0000
  C   C329      1.0  0.45980  0.65725  0.00137  1.0000
  H   H370      1.0  0.51144  0.82975  0.41016  1.0000
  C   C330      1.0  0.43643  0.91903  0.02419  1.0000
  C   C331      1.0  0.56367  0.92469  0.40006  1.0000
  H   H371      1.0  0.41735  0.87056  0.09717  1.0000
  H   H372      1.0  0.51263  0.58518  0.02244  1.0000
  C   C332      1.0  0.56151  0.99282  0.31526  1.0000
  C   C333      1.0  0.39771  0.85482  0.11370  1.0000
  C   C334      1.0  0.50162  0.98836  0.29088  1.0000
  H   H373      1.0  0.64570  0.52325  0.33659  1.0000
  C   C335      1.0  0.54909  0.84580  0.34720  1.0000
  H   H374      1.0  0.46610  0.62482  0.09356  1.0000
  H   H375      1.0  0.54398  0.84292  0.44536  1.0000
  Fe  Fe48      1.0  0.37697  0.00921  0.31444  1.0000
  H   H376      1.0  0.35037  0.85768  0.24953  1.0000
  H   H377      1.0  0.47263  0.68770  0.10758  1.0000
  H   H378      1.0  0.47651  0.00132  0.28652  1.0000
  H   H379      1.0  0.56053  0.81913  0.34172  1.0000
  N   N20       1.0  0.55679  0.85834  0.38702  1.0000
  C   C336      1.0  0.48842  0.57393  0.03630  1.0000
  H   H380      1.0  0.60358  0.86502  0.42243  1.0000
  C   C337      1.0  0.50517  0.89998  0.38927  1.0000
  C   C338      1.0  0.63695  0.99243  0.13032  1.0000
  Fe  Fe49      1.0  0.37230  0.94640  0.36825  1.0000
  H   H381      1.0  0.44241  0.01252  0.45225  1.0000
  H   H382      1.0  0.45260  0.81616  0.27779  1.0000
  H   H383      1.0  0.55206  0.80646  0.41329  1.0000
  C   C339      1.0  0.36894  0.97250  0.12524  1.0000
  H   H384      1.0  0.61005  0.87347  0.37136  1.0000
  N   N21       1.0  0.47846  0.93340  0.25790  1.0000
  H   H385      1.0  0.48713  0.54517  0.02941  1.0000
  C   C340      1.0  0.48758  0.89620  0.24840  1.0000
  C   C341      1.0  0.44653  0.93222  0.28275  1.0000
  C   C342      1.0  0.50724  0.95318  0.27773  1.0000
  C   C343      1.0  0.54152  0.93889  0.28371  1.0000
  S   S98       1.0  0.66070  0.98724  0.32675  1.0000
  C   C344      1.0  0.56807  0.95853  0.30239  1.0000
  C   C345      1.0  0.62647  0.94852  0.18023  1.0000
  C   C346      1.0  0.36540  0.93921  0.10778  1.0000
  H   H386      1.0  0.56583  0.98098  0.41064  1.0000
  H   H387      1.0  0.49334  0.95398  0.20217  1.0000
  C   C347      1.0  0.35079  0.87254  0.07136  1.0000
  H   H388      1.0  0.50966  0.89505  0.22729  1.0000
  H   H389      1.0  0.46498  0.88179  0.23464  1.0000
  H   H390      1.0  0.49487  0.88088  0.27470  1.0000
  H   H391      1.0  0.42485  0.91618  0.26948  1.0000
  H   H392      1.0  0.45261  0.92065  0.31160  1.0000
  H   H393      1.0  0.43515  0.95877  0.28776  1.0000
  H   H394      1.0  0.54866  0.91279  0.27378  1.0000
  S   S99       1.0  0.41041  0.99229  0.36465  1.0000
  H   H395      1.0  0.59412  0.94728  0.30666  1.0000
  H   H396      1.0  0.39714  0.82749  0.10152  1.0000
  H   H397      1.0  0.42101  0.54922  0.03771  1.0000
  S   S100      1.0  0.66983  0.91976  0.39820  1.0000
  H   H398      1.0  0.59205  0.92327  0.40266  1.0000
  N   N22       1.0  0.45629  0.59255  0.02299  1.0000
  C   C348      1.0  0.51070  0.00501  0.01581  1.0000
  H   H399      1.0  0.63216  0.78087  0.30601  1.0000
  C   C349      1.0  0.51242  0.96276  0.40172  1.0000
  C   C350      1.0  0.46013  0.63098  0.03099  1.0000
  H   H400      1.0  0.42855  0.57974  0.07603  1.0000
  H   H401      1.0  0.50098  0.98881  0.40533  1.0000
  S   S101      1.0  0.41352  0.95866  0.01655  1.0000
  H   H402      1.0  0.58238  0.00784  0.32949  1.0000
  C   C351      1.0  0.54885  0.95827  0.40478  1.0000
  H   H403      1.0  0.44872  0.93705  0.20475  1.0000
  H   H404      1.0  0.59339  0.95509  0.13030  1.0000
  C   C352      1.0  0.67674  0.98862  0.18515  1.0000
  H   H405      1.0  0.62808  0.00416  0.10348  1.0000
  C   C353      1.0  0.49065  0.93363  0.39405  1.0000
  S   S102      1.0  0.67828  0.82666  0.35079  1.0000
  H   H406      1.0  0.56066  0.86419  0.32529  1.0000
  H   H407      1.0  0.47230  0.73216  0.05491  1.0000
  H   H408      1.0  0.46223  0.93697  0.39207  1.0000
  H   H409      1.0  0.37068  0.88566  0.05229  1.0000
  C   C354      1.0  0.46966  0.95157  0.22114  1.0000
  H   H410      1.0  0.66338  0.94866  0.22756  1.0000
  H   H411      1.0  0.52025  0.84349  0.34134  1.0000
  H   H412      1.0  0.36319  0.93910  0.07667  1.0000
  H   H413      1.0  0.40070  0.59219  0.03615  1.0000
  C   C355      1.0  0.61676  0.96446  0.14550  1.0000
  C   C356      1.0  0.42528  0.57793  0.04415  1.0000
  H   H414      1.0  0.34774  0.88707  0.31329  1.0000
  H   H415      1.0  0.36936  0.99630  0.10758  1.0000
  C   C357      1.0  0.44669  0.85731  0.00843  1.0000
  C   C358      1.0  0.37241  0.97528  0.16523  1.0000
  C   C359      1.0  0.37312  0.94474  0.18789  1.0000
  C   C360      1.0  0.37040  0.91128  0.17064  1.0000
  N   N23       1.0  0.36260  0.87176  0.11240  1.0000
  H   H416      1.0  0.37610  0.94713  0.21903  1.0000
  C   C361      1.0  0.36547  0.90747  0.13010  1.0000
  H   H417      1.0  0.60181  0.00826  0.02547  1.0000
  C   C362      1.0  0.65627  0.96069  0.20011  1.0000
  H   H418      1.0  0.53703  0.00998  0.02919  1.0000
  C   C363      1.0  0.66779  0.00521  0.14950  1.0000
  H   H419      1.0  0.34727  0.84534  0.05933  1.0000
  H   H420      1.0  0.44500  0.54741  0.49041  1.0000
  Fe  Fe50      1.0  0.38797  0.96029  0.95782  1.0000
  C   C364      1.0  0.55982  0.98144  0.95855  1.0000
  H   H421      1.0  0.53078  0.98825  0.74342  1.0000
  Fe  Fe51      1.0  0.37513  0.92053  0.88286  1.0000
  S   S103      1.0  0.38676  0.86841  0.85405  1.0000
  S   S104      1.0  0.42197  0.94899  0.90697  1.0000
  C   C365      1.0  0.63932  0.98412  0.58427  1.0000
  Fe  Fe52      1.0  0.52669  0.83417  0.69628  1.0000
  S   S105      1.0  0.54681  0.78590  0.72703  1.0000
  S   S106      1.0  0.49898  0.88232  0.71964  1.0000
  Fe  Fe53      1.0  0.56725  0.81821  0.62277  1.0000
  S   S107      1.0  0.59224  0.76892  0.64682  1.0000
  S   S108      1.0  0.56960  0.84065  0.56245  1.0000
  Fe  Fe54      1.0  0.53817  0.75692  0.67048  1.0000
  S   S109      1.0  0.51403  0.70135  0.67088  1.0000
  Fe  Fe55      1.0  0.59917  0.80086  0.70138  1.0000
  H   H422      1.0  0.59797  0.78420  0.85457  1.0000
  S   S110      1.0  0.51240  0.80413  0.64248  1.0000
  S   S111      1.0  0.58003  0.85100  0.67467  1.0000
  S   S112      1.0  0.57229  0.57088  0.57294  1.0000
  C   C366      1.0  0.53011  0.66540  0.64304  1.0000
  C   C367      1.0  0.55805  0.66975  0.61695  1.0000
  C   C368      1.0  0.57045  0.64051  0.59573  1.0000
  C   C369      1.0  0.55496  0.60668  0.60008  1.0000
  C   C370      1.0  0.52721  0.60225  0.62639  1.0000
  C   C371      1.0  0.51477  0.63152  0.64760  1.0000
  H   H423      1.0  0.57003  0.69564  0.61295  1.0000
  H   H424      1.0  0.59209  0.64416  0.57563  1.0000
  H   H425      1.0  0.51580  0.57619  0.63097  1.0000
  H   H426      1.0  0.49334  0.62782  0.66795  1.0000
  C   C372      1.0  0.60722  0.86486  0.54808  1.0000
  C   C373      1.0  0.53216  0.00490  0.94793  1.0000
  H   H427      1.0  0.63213  0.68944  0.78972  1.0000
  C   C374      1.0  0.61681  0.84318  0.79128  1.0000
  H   H428      1.0  0.59229  0.87661  0.83389  1.0000
  H   H429      1.0  0.59211  0.83659  0.77708  1.0000
  C   C375      1.0  0.41936  0.87153  0.81797  1.0000
  C   C376      1.0  0.42769  0.84174  0.79563  1.0000
  C   C377      1.0  0.45331  0.84421  0.76628  1.0000
  C   C378      1.0  0.47051  0.87655  0.75924  1.0000
  C   C379      1.0  0.46305  0.90593  0.78245  1.0000
  C   C380      1.0  0.43735  0.90354  0.81148  1.0000
  H   H430      1.0  0.41388  0.81688  0.80062  1.0000
  H   H431      1.0  0.45890  0.82144  0.74836  1.0000
  H   H432      1.0  0.47680  0.93077  0.77759  1.0000
  H   H433      1.0  0.43112  0.92668  0.82841  1.0000
  C   C381      1.0  0.64854  0.82918  0.77759  1.0000
  H   H434      1.0  0.64582  0.90393  0.66910  1.0000
  C   C382      1.0  0.65810  0.69976  0.69662  1.0000
  C   C383      1.0  0.56098  0.81902  0.88228  1.0000
  N   N24       1.0  0.40509  0.98105  0.71888  1.0000
  C   C384      1.0  0.61519  0.98578  0.70944  1.0000
  S   S113      1.0  0.35392  0.96838  0.85212  1.0000
  C   C385      1.0  0.55347  0.00083  0.88088  1.0000
  C   C386      1.0  0.41014  0.96106  0.64865  1.0000
  C   C387      1.0  0.62546  0.95139  0.72183  1.0000
  C   C388      1.0  0.59958  0.93087  0.74167  1.0000
  H   H435      1.0  0.42702  0.59633  0.96947  1.0000
  C   C389      1.0  0.47428  0.69368  0.56242  1.0000
  C   C390      1.0  0.58383  0.96883  0.93113  1.0000
  H   H436      1.0  0.60523  0.95150  0.93985  1.0000
  H   H437      1.0  0.40274  0.63994  0.56907  1.0000
  H   H438      1.0  0.43215  0.98535  0.77387  1.0000
  H   H439      1.0  0.56587  0.88879  0.90590  1.0000
  N   N25       1.0  0.54407  0.95873  0.60814  1.0000
  C   C391      1.0  0.52516  0.84871  0.95203  1.0000
  H   H440      1.0  0.54674  0.92767  0.76460  1.0000
  H   H441      1.0  0.52504  0.67964  0.53973  1.0000
  H   H442      1.0  0.49337  0.56512  0.55964  1.0000
  H   H443      1.0  0.50725  0.00165  0.61523  1.0000
  H   H444      1.0  0.60545  0.90468  0.75223  1.0000
  H   H445      1.0  0.39969  0.54883  0.53536  1.0000
  H   H446      1.0  0.64724  0.88167  0.71511  1.0000
  C   C392      1.0  0.39647  0.94334  0.72769  1.0000
  H   H447      1.0  0.64201  0.56831  0.77455  1.0000
  H   H448      1.0  0.52419  0.98333  0.65987  1.0000
  C   C393      1.0  0.55075  0.92450  0.62796  1.0000
  C   C394      1.0  0.55674  0.97788  0.73698  1.0000
  H   H449      1.0  0.51765  0.86915  0.97365  1.0000
  C   C395      1.0  0.57739  0.97961  0.60553  1.0000
  H   H450      1.0  0.60655  0.93898  0.57447  1.0000
  H   H451      1.0  0.41867  0.92550  0.71986  1.0000
  C   C396      1.0  0.44002  0.68203  0.57046  1.0000
  C   C397      1.0  0.63687  0.89993  0.49857  1.0000
  H   H452      1.0  0.45703  0.53465  0.56187  1.0000
  H   H453      1.0  0.46107  0.84593  0.91868  1.0000
  H   H454      1.0  0.49130  0.77823  0.81266  1.0000
  H   H455      1.0  0.56241  0.92886  0.65718  1.0000
  C   C398      1.0  0.53061  0.95143  0.56862  1.0000
  C   C399      1.0  0.56583  0.94396  0.74911  1.0000
  C   C400      1.0  0.42950  0.64730  0.56154  1.0000
  C   C401      1.0  0.52566  0.83132  0.88447  1.0000
  H   H456      1.0  0.55388  0.84408  0.95626  1.0000
  H   H457      1.0  0.40297  0.93395  0.65537  1.0000
  H   H458      1.0  0.55322  0.75770  0.81071  1.0000
  C   C402      1.0  0.40593  0.57705  0.54261  1.0000
  C   C403      1.0  0.45342  0.62303  0.54442  1.0000
  H   H459      1.0  0.56890  0.90720  0.61139  1.0000
  C   C404      1.0  0.37451  0.00259  0.73122  1.0000
  H   H460      1.0  0.46024  0.97664  0.73295  1.0000
  H   H461      1.0  0.63612  0.85808  0.60128  1.0000
  H   H462      1.0  0.47000  0.87947  0.88250  1.0000
  H   H463      1.0  0.48261  0.72031  0.57031  1.0000
  H   H464      1.0  0.66219  0.72898  0.69965  1.0000
  C   C405      1.0  0.54557  0.77790  0.83122  1.0000
  C   C406      1.0  0.61691  0.86579  0.82360  1.0000
  C   C407      1.0  0.63586  0.58589  0.75063  1.0000
  H   H465      1.0  0.53211  0.90057  0.87180  1.0000
  H   H466      1.0  0.56370  0.97267  0.98794  1.0000
  H   H467      1.0  0.47205  0.89023  0.93257  1.0000
  H   H468      1.0  0.60570  0.58288  0.65816  1.0000
  N   N26       1.0  0.66167  0.93752  0.71650  1.0000
  H   H469      1.0  0.38913  0.59371  0.52351  1.0000
  C   C408      1.0  0.63624  0.86986  0.57274  1.0000
  C   C409      1.0  0.64953  0.69737  0.76520  1.0000
  N   N27       1.0  0.63480  0.68531  0.72751  1.0000
  H   H470      1.0  0.54908  0.93477  0.55159  1.0000
  H   H471      1.0  0.47324  0.82330  0.85796  1.0000
  C   C410      1.0  0.61545  0.59401  0.68516  1.0000
  C   C411      1.0  0.46435  0.56310  0.56457  1.0000
  C   C412      1.0  0.57066  0.79266  0.85609  1.0000
  C   C413      1.0  0.58127  0.99863  0.71698  1.0000
  H   H472      1.0  0.58781  0.69636  0.69401  1.0000
  H   H473      1.0  0.61235  0.64691  0.66457  1.0000
  C   C414      1.0  0.50068  0.81567  0.85867  1.0000
  C   C415      1.0  0.61944  0.63071  0.68908  1.0000
  H   H474      1.0  0.58017  0.68960  0.74443  1.0000
  C   C416      1.0  0.66028  0.90241  0.69711  1.0000
  C   C417      1.0  0.47824  0.86912  0.91127  1.0000
  N   N28       1.0  0.44413  0.58537  0.53724  1.0000
  H   H475      1.0  0.58166  0.83019  0.90034  1.0000
  C   C418      1.0  0.41672  0.96874  0.60968  1.0000
  H   H476      1.0  0.47468  0.59263  0.96394  1.0000
  H   H477      1.0  0.66416  0.91404  0.77347  1.0000
  S   S114      1.0  0.64817  0.90338  0.88255  1.0000
  C   C419      1.0  0.59925  0.70106  0.72321  1.0000
  C   C420      1.0  0.51564  0.97684  0.62994  1.0000
  H   H478      1.0  0.51097  0.82371  0.96006  1.0000
  H   H479      1.0  0.66176  0.97254  0.56948  1.0000
  H   H480      1.0  0.52601  0.90857  0.63190  1.0000
  H   H481      1.0  0.41428  0.94803  0.58807  1.0000
  C   C421      1.0  0.42620  0.00298  0.59831  1.0000
  C   C422      1.0  0.60747  0.88026  0.51123  1.0000
  H   H482      1.0  0.36849  0.99875  0.76253  1.0000
  C   C423      1.0  0.66616  0.90459  0.52277  1.0000
  H   H483      1.0  0.39760  0.58045  0.57322  1.0000
  C   C424      1.0  0.53684  0.89239  0.90235  1.0000
  H   H484      1.0  0.60012  0.73030  0.72741  1.0000
  H   H485      1.0  0.43103  0.00885  0.56806  1.0000
  H   H486      1.0  0.52934  0.91497  0.92120  1.0000
  H   H487      1.0  0.49150  0.95988  0.63253  1.0000
  N   N29       1.0  0.51635  0.85981  0.91196  1.0000
  S   S115      1.0  0.64914  0.80108  0.73684  1.0000
  H   H488      1.0  0.50490  0.93682  0.56923  1.0000
  Fe  Fe56      1.0  0.39902  0.99775  0.88026  1.0000
  C   C425      1.0  0.41262  0.98788  0.67747  1.0000
  C   C426      1.0  0.64874  0.87483  0.84219  1.0000
  S   S116      1.0  0.36834  0.01156  0.93359  1.0000
  C   C427      1.0  0.58063  0.97844  0.89240  1.0000
  H   H489      1.0  0.45666  0.65065  0.97122  1.0000
  C   C428      1.0  0.45137  0.58404  0.98135  1.0000
  C   C429      1.0  0.51071  0.78945  0.83242  1.0000
  C   C430      1.0  0.60756  0.96504  0.58731  1.0000
  H   H490      1.0  0.52667  0.97664  0.55231  1.0000
  H   H491      1.0  0.64688  0.69573  0.66721  1.0000
  H   H492      1.0  0.45926  0.57096  0.59505  1.0000
  C   C431      1.0  0.63182  0.64623  0.72399  1.0000
  C   C432      1.0  0.63998  0.62262  0.75484  1.0000
  H   H493      1.0  0.39130  0.93915  0.75912  1.0000
  H   H494      1.0  0.49575  0.01324  0.49481  1.0000
  H   H495      1.0  0.46401  0.98871  0.95910  1.0000
  H   H496      1.0  0.44849  0.55489  0.97657  1.0000
  H   H497      1.0  0.62017  0.54319  0.71283  1.0000
  C   C433      1.0  0.45345  0.57518  0.49706  1.0000
  H   H498      1.0  0.35030  0.99551  0.71446  1.0000
  H   H499      1.0  0.59938  0.96854  0.87135  1.0000
  C   C434      1.0  0.62358  0.57163  0.71591  1.0000
  C   C435      1.0  0.66561  0.88995  0.56014  1.0000
  H   H500      1.0  0.42171  0.69989  0.58439  1.0000
  H   H501      1.0  0.37210  0.93425  0.71242  1.0000
  C   C436      1.0  0.43634  0.99115  0.74254  1.0000
  C   C437      1.0  0.48819  0.63580  0.53684  1.0000
  H   H502      1.0  0.65576  0.00182  0.98506  1.0000
  H   H503      1.0  0.50842  0.61851  0.52570  1.0000
  C   C438      1.0  0.49817  0.67072  0.54524  1.0000
  H   H504      1.0  0.63313  0.00371  0.69481  1.0000
  H   H505      1.0  0.67339  0.96562  0.66357  1.0000
  H   H506      1.0  0.41102  0.89129  0.97716  1.0000
  H   H507      1.0  0.58478  0.87705  0.49246  1.0000
  H   H508      1.0  0.48239  0.57597  0.49170  1.0000
  H   H509      1.0  0.67655  0.68676  0.77011  1.0000
  H   H510      1.0  0.65199  0.72687  0.76652  1.0000
  H   H511      1.0  0.55107  0.00843  0.85071  1.0000
  C   C439      1.0  0.52977  0.01414  0.90817  1.0000
  H   H512      1.0  0.64938  0.63177  0.78260  1.0000
  Fe  Fe57      1.0  0.55045  0.51554  0.55911  1.0000
  H   H513      1.0  0.46411  0.71296  0.98721  1.0000
  H   H514      1.0  0.44078  0.83428  0.99086  1.0000
  C   C440      1.0  0.67859  0.93334  0.75494  1.0000
  C   C441      1.0  0.58084  0.01481  0.61983  1.0000
  H   H515      1.0  0.67938  0.95894  0.77093  1.0000
  Fe  Fe58      1.0  0.85648  0.43316  0.36133  1.0000
  S   S117      1.0  0.90350  0.44925  0.39711  1.0000
  S   S118      1.0  0.86245  0.40092  0.30660  1.0000
  Fe  Fe59      1.0  0.80510  0.47829  0.40832  1.0000
  C   C442      1.0  0.98569  0.46922  0.15785  1.0000
  N   N30       1.0  0.68891  0.03462  0.13247  1.0000
  C   C443      1.0  0.70154  0.02440  0.09346  1.0000
  H   H516      1.0  0.71601  0.38852  0.27325  1.0000
  Fe  Fe60      1.0  0.86706  0.44188  0.44766  1.0000
  H   H517      1.0  0.98334  0.43432  0.26306  1.0000
  S   S119      1.0  0.83604  0.48855  0.35363  1.0000
  S   S120      1.0  0.82113  0.42121  0.41247  1.0000
  N   N31       1.0  0.00571  0.26333  0.49076  1.0000
  H   H518      1.0  0.95295  0.28426  0.49001  1.0000
  C   C444      1.0  0.72038  0.04484  0.15587  1.0000
  H   H519      1.0  0.72402  0.43195  0.41032  1.0000
  H   H520      1.0  0.70305  0.40900  0.07850  1.0000
  C   C445      1.0  0.73480  0.46090  0.32778  1.0000
  H   H521      1.0  0.94280  0.50922  0.99809  1.0000
  H   H522      1.0  0.76697  0.42026  0.30264  1.0000
  C   C446      1.0  0.97328  0.35874  0.28011  1.0000
  C   C447      1.0  0.94769  0.36019  0.25089  1.0000
  C   C448      1.0  0.91350  0.37261  0.25933  1.0000
  C   C449      1.0  0.90480  0.38355  0.29693  1.0000
  C   C450      1.0  0.93036  0.38160  0.32606  1.0000
  C   C451      1.0  0.96444  0.36949  0.31764  1.0000
  H   H523      1.0  0.95427  0.35199  0.22184  1.0000
  H   H524      1.0  0.89384  0.37394  0.23662  1.0000
  H   H525      1.0  0.92377  0.38887  0.35528  1.0000
  H   H526      1.0  0.71759  0.09629  0.27718  1.0000
  H   H527      1.0  0.99106  0.33992  0.00693  1.0000
  H   H528      1.0  0.93330  0.51061  0.45057  1.0000
  H   H529      1.0  0.93696  0.45297  0.29537  1.0000
  H   H530      1.0  0.68166  0.08956  0.11687  1.0000
  C   C452      1.0  0.69541  0.04660  0.29747  1.0000
  N   N32       1.0  0.94608  0.49643  0.25512  1.0000
  C   C453      1.0  0.69665  0.07682  0.27342  1.0000
  H   H531      1.0  0.98903  0.49183  0.29587  1.0000
  C   C454      1.0  0.96766  0.48874  0.18584  1.0000
  H   H532      1.0  0.98398  0.36825  0.34045  1.0000
  H   H533      1.0  0.75711  0.47468  0.34082  1.0000
  H   H534      1.0  0.93299  0.47244  0.48125  1.0000
  C   C455      1.0  0.92231  0.47229  0.27734  1.0000
  H   H535      1.0  0.71516  0.04293  0.31976  1.0000
  C   C456      1.0  0.96512  0.47661  0.22474  1.0000
  C   C457      1.0  0.97224  0.51232  0.28207  1.0000
  C   C458      1.0  0.00064  0.49203  0.47218  1.0000
  H   H536      1.0  0.94507  0.41064  0.46617  1.0000
  H   H537      1.0  0.73895  0.02235  0.15925  1.0000
  C   C459      1.0  0.70060  0.47378  0.33320  1.0000
  C   C460      1.0  0.98315  0.44482  0.23398  1.0000
  H   H538      1.0  0.83847  0.51345  0.02549  1.0000
  C   C461      1.0  0.70413  0.44783  0.42436  1.0000
  H   H539      1.0  0.96584  0.50637  0.06541  1.0000
  H   H540      1.0  0.90448  0.45690  0.25775  1.0000
  H   H541      1.0  0.90529  0.48693  0.29806  1.0000
  Fe  Fe61      1.0  0.88101  0.50390  0.39236  1.0000
  C   C462      1.0  0.00275  0.49724  0.43156  1.0000
  H   H542      1.0  0.95614  0.51332  0.17617  1.0000
  S   S121      1.0  0.84904  0.49827  0.44648  1.0000
  H   H543      1.0  0.71261  0.05454  0.18504  1.0000
  H   H544      1.0  0.71791  0.04576  0.07985  1.0000
  C   C463      1.0  0.69506  0.37485  0.00793  1.0000
  C   C464      1.0  0.71192  0.48292  0.43460  1.0000
  C   C465      1.0  0.74033  0.43021  0.30641  1.0000
  S   S122      1.0  0.75243  0.50382  0.42225  1.0000
  H   H545      1.0  0.73137  0.49805  0.00214  1.0000
  H   H546      1.0  0.73554  0.06704  0.14222  1.0000
  H   H547      1.0  0.69856  0.49745  0.35058  1.0000
  H   H548      1.0  0.99963  0.24403  0.41196  1.0000
  C   C466      1.0  0.71159  0.41236  0.29001  1.0000
  H   H549      1.0  0.97006  0.22487  0.46505  1.0000
  C   C467      1.0  0.68585  0.50316  0.45291  1.0000
  H   H550      1.0  0.73105  0.41991  0.01900  1.0000
  H   H551      1.0  0.98731  0.47901  0.12840  1.0000
  C   C468      1.0  0.01080  0.26998  0.41746  1.0000
  H   H552      1.0  0.00357  0.39006  0.48942  1.0000
  C   C469      1.0  0.00110  0.42556  0.20575  1.0000
  C   C470      1.0  0.72545  0.39666  0.00183  1.0000
  C   C471      1.0  0.93766  0.50151  0.48069  1.0000
  H   H553      1.0  0.68303  0.11065  0.00777  1.0000
  H   H554      1.0  0.69002  0.34233  0.07584  1.0000
  C   C472      1.0  0.99459  0.22611  0.48283  1.0000
  C   C473      1.0  0.00210  0.43754  0.16768  1.0000
  H   H555      1.0  0.99631  0.29151  0.04998  1.0000
  H   H556      1.0  0.87982  0.01506  0.43075  1.0000
  H   H557      1.0  0.00954  0.15848  0.07984  1.0000
  H   H558      1.0  0.00947  0.23998  0.00695  1.0000
  H   H559      1.0  0.98437  0.51440  0.41669  1.0000
  H   H560      1.0  0.74633  0.45675  0.88778  1.0000
  Fe  Fe62      1.0  0.90335  0.45096  0.88035  1.0000
  S   S123      1.0  0.94250  0.40740  0.86887  1.0000
  H   H561      1.0  0.71006  0.31632  0.93384  1.0000
  C   C474      1.0  0.69025  0.16212  0.85997  1.0000
  H   H562      1.0  0.85847  0.47859  0.62542  1.0000
  C   C475      1.0  0.97582  0.28125  0.51003  1.0000
  H   H563      1.0  0.68766  0.44248  0.52911  1.0000
  H   H564      1.0  0.86461  0.37452  0.68001  1.0000
  S   S124      1.0  0.98731  0.19813  0.59498  1.0000
  C   C476      1.0  0.97447  0.50176  0.53702  1.0000
  H   H565      1.0  0.97993  0.47591  0.74898  1.0000
  Fe  Fe63      1.0  0.97079  0.30581  0.68038  1.0000
  H   H566      1.0  0.93583  0.42709  0.66654  1.0000
  S   S125      1.0  0.92158  0.32297  0.71190  1.0000
  H   H567      1.0  0.99169  0.34789  0.88422  1.0000
  H   H568      1.0  0.77204  0.40686  0.96756  1.0000
  H   H569      1.0  0.91669  0.39596  0.69930  1.0000
  C   C477      1.0  0.74342  0.47822  0.94530  1.0000
  H   H570      1.0  0.91011  0.48779  0.66045  1.0000
  H   H571      1.0  0.94954  0.09816  0.72417  1.0000
  C   C478      1.0  0.99868  0.13196  0.56495  1.0000
  S   S126      1.0  0.96928  0.29458  0.61678  1.0000
  H   H572      1.0  0.95925  0.14418  0.71807  1.0000
  H   H573      1.0  0.96028  0.37266  0.60271  1.0000
  S   S127      1.0  0.72512  0.02153  0.77842  1.0000
  H   H574      1.0  0.84093  0.45332  0.72687  1.0000
  S   S128      1.0  0.87783  0.41963  0.50720  1.0000
  H   H575      1.0  0.97155  0.13343  0.55511  1.0000
  H   H576      1.0  0.74619  0.45161  0.50112  1.0000
  C   C479      1.0  0.99162  0.10788  0.66324  1.0000
  C   C480      1.0  0.68391  0.48100  0.97273  1.0000
  C   C481      1.0  0.98585  0.37977  0.54764  1.0000
  C   C482      1.0  0.92437  0.39344  0.56006  1.0000
  N   N33       1.0  0.00266  0.10966  0.70434  1.0000
  N   N34       1.0  0.97351  0.51071  0.49517  1.0000
  H   H577      1.0  0.90243  0.39437  0.57996  1.0000
  C   C483      1.0  0.71144  0.11159  0.89476  1.0000
  Fe  Fe64      1.0  0.83567  0.48585  0.90986  1.0000
  C   C484      1.0  0.91974  0.40422  0.52159  1.0000
  S   S129      1.0  0.88814  0.47322  0.93823  1.0000
  H   H578      1.0  0.98839  0.21135  0.51004  1.0000
  C   C485      1.0  0.74389  0.36058  0.94777  1.0000
  S   S130      1.0  0.92563  0.50260  0.85999  1.0000
  C   C486      1.0  0.93668  0.38440  0.82498  1.0000
  C   C487      1.0  0.96612  0.37016  0.80606  1.0000
  C   C488      1.0  0.96186  0.35115  0.77137  1.0000
  C   C489      1.0  0.92803  0.34560  0.75596  1.0000
  C   C490      1.0  0.89863  0.35944  0.77518  1.0000
  C   C491      1.0  0.90296  0.37928  0.80922  1.0000
  H   H579      1.0  0.68738  0.11494  0.80029  1.0000
  H   H580      1.0  0.98468  0.34030  0.75693  1.0000
  H   H581      1.0  0.87237  0.35451  0.76384  1.0000
  H   H582      1.0  0.88006  0.38950  0.82402  1.0000
  C   C492      1.0  0.72908  0.46373  0.91142  1.0000
  S   S131      1.0  0.99975  0.25564  0.69337  1.0000
  H   H583      1.0  0.82721  0.45171  0.57151  1.0000
  H   H584      1.0  0.96962  0.47288  0.54187  1.0000
  S   S132      1.0  0.71383  0.05154  0.97025  1.0000
  H   H585      1.0  0.71814  0.17183  0.85877  1.0000
  H   H586      1.0  0.86028  0.41058  0.73371  1.0000
  C   C493      1.0  0.76192  0.39739  0.50787  1.0000
  C   C494      1.0  0.75200  0.36366  0.52059  1.0000
  S   S133      1.0  0.78963  0.48393  0.95251  1.0000
  Fe  Fe65      1.0  0.87194  0.51184  0.83579  1.0000
  H   H587      1.0  0.87041  0.49843  0.68744  1.0000
  H   H588      1.0  0.98345  0.13447  0.65248  1.0000
  C   C495      1.0  0.98925  0.34620  0.94622  1.0000
  H   H589      1.0  0.91108  0.49171  0.71200  1.0000
  H   H590      1.0  0.99279  0.05408  0.71602  1.0000
  H   H591      1.0  0.89236  0.03172  0.97128  1.0000
  H   H592      1.0  0.76230  0.35552  0.92448  1.0000
  S   S134      1.0  0.84974  0.45862  0.85362  1.0000
  H   H593      1.0  0.98323  0.30824  0.52032  1.0000
  H   H594      1.0  0.97723  0.11998  0.75893  1.0000
  H   H595      1.0  0.00562  0.07834  0.54416  1.0000
  C   C496      1.0  0.97911  0.48955  0.77741  1.0000
  H   H596      1.0  0.97021  0.47023  0.79992  1.0000
  H   H597      1.0  0.83278  0.34946  0.62516  1.0000
  C   C497      1.0  0.82756  0.39916  0.59526  1.0000
  H   H598      1.0  0.81437  0.38757  0.57045  1.0000
  C   C498      1.0  0.95718  0.38107  0.57299  1.0000
  C   C499      1.0  0.94841  0.40287  0.49607  1.0000
  C   C500      1.0  0.83496  0.43539  0.59593  1.0000
  N   N35       1.0  0.88634  0.44369  0.69106  1.0000
  C   C501      1.0  0.86648  0.43885  0.72768  1.0000
  C   C502      1.0  0.92044  0.42467  0.69386  1.0000
  C   C503      1.0  0.89481  0.48205  0.68723  1.0000
  C   C504      1.0  0.86533  0.42917  0.65844  1.0000
  C   C505      1.0  0.85345  0.45041  0.62703  1.0000
  C   C506      1.0  0.85660  0.39244  0.65717  1.0000
  C   C507      1.0  0.97088  0.11851  0.72751  1.0000
  C   C508      1.0  0.83814  0.37775  0.62594  1.0000
  C   C509      1.0  0.00209  0.33589  0.91030  1.0000
  H   H599      1.0  0.96650  0.26611  0.53586  1.0000
  H   H600      1.0  0.70624  0.06514  0.71287  1.0000
  C   C510      1.0  0.70509  0.41992  0.52781  1.0000
  C   C511      1.0  0.98153  0.39107  0.50924  1.0000
  H   H601      1.0  0.93699  0.43456  0.71820  1.0000
  C   C512      1.0  0.70282  0.10758  0.82645  1.0000
  H   H602      1.0  0.88160  0.44908  0.75310  1.0000
  H   H603      1.0  0.98006  0.46132  0.91732  1.0000
  H   H604      1.0  0.99228  0.37381  0.81816  1.0000
  Fe  Fe66      1.0  0.00344  0.24740  0.62909  1.0000
  C   C513      1.0  0.72062  0.48682  0.97583  1.0000
  H   H605      1.0  0.96907  0.36646  0.94765  1.0000
  H   H606      1.0  0.73913  0.12131  0.89117  1.0000
  H   H607      1.0  0.73068  0.11614  0.82139  1.0000
  C   C514      1.0  0.71867  0.35782  0.53720  1.0000
  C   C515      1.0  0.73855  0.42546  0.51157  1.0000
  H   H608      1.0  0.95808  0.50997  0.77537  1.0000
  H   H609      1.0  0.01143  0.43077  0.77844  1.0000
  N   N36       1.0  0.68819  0.12285  0.86240  1.0000
  C   C516      1.0  0.68451  0.04015  0.76383  1.0000
  C   C517      1.0  0.00851  0.46447  0.92018  1.0000
  H   H610      1.0  0.71269  0.33102  0.54623  1.0000
  C   C518      1.0  0.69037  0.34554  0.98267  1.0000
  H   H611      1.0  0.77025  0.34185  0.51727  1.0000
  H   H612      1.0  0.00370  0.50572  0.96094  1.0000
  H   H613      1.0  0.71320  0.08217  0.89640  1.0000
  H   H614      1.0  0.70192  0.12161  0.92315  1.0000
  H   H615      1.0  0.70282  0.07815  0.82822  1.0000
  C   C519      1.0  0.69415  0.38595  0.54143  1.0000
  C   C520      1.0  0.74940  0.38944  0.97216  1.0000
  C   C521      1.0  0.00210  0.33051  0.98011  1.0000
  H   H616      1.0  0.00460  0.50677  0.84863  1.0000
  H   H617      1.0  0.96898  0.08926  0.65873  1.0000
  C   C522      1.0  0.68282  0.06136  0.73040  1.0000
  C   C523      1.0  0.69227  0.45743  0.90857  1.0000
  H   H618      1.0  0.00514  0.17429  0.74595  1.0000
  C   C524      1.0  0.71447  0.33859  0.95307  1.0000
  H   H619      1.0  0.00028  0.50949  0.55028  1.0000
  H   H620      1.0  0.68139  0.44579  0.88252  1.0000
  H   H621      1.0  0.91651  0.51389  0.49834  1.0000
  H   H622      1.0  0.78774  0.40181  0.49491  1.0000
  H   H623      1.0  0.01322  0.09859  0.64412  1.0000
  H   H624      1.0  0.97501  0.55897  0.46107  1.0000
  S   S135      1.0  0.95430  0.65244  0.13750  1.0000
  H   H625      1.0  0.83363  0.83552  0.32456  1.0000
  C   C525      1.0  0.84377  0.70669  0.30249  1.0000
  C   C526      1.0  0.83935  0.72948  0.27118  1.0000
  Fe  Fe67      1.0  0.94835  0.65142  0.20214  1.0000
  S   S136      1.0  0.89615  0.64366  0.23254  1.0000
  H   H626      1.0  0.89840  0.93183  0.12052  1.0000
  C   C527      1.0  0.81081  0.74692  0.34311  1.0000
  H   H627      1.0  0.76315  0.80264  0.25810  1.0000
  H   H628      1.0  0.83024  0.98904  0.48741  1.0000
  C   C528      1.0  0.82953  0.71537  0.33833  1.0000
  C   C529      1.0  0.90935  0.87963  0.04088  1.0000
  Fe  Fe68      1.0  0.70300  0.87716  0.37316  1.0000
  H   H629      1.0  0.92415  0.89354  0.48934  1.0000
  H   H630      1.0  0.78821  0.58455  0.07931  1.0000
  Fe  Fe69      1.0  0.77081  0.92009  0.38308  1.0000
  S   S137      1.0  0.74245  0.96748  0.40784  1.0000
  S   S138      1.0  0.82852  0.90645  0.37432  1.0000
  C   C530      1.0  0.79786  0.56941  0.00841  1.0000
  Fe  Fe70      1.0  0.71230  0.92660  0.44255  1.0000
  Fe  Fe71      1.0  0.70170  0.95688  0.36094  1.0000
  S   S139      1.0  0.98755  0.60822  0.21121  1.0000
  S   S140      1.0  0.74297  0.88031  0.42087  1.0000
  S   S141      1.0  0.73278  0.91318  0.33335  1.0000
  C   C531      1.0  0.01302  0.85819  0.12656  1.0000
  C   C532      1.0  0.86221  0.93210  0.39656  1.0000
  C   C533      1.0  0.89576  0.91726  0.40245  1.0000
  C   C534      1.0  0.92336  0.93739  0.41919  1.0000
  C   C535      1.0  0.91767  0.97271  0.42957  1.0000
  C   C536      1.0  0.88430  0.98766  0.42308  1.0000
  C   C537      1.0  0.85654  0.96735  0.40707  1.0000
  Fe  Fe72      1.0  0.99636  0.61196  0.14735  1.0000
  H   H631      1.0  0.94166  0.95928  0.07150  1.0000
  H   H632      1.0  0.98841  0.61825  0.06231  1.0000
  H   H633      1.0  0.83095  0.97916  0.40226  1.0000
  S   S142      1.0  0.99612  0.55974  0.11542  1.0000
  C   C538      1.0  0.90185  0.61907  0.27546  1.0000
  C   C539      1.0  0.87361  0.59934  0.29097  1.0000
  C   C540      1.0  0.87878  0.57776  0.32374  1.0000
  C   C541      1.0  0.91208  0.57636  0.34143  1.0000
  C   C542      1.0  0.93985  0.59721  0.32677  1.0000
  C   C543      1.0  0.93483  0.61831  0.29380  1.0000
  H   H634      1.0  0.84792  0.60010  0.27717  1.0000
  H   H635      1.0  0.80053  0.75190  0.37167  1.0000
  Fe  Fe73      1.0  0.01202  0.98819  0.01952  1.0000
  H   H636      1.0  0.95649  0.63430  0.28284  1.0000
  H   H637      1.0  0.88266  0.59809  0.99787  1.0000
  H   H638      1.0  0.90043  0.89010  0.39399  1.0000
  C   C544      1.0  0.01007  0.78398  0.11478  1.0000
  C   C545      1.0  0.93560  0.82074  0.03246  1.0000
  H   H639      1.0  0.87976  0.53394  0.01199  1.0000
  H   H640      1.0  0.78515  0.59544  0.01374  1.0000
  C   C546      1.0  0.96576  0.59591  0.01039  1.0000
  C   C547      1.0  0.77253  0.81086  0.35515  1.0000
  C   C548      1.0  0.90174  0.90672  0.10408  1.0000
  H   H641      1.0  0.90443  0.51521  0.21788  1.0000
  C   C549      1.0  0.97864  0.56218  0.06839  1.0000
  C   C550      1.0  0.97835  0.59445  0.04853  1.0000
  H   H642      1.0  0.90047  0.57358  0.05532  1.0000
  H   H643      1.0  0.78335  0.54830  0.02465  1.0000
  C   C551      1.0  0.94218  0.93252  0.05799  1.0000
  H   H644      1.0  0.95084  0.85667  0.07678  1.0000
  C   C552      1.0  0.88593  0.58502  0.11311  1.0000
  C   C553      1.0  0.87836  0.57814  0.07427  1.0000
  H   H645      1.0  0.75779  0.83617  0.35660  1.0000
  H   H646      1.0  0.96554  0.59669  0.34059  1.0000
  C   C554      1.0  0.82374  0.59170  0.12606  1.0000
  C   C555      1.0  0.93334  0.85285  0.05241  1.0000
  C   C556      1.0  0.81583  0.58441  0.08726  1.0000
  H   H647      1.0  0.85701  0.56232  0.33527  1.0000
  N   N37       1.0  0.83607  0.57016  0.01866  1.0000
  H   H648      1.0  0.96440  0.91782  0.07143  1.0000
  S   S143      1.0  0.00882  0.73782  0.10551  1.0000
  C   C557      1.0  0.87958  0.93760  0.04858  1.0000
  S   S144      1.0  0.92049  0.54792  0.38084  1.0000
  N   N38       1.0  0.78620  0.80452  0.31556  1.0000
  H   H649      1.0  0.85055  0.72239  0.24338  1.0000
  H   H650      1.0  0.86473  0.59808  0.16894  1.0000
  C   C558      1.0  0.82066  0.76109  0.27558  1.0000
  H   H651      1.0  0.90836  0.53852  0.26269  1.0000
  H   H652      1.0  0.75338  0.78984  0.36428  1.0000
  H   H653      1.0  0.84388  0.62477  0.00226  1.0000
  H   H654      1.0  0.96599  0.62098  0.99506  1.0000
  C   C559      1.0  0.84310  0.57745  0.06008  1.0000
  H   H655      1.0  0.85828  0.68221  0.29888  1.0000
  H   H656      1.0  0.73935  0.82894  0.29192  1.0000
  S   S145      1.0  0.95126  0.99928  0.45069  1.0000
  H   H657      1.0  0.81883  0.83422  0.27513  1.0000
  C   C560      1.0  0.85869  0.59207  0.13894  1.0000
  H   H658      1.0  0.73721  0.78162  0.29532  1.0000
  C   C561      1.0  0.80974  0.83491  0.30560  1.0000
  H   H659      1.0  0.81791  0.77785  0.25041  1.0000
  H   H660      1.0  0.79626  0.86082  0.30962  1.0000
  H   H661      1.0  0.92433  0.89299  0.11811  1.0000
  H   H662      1.0  0.86946  0.89130  0.99620  1.0000
  H   H663      1.0  0.87762  0.89004  0.10843  1.0000
  C   C562      1.0  0.95263  0.53301  0.01206  1.0000
  H   H664      1.0  0.71769  0.99991  0.09474  1.0000
  N   N39       1.0  0.90793  0.91357  0.06231  1.0000
  S   S146      1.0  0.98720  0.69591  0.21170  1.0000
  H   H665      1.0  0.69167  0.53032  0.46096  1.0000
  H   H666      1.0  0.99002  0.53144  0.26678  1.0000
  C   C563      1.0  0.85341  0.59786  0.99454  1.0000
  C   C564      1.0  0.99956  0.79831  0.15019  1.0000
  H   H667      1.0  0.91316  0.58518  0.12311  1.0000
  H   H668      1.0  0.88385  0.94582  0.01804  1.0000
  H   H669      1.0  0.80265  0.59729  0.14632  1.0000
  C   C565      1.0  0.80580  0.77085  0.31172  1.0000
  H   H670      1.0  0.94912  0.92578  0.42353  1.0000
  H   H671      1.0  0.69906  0.99703  0.20248  1.0000
  H   H672      1.0  0.95901  0.52691  0.30589  1.0000
  C   C566      1.0  0.75533  0.80437  0.28895  1.0000
  H   H673      1.0  0.98996  0.78095  0.17284  1.0000
  H   H674      1.0  0.79433  0.81312  0.37675  1.0000
  H   H675      1.0  0.83305  0.69741  0.36255  1.0000
  H   H676      1.0  0.85299  0.92487  0.05088  1.0000
  H   H677      1.0  0.93994  0.54696  0.22612  1.0000
  C   C567      1.0  0.95283  0.56530  0.99208  1.0000
  C   C568      1.0  0.96570  0.53143  0.05015  1.0000
  H   H678      1.0  0.99289  0.84623  0.18347  1.0000
  H   H679      1.0  0.95413  0.80068  0.04199  1.0000
  C   C569      1.0  0.88811  0.87245  0.00774  1.0000
  C   C570      1.0  0.00105  0.83531  0.15603  1.0000
  Fe  Fe74      1.0  0.00163  0.97946  0.47892  1.0000
  C   C571      1.0  0.91438  0.81452  0.00017  1.0000
  H   H680      1.0  0.94896  0.93640  0.02700  1.0000
  Fe  Fe75      1.0  0.99765  0.69287  0.14788  1.0000
  C   C572      1.0  0.85072  0.53518  0.00809  1.0000
  S   S147      1.0  0.00973  0.99602  0.08414  1.0000
  H   H681      1.0  0.87892  0.96273  0.06540  1.0000
  C   C573      1.0  0.92381  0.52543  0.23951  1.0000
  C   C574      1.0  0.97875  0.54962  0.49134  1.0000
  H   H682      1.0  0.96006  0.90101  0.52263  1.0000
  S   S148      1.0  0.99495  0.64483  0.74744  1.0000
  C   C575      1.0  0.92616  0.98628  0.96578  1.0000
  S   S149      1.0  0.74121  0.94003  0.84598  1.0000
  C   C576      1.0  0.89078  0.84036  0.98779  1.0000
  H   H683      1.0  0.84830  0.59359  0.96313  1.0000
  S   S150      1.0  0.93771  0.56877  0.94414  1.0000
  Fe  Fe76      1.0  0.72125  0.00821  0.92623  1.0000
  H   H684      1.0  0.95271  0.93706  0.95478  1.0000
  H   H685      1.0  0.00187  0.55060  0.75119  1.0000
  C   C577      1.0  0.83364  0.96336  0.50099  1.0000
  H   H686      1.0  0.98763  0.54439  0.82272  1.0000
  H   H687      1.0  0.71156  0.94946  0.68865  1.0000
  S   S151      1.0  0.73095  0.95094  0.93976  1.0000
  C   C578      1.0  0.86642  0.95351  0.93017  1.0000
  C   C579      1.0  0.92819  0.95141  0.95212  1.0000
  H   H688      1.0  0.84401  0.87040  0.54699  1.0000
  Fe  Fe77      1.0  0.77555  0.95664  0.89675  1.0000
  Fe  Fe78      1.0  0.72880  0.99777  0.83893  1.0000
  C   C580      1.0  0.84251  0.89660  0.53456  1.0000
  C   C581      1.0  0.80932  0.90690  0.52070  1.0000
  H   H689      1.0  0.70514  0.86746  0.84269  1.0000
  S   S152      1.0  0.96237  0.00824  0.98885  1.0000
  H   H690      1.0  0.92331  0.96302  0.56374  1.0000
  Fe  Fe79      1.0  0.90569  0.52577  0.91487  1.0000
  H   H691      1.0  0.78672  0.88902  0.52268  1.0000
  C   C582      1.0  0.00990  0.52526  0.82415  1.0000
  H   H692      1.0  0.95965  0.56460  0.50936  1.0000
  C   C583      1.0  0.86447  0.98839  0.94365  1.0000
  H   H693      1.0  0.00748  0.75693  0.73167  1.0000
  S   S153      1.0  0.82938  0.93147  0.90886  1.0000
  C   C584      1.0  0.90661  0.56277  0.76582  1.0000
  C   C585      1.0  0.91868  0.57022  0.72826  1.0000
  C   C586      1.0  0.94614  0.59505  0.72222  1.0000
  C   C587      1.0  0.96090  0.61324  0.75365  1.0000
  C   C588      1.0  0.94850  0.60613  0.79106  1.0000
  C   C589      1.0  0.92172  0.58073  0.79718  1.0000
  S   S154      1.0  0.87398  0.52979  0.77346  1.0000
  H   H694      1.0  0.95534  0.60074  0.69323  1.0000
  H   H695      1.0  0.95963  0.62030  0.81547  1.0000
  H   H696      1.0  0.91231  0.57558  0.82620  1.0000
  S   S155      1.0  0.85322  0.53993  0.88911  1.0000
  C   C590      1.0  0.89850  0.93521  0.93440  1.0000
  H   H697      1.0  0.90670  0.55706  0.70376  1.0000
  C   C591      1.0  0.89421  0.00468  0.96112  1.0000
  C   C592      1.0  0.87245  0.91968  0.53189  1.0000
  N   N40       1.0  0.90803  0.90991  0.54617  1.0000
  C   C593      1.0  0.90943  0.87403  0.56395  1.0000
  Fe  Fe80      1.0  0.69612  0.93967  0.88802  1.0000
  H   H698      1.0  0.70630  0.92381  0.75264  1.0000
  H   H699      1.0  0.91641  0.78972  0.98456  1.0000
  H   H700      1.0  0.89167  0.87189  0.58948  1.0000
  H   H701      1.0  0.68956  0.98702  0.70718  1.0000
  H   H702      1.0  0.90042  0.90832  0.92379  1.0000
  H   H703      1.0  0.94621  0.92865  0.58815  1.0000
  C   C594      1.0  0.93350  0.91057  0.51362  1.0000
  H   H704      1.0  0.90239  0.85301  0.54266  1.0000
  S   S156      1.0  0.70297  0.92965  0.50708  1.0000
  H   H705      1.0  0.95380  0.51614  0.55347  1.0000
  H   H706      1.0  0.93658  0.86774  0.57452  1.0000
  H   H707      1.0  0.70500  0.82729  0.78590  1.0000
  C   C595      1.0  0.68034  0.83805  0.79628  1.0000
  H   H708      1.0  0.68816  0.89367  0.57905  1.0000
  H   H709      1.0  0.99483  0.82789  0.63231  1.0000
  H   H710      1.0  0.84577  0.52899  0.97713  1.0000
  S   S157      1.0  0.01081  0.88900  0.58521  1.0000
  C   C596      1.0  0.91997  0.93584  0.57580  1.0000
  S   S158      1.0  0.00242  0.98427  0.54367  1.0000
  C   C597      1.0  0.68049  0.86098  0.82833  1.0000
  H   H711      1.0  0.87457  0.83571  0.96232  1.0000
  H   H712      1.0  0.84006  0.00287  0.94057  1.0000
  H   H713      1.0  0.90078  0.93728  0.60008  1.0000
  C   C598      1.0  0.86695  0.95333  0.51451  1.0000
  H   H714      1.0  0.93777  0.93774  0.50194  1.0000
  S   S159      1.0  0.68239  0.99684  0.87906  1.0000
  C   C599      1.0  0.68483  0.96102  0.69281  1.0000
  C   C600      1.0  0.80492  0.94016  0.50395  1.0000
  H   H715      1.0  0.79365  0.56317  0.97719  1.0000
  H   H716      1.0  0.68722  0.89204  0.69115  1.0000
  H   H717      1.0  0.88857  0.97203  0.51070  1.0000
  H   H718      1.0  0.68456  0.68708  0.69741  1.0000
  H   H719      1.0  0.00578  0.55775  0.50071  1.0000
  S   S160      1.0  0.76723  0.01466  0.88548  1.0000
  H   H720      1.0  0.77920  0.94788  0.49303  1.0000
