data_image0
_chemical_formula_structural       SCH3FeC4HCH2CHCHCHC5HCSH2NH2C2HC3SCH5CHC2SCHNHCH2SCH3CHCHCH4CH2CH2CH4C2H2CH4CH2SC5FeC2HCH5CSHC2SNHCH2CHCHC2FeC3HSH4SHSCH2CH3CHCNCSHC2SC2S2CFeH2C2SH7CFeHCH3CSHC3HCSH5C2FeCFeCHC2H2C2H2NH3CH4FeH2SCSHC2H2CSHSFeSFeS2FeSFeCS2CHCH5C3HC3SNH5SHC2SC2HFeC3H3CH2C2H8SNCHC2H3SC2H6CSHFeH3CFeHNHSHC2H4NCHFeH3C2SC2SCH3SCHNC7H10CH2CHCHCFeHCHCFeC6H2CHSCSCHCH2NHCHSH2CH2CH3CH3CS2C2SHCFeHC2HCFeH2CSHSC3HC2H2CHC3HFeHC4H4SC3HCHSCHC2H2C2FeC3HCHSCHCH7NH3C2NH5SC3H2CH2CHCHC3NC2H2CH4CH3C2HSHC6SH3C2H2FeS2C2HS2FeCH3NH5SHCFeSHFeC4HCHCHCSH2CSFeC2H2SH2CSH4C3H2C6H4C6H4CHCHCH2CHCHSHSCHFeSC3H5NCHC5H7CH4CH3CHCH4NHCSC2FeHC5SHFeHSH2CFeC2SCSNC2SHC2HFeHCHCHNC2FeH2SHCHC2H2FeHCHCFeHC3HS2H3FeH3C2H2NSH3CSCSHCH3C2HC3HC2HCSHCH2C3H2NFeS2FeS2FeSFeS4FeSFe2S2C6H4C2HC4H3FeSC3H2C3H5S2HCHCH2CNHC8HSH7CHCH2NC8H12SHC5H4CSC5HCH3SH2FeCHC2H3NC8H14CHC2H4CSC2HSHSH2NHC2SCSHC2SCH2FeHFeHCH2CHC3H2C2H2C2H2CHSCFeH2SHFeCSNSCSFeHCHC2HCFeHCH2NH3C3HCSH4FeH4CHC2H2C2HCHCHC3HSC6HSCHSFeHCHFeCSCHC2SHCH3CH5C2H2NFeCH2C2HCSHCFeH3C2H2SCH2SHCH2CHSHC2HCFe2HSC6HCN2SCH4CH3CH6C3H4CH2CHCNHCHCNC2HC3HCSH2C2H2C2H3CH2FeC4SCNCH4SH2CFeSFeS3FeS2HFeCNC2H2CFeS2FeS2FeSFeS3C5H3FeSH2SHNHCHC6H2CHC6H4C6H5NHCH2NSCHC3H2CFeHC2FeH2C4HCH2CHFeSHCHNCHCH7CH3SC2H2C2H4CH2C2HC3NC2SC3H7C2HCH4CNH3CHSCH2CH2CH3NC4HC3SH14SC2HNC9H5CHCH2SH2CHC2H2C2S2H2CHCHSHCH2CFeC3HCSC2H2C2SHCHFeHSHFe2HC2H3SHFeH3SH2CH2SCHSFeC3HCSHC2HCH6CHCHFeHCSCHCHCSCSNH3FeS2FeS2FeSFeS2HCHCH3C2HC5H3C5SH2SC7H2C7H4NC2Fe2CSHC2HS2H6CFeHFeHSC2HC2HC2HCHC2SNHC7Fe2H3CSH3CH3NC9H15CHCH2SFeH2NC2HCHNCSCHCHSCSHCFeCHSC2H3SNC2H4FeNFeC2H6SCSHC3HC2H2CH2C2H2C6FeHCH2SHCNH2CH2C5HC2H3CHCHCHSC2H2C2H3CH2S3H2CH2SH4CH2Fe2CFeCHC2H2SCHCH2CH3SH4CH5SH2CH2CH6C2H3SFeC2H2SHCH2CHSCH6FeCHCH2CH2SCFeC3HCHCH2C2H2FeC2H2C4SHFeH3CHC2SCHCHCFeCSCH3CSHFeCHCHCSHSHCHSCHSC2H2CNH3SCHSH2C3HCSCHCHC4HSHC2HSFe2HCH2C2SHS2HFeSH2CH2CHNFeH2SC5H5C2HCHCH2C2HCHCHCH3CNH2C2H2CHCHC2H3CHC3HNHCHC7H2C2H2CHC3HCH2SCHSHSCSH3CH5FeC2FeHSC2HCFeC2H2SHNFeCHCH2CSFeHSCHCHSCH4
_chemical_formula_sum              "S224 C840 H1008 Fe112 N56"
_cell_length_a       35.9066
_cell_length_b       36.0989
_cell_length_c       86.8998
_cell_angle_alpha    78.3428
_cell_angle_beta     79.145
_cell_angle_gamma    101.398

_space_group_name_H-M_alt    "P 1"
_space_group_IT_number       1

loop_
  _space_group_symop_operation_xyz
  'x, y, z'

loop_
  _atom_site_type_symbol
  _atom_site_label
  _atom_site_symmetry_multiplicity
  _atom_site_fract_x
  _atom_site_fract_y
  _atom_site_fract_z
  _atom_site_occupancy
  S   S1        1.0  0.02378  0.39469  0.13750  1.0000
  C   C1        1.0  0.38973  0.49752  0.15259  1.0000
  H   H1        1.0  0.38914  0.44939  0.29811  1.0000
  H   H2        1.0  0.34279  0.48303  0.19807  1.0000
  H   H3        1.0  0.49405  0.06856  0.28883  1.0000
  Fe  Fe1       1.0  0.02618  0.43905  0.15222  1.0000
  C   C2        1.0  0.14199  0.47751  0.27640  1.0000
  C   C3        1.0  0.03896  0.38717  0.30342  1.0000
  C   C4        1.0  0.16519  0.47587  0.30056  1.0000
  C   C5        1.0  0.30763  0.49512  0.26661  1.0000
  H   H4        1.0  0.15147  0.40509  0.28040  1.0000
  C   C6        1.0  0.38555  0.46904  0.18079  1.0000
  H   H5        1.0  0.16777  0.45821  0.31220  1.0000
  H   H6        1.0  0.08597  0.46594  0.11247  1.0000
  C   C7        1.0  0.02497  0.39139  0.31886  1.0000
  H   H7        1.0  0.19554  0.48997  0.29331  1.0000
  C   C8        1.0  0.38499  0.48818  0.26365  1.0000
  H   H8        1.0  0.44278  0.37407  0.29867  1.0000
  C   C9        1.0  0.49071  0.43849  0.30106  1.0000
  H   H9        1.0  0.08646  0.40288  0.28275  1.0000
  C   C10       1.0  0.99972  0.45107  0.23493  1.0000
  C   C11       1.0  0.31906  0.46454  0.26089  1.0000
  C   C12       1.0  0.08635  0.43641  0.31686  1.0000
  C   C13       1.0  0.44561  0.47752  0.32338  1.0000
  C   C14       1.0  0.10450  0.49528  0.10935  1.0000
  H   H10       1.0  0.05948  0.45074  0.22555  1.0000
  C   C15       1.0  0.02791  0.45700  0.20684  1.0000
  S   S2        1.0  0.00512  0.48053  0.13504  1.0000
  H   H11       1.0  0.01394  0.48331  0.30171  1.0000
  H   H12       1.0  0.05274  0.45775  0.19735  1.0000
  N   N1        1.0  0.44942  0.42206  0.31015  1.0000
  H   H13       1.0  0.36662  0.43778  0.25473  1.0000
  H   H14       1.0  0.10264  0.45559  0.32265  1.0000
  C   C16       1.0  0.35769  0.46103  0.25944  1.0000
  C   C17       1.0  0.35548  0.48668  0.18534  1.0000
  H   H15       1.0  0.49267  0.45863  0.28923  1.0000
  C   C18       1.0  0.07689  0.40714  0.29467  1.0000
  C   C19       1.0  0.38656  0.49648  0.30894  1.0000
  C   C20       1.0  0.16397  0.42193  0.28838  1.0000
  S   S3        1.0  0.07626  0.45640  0.16353  1.0000
  C   C21       1.0  0.01321  0.40957  0.07084  1.0000
  H   H16       1.0  0.16353  0.40084  0.29974  1.0000
  H   H17       1.0  0.17214  0.49305  0.26918  1.0000
  H   H18       1.0  0.43158  0.41666  0.28814  1.0000
  H   H19       1.0  0.47552  0.20494  0.21187  1.0000
  H   H20       1.0  0.29826  0.44399  0.25727  1.0000
  C   C22       1.0  0.10199  0.43202  0.30120  1.0000
  H   H21       1.0  0.04484  0.41598  0.06788  1.0000
  C   C23       1.0  0.49660  0.22760  0.20231  1.0000
  C   C24       1.0  0.40134  0.46469  0.30618  1.0000
  S   S4        1.0  0.02111  0.44600  0.09494  1.0000
  C   C25       1.0  0.43159  0.45430  0.31333  1.0000
  H   H22       1.0  0.48528  0.27374  0.21340  1.0000
  N   N2        1.0  0.14256  0.45162  0.29191  1.0000
  H   H23       1.0  0.39633  0.45188  0.18992  1.0000
  C   C26       1.0  0.44851  0.39497  0.32565  1.0000
  H   H24       1.0  0.00776  0.37933  0.05211  1.0000
  H   H25       1.0  0.12777  0.46142  0.26859  1.0000
  S   S5        1.0  0.43381  0.48493  0.26074  1.0000
  C   C27       1.0  0.04836  0.41621  0.32550  1.0000
  H   H26       1.0  0.39797  0.38579  0.30659  1.0000
  H   H27       1.0  0.45925  0.36895  0.32369  1.0000
  H   H28       1.0  0.42755  0.46250  0.16101  1.0000
  C   C28       1.0  0.42940  0.39867  0.30049  1.0000
  H   H29       1.0  0.48626  0.24046  0.29671  1.0000
  C   C29       1.0  0.40297  0.47489  0.16447  1.0000
  H   H30       1.0  0.19521  0.43556  0.28205  1.0000
  C   C30       1.0  0.03171  0.45282  0.22270  1.0000
  H   H31       1.0  0.00278  0.44767  0.24730  1.0000
  H   H32       1.0  0.02013  0.36822  0.29830  1.0000
  H   H33       1.0  0.12815  0.48576  0.13032  1.0000
  H   H34       1.0  0.29004  0.49578  0.14967  1.0000
  C   C31       1.0  0.47893  0.14028  0.33758  1.0000
  H   H35       1.0  0.41833  0.38450  0.33350  1.0000
  H   H36       1.0  0.45557  0.18985  0.33986  1.0000
  C   C32       1.0  0.02318  0.29956  0.59687  1.0000
  H   H37       1.0  0.46764  0.40878  0.33267  1.0000
  H   H38       1.0  0.05331  0.30507  0.61578  1.0000
  C   C33       1.0  0.01007  0.04316  0.62137  1.0000
  H   H39       1.0  0.03684  0.41988  0.33742  1.0000
  H   H40       1.0  0.46286  0.08540  0.64025  1.0000
  H   H41       1.0  0.01861  0.01098  0.64361  1.0000
  H   H42       1.0  0.02368  0.33775  0.53557  1.0000
  C   C34       1.0  0.02738  0.30808  0.61147  1.0000
  C   C35       1.0  0.00491  0.03267  0.63822  1.0000
  H   H43       1.0  0.49507  0.20984  0.35803  1.0000
  H   H44       1.0  0.04599  0.29005  0.58974  1.0000
  C   C36       1.0  0.47507  0.17242  0.34375  1.0000
  H   H45       1.0  0.00113  0.32639  0.63209  1.0000
  H   H46       1.0  0.46220  0.13246  0.32906  1.0000
  H   H47       1.0  0.02733  0.02919  0.61384  1.0000
  H   H48       1.0  0.47926  0.04090  0.64464  1.0000
  C   C37       1.0  0.49774  0.18354  0.35425  1.0000
  H   H49       1.0  0.19016  0.02932  0.65329  1.0000
  H   H50       1.0  0.46867  0.47162  0.32913  1.0000
  S   S6        1.0  0.25962  0.00406  0.65681  1.0000
  C   C38       1.0  0.48908  0.07330  0.64013  1.0000
  C   C39       1.0  0.07997  0.16970  0.82933  1.0000
  C   C40       1.0  0.13344  0.16213  0.80290  1.0000
  C   C41       1.0  0.28432  0.09659  0.77695  1.0000
  C   C42       1.0  0.29523  0.08626  0.76239  1.0000
  Fe  Fe2       1.0  0.01351  0.22447  0.82768  1.0000
  C   C43       1.0  0.14754  0.06894  0.70876  1.0000
  C   C44       1.0  0.27316  0.03352  0.69527  1.0000
  H   H51       1.0  0.04790  0.07193  0.71821  1.0000
  C   C45       1.0  0.01158  0.35959  0.88072  1.0000
  H   H52       1.0  0.29970  0.08802  0.70840  1.0000
  H   H53       1.0  0.06797  0.01313  0.76286  1.0000
  H   H54       1.0  0.04266  0.19850  0.79069  1.0000
  H   H55       1.0  0.19295  0.08328  0.72053  1.0000
  H   H56       1.0  0.27069  0.10889  0.69582  1.0000
  C   C46       1.0  0.29788  0.11445  0.82985  1.0000
  S   S7        1.0  0.15182  0.03407  0.75552  1.0000
  H   H57       1.0  0.27012  0.17633  0.83912  1.0000
  C   C47       1.0  0.33371  0.08374  0.75698  1.0000
  C   C48       1.0  0.24180  0.02134  0.72336  1.0000
  S   S8        1.0  0.16905  0.11282  0.76888  1.0000
  N   N3        1.0  0.24768  0.04759  0.70718  1.0000
  H   H58       1.0  0.26983  0.02263  0.72721  1.0000
  C   C49       1.0  0.26924  0.08728  0.70717  1.0000
  H   H59       1.0  0.13274  0.22097  0.79164  1.0000
  H   H60       1.0  0.39032  0.08706  0.76242  1.0000
  C   C50       1.0  0.20891  0.04814  0.70373  1.0000
  H   H61       1.0  0.99823  0.15573  0.69508  1.0000
  C   C51       1.0  0.03645  0.00900  0.72303  1.0000
  H   H62       1.0  0.12971  0.08511  0.71483  1.0000
  C   C52       1.0  0.03904  0.35201  0.86893  1.0000
  C   C53       1.0  0.36081  0.08973  0.76648  1.0000
  Fe  Fe3       1.0  0.19879  0.06498  0.76519  1.0000
  C   C54       1.0  0.05957  0.01257  0.75169  1.0000
  C   C55       1.0  0.12165  0.19706  0.80236  1.0000
  C   C56       1.0  0.26306  0.17941  0.82705  1.0000
  H   H63       1.0  0.21224  0.12327  0.80734  1.0000
  S   S9        1.0  0.07621  0.24223  0.81402  1.0000
  H   H64       1.0  0.07568  0.12463  0.77259  1.0000
  H   H65       1.0  0.30278  0.03534  0.69768  1.0000
  H   H66       1.0  0.27679  0.05073  0.68266  1.0000
  H   H67       1.0  0.07257  0.49210  0.80241  1.0000
  S   S10       1.0  0.08194  0.09230  0.74421  1.0000
  H   H68       1.0  0.04506  0.13662  0.80575  1.0000
  S   S11       1.0  0.38267  0.10480  0.79361  1.0000
  C   C57       1.0  0.20210  0.13177  0.83810  1.0000
  H   H69       1.0  0.43727  0.04874  0.66660  1.0000
  H   H70       1.0  0.22172  0.02933  0.73280  1.0000
  C   C58       1.0  0.09436  0.20054  0.81546  1.0000
  H   H71       1.0  0.15397  0.15928  0.79266  1.0000
  H   H72       1.0  0.26896  0.01163  0.79028  1.0000
  H   H73       1.0  0.05887  0.37593  0.85950  1.0000
  C   C59       1.0  0.11889  0.13126  0.81675  1.0000
  H   H74       1.0  0.18589  0.15510  0.83666  1.0000
  C   C60       1.0  0.18430  0.06824  0.71173  1.0000
  N   N4        1.0  0.23942  0.14208  0.82561  1.0000
  C   C61       1.0  0.31187  0.10390  0.78615  1.0000
  S   S12       1.0  0.17499  0.02659  0.79034  1.0000
  H   H75       1.0  0.34237  0.07625  0.74562  1.0000
  C   C62       1.0  0.09280  0.13532  0.83008  1.0000
  C   C63       1.0  0.00002  0.08708  0.77308  1.0000
  S   S13       1.0  0.08931  0.04317  0.78687  1.0000
  C   C64       1.0  0.25907  0.10959  0.82765  1.0000
  C   C65       1.0  0.13353  0.04863  0.69819  1.0000
  S   S14       1.0  0.01455  0.46353  0.83325  1.0000
  S   S15       1.0  0.39992  0.00975  0.78454  1.0000
  C   C66       1.0  0.25881  0.04143  0.82754  1.0000
  Fe  Fe4       1.0  0.11906  0.07769  0.76160  1.0000
  H   H76       1.0  0.02387  0.07451  0.77552  1.0000
  H   H77       1.0  0.34665  0.08849  0.83154  1.0000
  C   C67       1.0  0.01378  0.28263  0.88083  1.0000
  C   C68       1.0  0.31641  0.08372  0.83063  1.0000
  S   S16       1.0  0.26061  0.07409  0.75132  1.0000
  H   H78       1.0  0.01013  0.38946  0.88040  1.0000
  H   H79       1.0  0.21548  0.17305  0.80739  1.0000
  H   H80       1.0  0.06111  0.30782  0.85959  1.0000
  H   H81       1.0  0.03057  0.39469  0.82376  1.0000
  H   H82       1.0  0.18170  0.10494  0.83754  1.0000
  H   H83       1.0  0.01621  0.25372  0.88007  1.0000
  H   H84       1.0  0.08152  0.11144  0.84082  1.0000
  C   C69       1.0  0.45890  0.06927  0.70055  1.0000
  Fe  Fe5       1.0  0.42390  0.06631  0.78999  1.0000
  H   H85       1.0  0.30366  0.11199  0.79732  1.0000
  C   C70       1.0  0.19346  0.02714  0.69319  1.0000
  H   H86       1.0  0.08869  0.17057  0.77710  1.0000
  H   H87       1.0  0.25469  0.09878  0.78113  1.0000
  H   H88       1.0  0.02757  0.00766  0.71191  1.0000
  C   C71       1.0  0.15627  0.02755  0.69053  1.0000
  S   S17       1.0  0.13290  0.08737  0.81759  1.0000
  H   H89       1.0  0.40782  0.03765  0.69515  1.0000
  C   C72       1.0  0.04016  0.31364  0.86899  1.0000
  C   C73       1.0  0.34982  0.09959  0.78114  1.0000
  C   C74       1.0  0.23107  0.14935  0.80932  1.0000
  H   H90       1.0  0.24710  0.20296  0.82565  1.0000
  C   C75       1.0  0.06058  0.04721  0.74079  1.0000
  S   S18       1.0  0.44769  0.03908  0.81038  1.0000
  H   H91       1.0  0.20729  0.12653  0.85050  1.0000
  H   H92       1.0  0.05889  0.17234  0.83949  1.0000
  H   H93       1.0  0.29084  0.19011  0.81747  1.0000
  H   H94       1.0  0.26146  0.00225  0.69591  1.0000
  H   H95       1.0  0.21056  0.06606  0.82486  1.0000
  C   C76       1.0  0.45517  0.06153  0.67378  1.0000
  C   C77       1.0  0.06617  0.15198  0.77286  1.0000
  Fe  Fe6       1.0  0.14234  0.07252  0.79365  1.0000
  C   C78       1.0  0.04759  0.04533  0.72666  1.0000
  Fe  Fe7       1.0  0.45804  0.02143  0.76745  1.0000
  C   C79       1.0  0.49475  0.08303  0.66718  1.0000
  H   H96       1.0  0.25852  0.15765  0.79961  1.0000
  C   C80       1.0  0.29708  0.04745  0.82937  1.0000
  C   C81       1.0  0.00019  0.49072  0.68111  1.0000
  H   H97       1.0  0.44537  0.06375  0.71331  1.0000
  H   H98       1.0  0.03406  0.09327  0.79897  1.0000
  C   C82       1.0  0.23997  0.07194  0.82669  1.0000
  C   C83       1.0  0.43774  0.05481  0.69025  1.0000
  H   H99       1.0  0.10488  0.04908  0.69598  1.0000
  H   H100      1.0  0.02651  0.49074  0.67265  1.0000
  N   N5        1.0  0.02643  0.14479  0.78336  1.0000
  H   H101      1.0  0.06736  0.16661  0.76013  1.0000
  H   H102      1.0  0.31518  0.14195  0.83045  1.0000
  H   H103      1.0  0.25596  0.09763  0.71761  1.0000
  C   C84       1.0  0.02510  0.12081  0.79956  1.0000
  H   H104      1.0  0.14501  0.01169  0.68239  1.0000
  H   H105      1.0  0.39038  0.02591  0.75291  1.0000
  H   H106      1.0  0.02162  0.20309  0.77350  1.0000
  H   H107      1.0  0.20959  0.01038  0.68679  1.0000
  Fe  Fe8       1.0  0.12417  0.00115  0.78102  1.0000
  H   H108      1.0  0.29678  0.00363  0.77235  1.0000
  H   H109      1.0  0.24391  0.01320  0.82647  1.0000
  S   S19       1.0  0.48017  0.08079  0.77105  1.0000
  C   C85       1.0  0.02016  0.18324  0.78531  1.0000
  S   S20       1.0  0.46542  0.00856  0.74308  1.0000
  H   H110      1.0  0.31813  0.00767  0.78911  1.0000
  C   C86       1.0  0.38802  0.00711  0.74478  1.0000
  C   C87       1.0  0.00594  0.38583  0.83415  1.0000
  H   H111      1.0  0.31223  0.02430  0.82951  1.0000
  H   H112      1.0  0.32753  0.00622  0.74531  1.0000
  C   C88       1.0  0.49760  0.09050  0.69447  1.0000
  S   S21       1.0  0.45990  0.59880  0.25897  1.0000
  H   H113      1.0  0.48792  0.68713  0.27247  1.0000
  S   S22       1.0  0.48855  0.94364  0.32779  1.0000
  Fe  Fe9       1.0  0.27807  0.63587  0.15855  1.0000
  S   S23       1.0  0.24118  0.67841  0.16185  1.0000
  Fe  Fe10      1.0  0.28942  0.65543  0.12228  1.0000
  S   S24       1.0  0.25195  0.69821  0.12240  1.0000
  S   S25       1.0  0.31237  0.63818  0.09961  1.0000
  Fe  Fe11      1.0  0.28471  0.71856  0.13997  1.0000
  S   S26       1.0  0.31103  0.78259  0.13603  1.0000
  Fe  Fe12      1.0  0.21203  0.65412  0.14425  1.0000
  C   C89       1.0  0.40187  0.51928  0.31849  1.0000
  S   S27       1.0  0.32477  0.67836  0.13856  1.0000
  S   S28       1.0  0.24627  0.60918  0.14222  1.0000
  C   C90       1.0  0.48205  0.76201  0.26257  1.0000
  H   H114      1.0  0.43931  0.82673  0.12911  1.0000
  C   C91       1.0  0.47625  0.66938  0.18201  1.0000
  H   H115      1.0  0.13866  0.62799  0.11548  1.0000
  H   H116      1.0  0.44416  0.91918  0.21523  1.0000
  H   H117      1.0  0.41731  0.71880  0.13644  1.0000
  H   H118      1.0  0.30830  0.75899  0.22685  1.0000
  H   H119      1.0  0.30317  0.67518  0.17936  1.0000
  C   C92       1.0  0.06418  0.52298  0.30450  1.0000
  C   C93       1.0  0.32294  0.76099  0.29635  1.0000
  C   C94       1.0  0.03848  0.50778  0.29567  1.0000
  H   H120      1.0  0.22617  0.59637  0.08360  1.0000
  C   C95       1.0  0.15235  0.57241  0.10123  1.0000
  C   C96       1.0  0.15206  0.54444  0.11538  1.0000
  C   C97       1.0  0.16018  0.65687  0.21807  1.0000
  S   S29       1.0  0.01460  0.50490  0.26738  1.0000
  N   N6        1.0  0.36030  0.75804  0.23580  1.0000
  H   H121      1.0  0.16051  0.63390  0.22872  1.0000
  H   H122      1.0  0.44560  0.53742  0.17848  1.0000
  H   H123      1.0  0.18012  0.59404  0.20954  1.0000
  H   H124      1.0  0.17976  0.62916  0.07175  1.0000
  H   H125      1.0  0.43889  0.81763  0.10955  1.0000
  S   S30       1.0  0.13157  0.56958  0.30736  1.0000
  H   H126      1.0  0.48432  0.83602  0.11450  1.0000
  C   C98       1.0  0.45708  0.84410  0.24073  1.0000
  C   C99       1.0  0.47709  0.77397  0.13920  1.0000
  S   S31       1.0  0.46327  0.58188  0.14415  1.0000
  C   C100      1.0  0.35980  0.63109  0.09766  1.0000
  C   C101      1.0  0.47731  0.66477  0.30419  1.0000
  H   H127      1.0  0.32222  0.74747  0.25973  1.0000
  Fe  Fe13      1.0  0.47396  0.54038  0.26150  1.0000
  C   C102      1.0  0.41943  0.63460  0.10719  1.0000
  C   C103      1.0  0.38369  0.64465  0.10733  1.0000
  C   C104      1.0  0.45706  0.69303  0.30695  1.0000
  H   H128      1.0  0.32293  0.79801  0.23607  1.0000
  H   H129      1.0  0.43726  0.64424  0.11505  1.0000
  H   H130      1.0  0.37463  0.66264  0.11500  1.0000
  C   C105      1.0  0.43933  0.54010  0.19084  1.0000
  H   H131      1.0  0.17000  0.55167  0.12355  1.0000
  H   H132      1.0  0.31996  0.52404  0.17772  1.0000
  C   C106      1.0  0.48921  0.63726  0.18891  1.0000
  C   C107      1.0  0.17196  0.63909  0.08299  1.0000
  H   H133      1.0  0.39138  0.54926  0.12360  1.0000
  H   H134      1.0  0.34285  0.73850  0.32794  1.0000
  H   H135      1.0  0.28633  0.53540  0.15916  1.0000
  H   H136      1.0  0.04431  0.52274  0.15315  1.0000
  H   H137      1.0  0.44235  0.92706  0.24302  1.0000
  H   H138      1.0  0.28674  0.70928  0.20096  1.0000
  H   H139      1.0  0.19088  0.66908  0.08062  1.0000
  H   H140      1.0  0.34764  0.58518  0.15746  1.0000
  S   S32       1.0  0.48913  0.83489  0.28272  1.0000
  N   N7        1.0  0.17789  0.61233  0.09724  1.0000
  C   C108      1.0  0.45784  0.52192  0.20178  1.0000
  H   H141      1.0  0.39232  0.73719  0.32018  1.0000
  C   C109      1.0  0.17043  0.62998  0.11118  1.0000
  C   C110      1.0  0.12834  0.50653  0.11935  1.0000
  H   H142      1.0  0.47585  0.75161  0.27596  1.0000
  H   H143      1.0  0.08553  0.51285  0.08764  1.0000
  H   H144      1.0  0.47019  0.72693  0.18321  1.0000
  S   S33       1.0  0.20173  0.57856  0.26685  1.0000
  C   C111      1.0  0.33282  0.76436  0.16455  1.0000
  C   C112      1.0  0.28167  0.67782  0.20391  1.0000
  H   H145      1.0  0.23969  0.63996  0.09036  1.0000
  H   H146      1.0  0.48129  0.86577  0.24197  1.0000
  H   H147      1.0  0.34197  0.59982  0.13731  1.0000
  H   H148      1.0  0.45335  0.75708  0.25923  1.0000
  H   H149      1.0  0.41410  0.86016  0.15436  1.0000
  H   H150      1.0  0.43707  0.78509  0.21625  1.0000
  C   C113      1.0  0.38083  0.72168  0.28889  1.0000
  S   S34       1.0  0.24039  0.56448  0.29837  1.0000
  H   H151      1.0  0.26095  0.56479  0.21422  1.0000
  Fe  Fe14      1.0  0.19246  0.59088  0.29130  1.0000
  H   H152      1.0  0.34649  0.70933  0.22513  1.0000
  H   H153      1.0  0.48547  0.74721  0.23322  1.0000
  H   H154      1.0  0.07251  0.59385  0.14730  1.0000
  C   C114      1.0  0.38946  0.80734  0.24987  1.0000
  Fe  Fe15      1.0  0.48818  0.63871  0.14926  1.0000
  H   H155      1.0  0.42015  0.54937  0.23498  1.0000
  N   N8        1.0  0.45732  0.77507  0.12559  1.0000
  H   H156      1.0  0.12766  0.59494  0.27411  1.0000
  S   S35       1.0  0.45200  0.62128  0.30097  1.0000
  H   H157      1.0  0.34651  0.55464  0.11894  1.0000
  C   C115      1.0  0.33843  0.79225  0.15009  1.0000
  C   C116      1.0  0.41697  0.75003  0.13235  1.0000
  H   H158      1.0  0.14921  0.66277  0.17975  1.0000
  H   H159      1.0  0.35475  0.59919  0.07940  1.0000
  H   H160      1.0  0.38803  0.59280  0.14085  1.0000
  H   H161      1.0  0.39406  0.71772  0.22956  1.0000
  N   N9        1.0  0.34395  0.53975  0.14457  1.0000
  C   C117      1.0  0.07296  0.53329  0.15499  1.0000
  H   H162      1.0  0.12804  0.68724  0.19385  1.0000
  Fe  Fe16      1.0  0.43769  0.84880  0.29726  1.0000
  H   H163      1.0  0.12576  0.49992  0.27860  1.0000
  H   H164      1.0  0.45847  0.77821  0.15020  1.0000
  H   H165      1.0  0.18045  0.61555  0.12163  1.0000
  C   C118      1.0  0.21938  0.61038  0.09374  1.0000
  C   C119      1.0  0.10330  0.57019  0.28011  1.0000
  S   S36       1.0  0.37547  0.82831  0.29534  1.0000
  C   C120      1.0  0.08882  0.57361  0.15182  1.0000
  C   C121      1.0  0.40910  0.60005  0.08663  1.0000
  S   S37       1.0  0.49347  0.54112  0.28429  1.0000
  C   C122      1.0  0.09884  0.59245  0.19767  1.0000
  H   H166      1.0  0.18991  0.67714  0.21440  1.0000
  H   H167      1.0  0.28190  0.70573  0.29976  1.0000
  H   H168      1.0  0.34985  0.79879  0.21630  1.0000
  S   S38       1.0  0.45524  0.66873  0.16533  1.0000
  C   C123      1.0  0.46442  0.94333  0.21721  1.0000
  H   H169      1.0  0.18028  0.69506  0.18767  1.0000
  N   N10       1.0  0.37936  0.59115  0.21708  1.0000
  C   C124      1.0  0.39592  0.61600  0.22709  1.0000
  C   C125      1.0  0.37019  0.61741  0.20357  1.0000
  C   C126      1.0  0.34234  0.56388  0.22702  1.0000
  C   C127      1.0  0.40662  0.56801  0.21154  1.0000
  C   C128      1.0  0.42519  0.54811  0.22249  1.0000
  C   C129      1.0  0.41377  0.56259  0.19558  1.0000
  C   C130      1.0  0.13060  0.52107  0.16355  1.0000
  H   H170      1.0  0.42612  0.63345  0.22073  1.0000
  H   H171      1.0  0.37790  0.63666  0.22988  1.0000
  H   H172      1.0  0.39686  0.59874  0.23908  1.0000
  H   H173      1.0  0.35377  0.60095  0.19643  1.0000
  H   H174      1.0  0.39723  0.63732  0.19522  1.0000
  H   H175      1.0  0.35146  0.63608  0.20796  1.0000
  H   H176      1.0  0.34750  0.54318  0.23725  1.0000
  H   H177      1.0  0.40115  0.57645  0.18634  1.0000
  H   H178      1.0  0.28901  0.54284  0.13819  1.0000
  H   H179      1.0  0.48842  0.97936  0.24790  1.0000
  C   C131      1.0  0.39160  0.83335  0.15718  1.0000
  H   H180      1.0  0.41890  0.58264  0.07865  1.0000
  H   H181      1.0  0.18620  0.66129  0.10820  1.0000
  C   C132      1.0  0.09706  0.55374  0.29666  1.0000
  H   H182      1.0  0.08316  0.56743  0.25847  1.0000
  C   C133      1.0  0.46348  0.94779  0.23283  1.0000
  H   H183      1.0  0.32587  0.54510  0.27587  1.0000
  C   C134      1.0  0.12596  0.58772  0.15420  1.0000
  Fe  Fe17      1.0  0.25238  0.55688  0.27313  1.0000
  H   H184      1.0  0.30047  0.77610  0.29945  1.0000
  C   C135      1.0  0.06264  0.56550  0.20154  1.0000
  H   H185      1.0  0.35718  0.71799  0.25834  1.0000
  C   C136      1.0  0.39130  0.76106  0.28902  1.0000
  Fe  Fe18      1.0  0.27885  0.62485  0.28728  1.0000
  C   C137      1.0  0.37330  0.51823  0.26970  1.0000
  C   C138      1.0  0.39395  0.78686  0.23755  1.0000
  C   C139      1.0  0.33415  0.77938  0.22847  1.0000
  C   C140      1.0  0.36247  0.78050  0.29319  1.0000
  C   C141      1.0  0.18112  0.61965  0.19973  1.0000
  C   C142      1.0  0.04531  0.52372  0.27901  1.0000
  H   H186      1.0  0.36168  0.80257  0.25830  1.0000
  H   H187      1.0  0.42164  0.77604  0.28645  1.0000
  C   C143      1.0  0.45067  0.52577  0.21759  1.0000
  H   H188      1.0  0.17873  0.60928  0.18867  1.0000
  S   S39       1.0  0.28698  0.59459  0.17971  1.0000
  C   C144      1.0  0.07775  0.55496  0.27129  1.0000
  S   S40       1.0  0.29526  0.61463  0.26262  1.0000
  C   C145      1.0  0.47659  0.72865  0.30901  1.0000
  H   H189      1.0  0.32777  0.54604  0.21979  1.0000
  C   C146      1.0  0.28197  0.61800  0.19535  1.0000
  H   H190      1.0  0.12600  0.57874  0.08022  1.0000
  H   H191      1.0  0.09196  0.61772  0.23384  1.0000
  N   N11       1.0  0.15041  0.63987  0.20467  1.0000
  H   H192      1.0  0.30999  0.73800  0.16739  1.0000
  C   C147      1.0  0.29043  0.65867  0.19170  1.0000
  H   H193      1.0  0.38414  0.74873  0.21246  1.0000
  S   S41       1.0  0.41579  0.81192  0.18516  1.0000
  H   H194      1.0  0.00975  0.53682  0.21986  1.0000
  H   H195      1.0  0.32134  0.57949  0.23230  1.0000
  C   C148      1.0  0.08523  0.60390  0.22444  1.0000
  H   H196      1.0  0.48628  0.61207  0.18401  1.0000
  H   H197      1.0  0.17407  0.57185  0.16315  1.0000
  C   C149      1.0  0.42072  0.83511  0.25151  1.0000
  H   H198      1.0  0.36370  0.50415  0.30333  1.0000
  H   H199      1.0  0.05399  0.55067  0.19261  1.0000
  H   H200      1.0  0.21071  0.63942  0.19686  1.0000
  C   C150      1.0  0.35649  0.77084  0.17533  1.0000
  H   H201      1.0  0.35222  0.74903  0.18646  1.0000
  H   H202      1.0  0.47788  0.50490  0.19797  1.0000
  H   H203      1.0  0.46491  0.51133  0.22612  1.0000
  C   C151      1.0  0.26576  0.65616  0.21986  1.0000
  S   S42       1.0  0.14630  0.63829  0.14940  1.0000
  S   S43       1.0  0.23003  0.65243  0.28261  1.0000
  C   C152      1.0  0.46221  0.82547  0.22823  1.0000
  C   C153      1.0  0.11152  0.61212  0.20906  1.0000
  S   S44       1.0  0.25252  0.67972  0.23496  1.0000
  H   H204      1.0  0.31428  0.70835  0.25058  1.0000
  C   C154      1.0  0.31240  0.72129  0.29645  1.0000
  Fe  Fe19      1.0  0.48472  0.60155  0.28068  1.0000
  H   H205      1.0  0.41657  0.84988  0.26118  1.0000
  C   C155      1.0  0.34151  0.70138  0.29321  1.0000
  C   C156      1.0  0.36732  0.82712  0.14653  1.0000
  H   H206      1.0  0.14113  0.64176  0.08492  1.0000
  C   C157      1.0  0.35857  0.51535  0.15680  1.0000
  Fe  Fe20      1.0  0.24351  0.63744  0.25872  1.0000
  H   H207      1.0  0.42613  0.68708  0.30765  1.0000
  H   H208      1.0  0.11693  0.59790  0.18563  1.0000
  C   C158      1.0  0.33780  0.73205  0.25179  1.0000
  S   S45       1.0  0.46575  0.91285  0.29078  1.0000
  H   H209      1.0  0.37145  0.84894  0.13540  1.0000
  S   S46       1.0  0.33009  0.65061  0.29619  1.0000
  C   C159      1.0  0.25964  0.61552  0.22364  1.0000
  C   C160      1.0  0.26735  0.59633  0.21136  1.0000
  C   C161      1.0  0.15202  0.67258  0.19092  1.0000
  H   H210      1.0  0.22710  0.59340  0.10435  1.0000
  C   C162      1.0  0.04894  0.57704  0.22817  1.0000
  C   C163      1.0  0.43199  0.61204  0.09693  1.0000
  H   H211      1.0  0.24798  0.59861  0.23593  1.0000
  H   H212      1.0  0.39383  0.53848  0.27349  1.0000
  C   C164      1.0  0.14640  0.56135  0.16044  1.0000
  H   H213      1.0  0.13944  0.67426  0.22196  1.0000
  C   C165      1.0  0.35585  0.58109  0.14507  1.0000
  C   C166      1.0  0.33463  0.52171  0.27122  1.0000
  C   C167      1.0  0.38623  0.80509  0.17156  1.0000
  H   H214      1.0  0.40321  0.70654  0.28580  1.0000
  Fe  Fe21      1.0  0.48874  0.89953  0.31297  1.0000
  H   H215      1.0  0.46097  0.75062  0.31095  1.0000
  C   C168      1.0  0.37204  0.73237  0.22533  1.0000
  C   C169      1.0  0.43124  0.79745  0.22652  1.0000
  C   C170      1.0  0.37293  0.60948  0.08703  1.0000
  C   C171      1.0  0.10430  0.52185  0.09534  1.0000
  H   H216      1.0  0.36100  0.66374  0.32424  1.0000
  H   H217      1.0  0.45860  0.69345  0.25804  1.0000
  H   H218      1.0  0.43105  0.72325  0.10737  1.0000
  H   H219      1.0  0.40171  0.75811  0.14308  1.0000
  S   S47       1.0  0.47484  0.59657  0.09770  1.0000
  C   C172      1.0  0.48021  0.70200  0.18847  1.0000
  C   C173      1.0  0.45482  0.81561  0.11940  1.0000
  C   C174      1.0  0.49015  0.97843  0.23545  1.0000
  H   H220      1.0  0.02945  0.57090  0.24006  1.0000
  C   C175      1.0  0.35912  0.53719  0.12778  1.0000
  H   H221      1.0  0.39148  0.54488  0.32001  1.0000
  S   S48       1.0  0.45610  0.83630  0.32074  1.0000
  C   C176      1.0  0.12782  0.55986  0.09124  1.0000
  H   H222      1.0  0.49046  0.83299  0.21973  1.0000
  C   C177      1.0  0.30054  0.52776  0.14810  1.0000
  C   C178      1.0  0.46213  0.73598  0.10422  1.0000
  H   H223      1.0  0.39823  0.75308  0.12354  1.0000
  H   H224      1.0  0.48464  0.74545  0.14271  1.0000
  C   C179      1.0  0.09420  0.50695  0.16051  1.0000
  C   C180      1.0  0.03776  0.55775  0.21680  1.0000
  Fe  Fe22      1.0  0.47768  0.84683  0.17407  1.0000
  C   C181      1.0  0.47990  0.76266  0.11229  1.0000
  C   C182      1.0  0.43123  0.50972  0.32575  1.0000
  C   C183      1.0  0.48911  0.69943  0.25958  1.0000
  H   H225      1.0  0.05907  0.51031  0.31733  1.0000
  C   C184      1.0  0.34245  0.50990  0.17358  1.0000
  H   H226      1.0  0.15174  0.50000  0.30297  1.0000
  S   S49       1.0  0.26038  0.50127  0.26682  1.0000
  C   C185      1.0  0.49181  0.96970  0.20414  1.0000
  H   H227      1.0  0.47057  0.70387  0.08592  1.0000
  C   C186      1.0  0.48451  0.72477  0.09176  1.0000
  H   H228      1.0  0.35201  0.50657  0.12666  1.0000
  H   H229      1.0  0.49482  0.79400  0.25891  1.0000
  H   H230      1.0  0.49284  0.96600  0.19198  1.0000
  H   H231      1.0  0.14682  0.50081  0.16815  1.0000
  H   H232      1.0  0.49161  0.99801  0.29566  1.0000
  H   H233      1.0  0.40504  0.50127  0.14021  1.0000
  H   H234      1.0  0.42273  0.74454  0.35072  1.0000
  N   N12       1.0  0.36427  0.69535  0.34273  1.0000
  H   H235      1.0  0.09197  0.78809  0.63942  1.0000
  H   H236      1.0  0.32433  0.79023  0.62285  1.0000
  H   H237      1.0  0.16384  0.88802  0.65584  1.0000
  C   C187      1.0  0.47689  0.67830  0.34888  1.0000
  C   C188      1.0  0.43280  0.86022  0.64512  1.0000
  N   N13       1.0  0.31831  0.78942  0.64812  1.0000
  H   H238      1.0  0.26114  0.80010  0.64812  1.0000
  H   H239      1.0  0.33343  0.63620  0.34428  1.0000
  H   H240      1.0  0.33425  0.66615  0.36732  1.0000
  H   H241      1.0  0.46092  0.87948  0.64419  1.0000
  H   H242      1.0  0.12391  0.99303  0.65301  1.0000
  S   S50       1.0  0.43282  0.95464  0.65407  1.0000
  C   C189      1.0  0.40232  0.68852  0.34524  1.0000
  C   C190      1.0  0.37022  0.73406  0.33146  1.0000
  C   C191      1.0  0.31608  0.76914  0.63493  1.0000
  H   H243      1.0  0.29044  0.83104  0.65718  1.0000
  H   H244      1.0  0.31015  0.69947  0.35713  1.0000
  C   C192      1.0  0.14686  0.97785  0.65391  1.0000
  H   H245      1.0  0.35273  0.71781  0.36387  1.0000
  H   H246      1.0  0.33527  0.74838  0.63496  1.0000
  C   C193      1.0  0.40177  0.85583  0.65817  1.0000
  H   H247      1.0  0.05558  0.74943  0.65308  1.0000
  C   C194      1.0  0.42935  0.71740  0.34921  1.0000
  H   H248      1.0  0.39530  0.62974  0.34093  1.0000
  C   C195      1.0  0.05968  0.77584  0.64318  1.0000
  C   C196      1.0  0.13960  0.93806  0.65448  1.0000
  C   C197      1.0  0.05262  0.84104  0.63554  1.0000
  N   N14       1.0  0.03880  0.80433  0.64862  1.0000
  C   C198      1.0  0.46624  0.71246  0.35076  1.0000
  C   C199      1.0  0.42733  0.84062  0.63315  1.0000
  H   H249      1.0  0.38025  0.75892  0.33663  1.0000
  H   H250      1.0  0.04999  0.76676  0.63279  1.0000
  C   C200      1.0  0.41359  0.65337  0.34398  1.0000
  H   H251      1.0  0.38840  0.80315  0.62425  1.0000
  H   H252      1.0  0.45928  0.62253  0.34381  1.0000
  H   H253      1.0  0.30168  0.83926  0.63570  1.0000
  H   H254      1.0  0.22930  0.92357  0.65730  1.0000
  C   C201      1.0  0.34279  0.66567  0.33581  1.0000
  H   H255      1.0  0.17557  0.82743  0.65834  1.0000
  H   H256      1.0  0.04164  0.83752  0.62465  1.0000
  H   H257      1.0  0.48726  0.73582  0.35289  1.0000
  C   C202      1.0  0.33922  0.69467  0.35845  1.0000
  C   C203      1.0  0.16952  0.91870  0.65545  1.0000
  H   H258      1.0  0.04368  0.86615  0.63938  1.0000
  S   S51       1.0  0.32045  0.91992  0.65829  1.0000
  H   H259      1.0  0.08517  0.85063  0.63189  1.0000
  C   C204      1.0  0.45047  0.64866  0.34570  1.0000
  C   C205      1.0  0.21387  0.97867  0.65552  1.0000
  C   C206      1.0  0.39063  0.81696  0.63406  1.0000
  C   C207      1.0  0.29174  0.81601  0.64722  1.0000
  C   C208      1.0  0.35816  0.81231  0.64715  1.0000
  C   C209      1.0  0.20642  0.93876  0.65631  1.0000
  S   S52       1.0  0.09282  0.91137  0.65492  1.0000
  H   H260      1.0  0.44359  0.52792  0.33296  1.0000
  H   H261      1.0  0.28578  0.75179  0.63624  1.0000
  H   H262      1.0  0.45161  0.84439  0.62296  1.0000
  C   C210      1.0  0.36505  0.83229  0.65924  1.0000
  C   C211      1.0  0.18428  0.99833  0.65407  1.0000
  H   H263      1.0  0.31569  0.67282  0.33291  1.0000
  H   H264      1.0  0.08260  0.82351  0.66111  1.0000
  Fe  Fe23      1.0  0.19615  0.79817  0.81022  1.0000
  S   S53       1.0  0.17375  0.83384  0.82639  1.0000
  S   S54       1.0  0.23870  0.82396  0.78619  1.0000
  C   C212      1.0  0.36717  0.84359  0.72638  1.0000
  C   C213      1.0  0.00761  0.77064  0.82836  1.0000
  H   H265      1.0  0.36457  0.85452  0.75721  1.0000
  S   S55       1.0  0.02898  0.92946  0.72877  1.0000
  S   S56       1.0  0.09277  0.93942  0.78430  1.0000
  Fe  Fe24      1.0  0.29308  0.96416  0.66789  1.0000
  C   C214      1.0  0.29909  0.84591  0.73392  1.0000
  H   H266      1.0  0.01667  0.71026  0.74477  1.0000
  H   H267      1.0  0.08727  0.66874  0.87136  1.0000
  H   H268      1.0  0.43134  0.97154  0.68535  1.0000
  N   N15       1.0  0.05272  0.81572  0.76693  1.0000
  H   H269      1.0  0.14114  0.71020  0.84999  1.0000
  H   H270      1.0  0.33007  0.96220  0.81098  1.0000
  H   H271      1.0  0.01888  0.58888  0.84599  1.0000
  H   H272      1.0  0.16619  0.84248  0.79383  1.0000
  H   H273      1.0  0.00345  0.79341  0.78742  1.0000
  S   S57       1.0  0.15442  0.76028  0.80039  1.0000
  H   H274      1.0  0.13821  0.85634  0.68740  1.0000
  C   C215      1.0  0.04257  0.79401  0.82928  1.0000
  Fe  Fe25      1.0  0.20033  0.78053  0.77717  1.0000
  S   S58       1.0  0.06752  0.64754  0.74517  1.0000
  H   H275      1.0  0.21832  0.65202  0.77474  1.0000
  Fe  Fe26      1.0  0.42803  0.98328  0.80329  1.0000
  C   C216      1.0  0.04876  0.97658  0.74809  1.0000
  C   C217      1.0  0.03517  0.79427  0.78404  1.0000
  C   C218      1.0  0.11529  0.54563  0.81192  1.0000
  C   C219      1.0  0.13164  0.58268  0.78316  1.0000
  H   H276      1.0  0.33880  0.80102  0.71493  1.0000
  C   C220      1.0  0.06704  0.77776  0.83792  1.0000
  H   H277      1.0  0.14283  0.53563  0.81028  1.0000
  C   C221      1.0  0.35026  0.97426  0.72894  1.0000
  H   H278      1.0  0.40770  0.88834  0.73311  1.0000
  C   C222      1.0  0.41780  0.97202  0.72700  1.0000
  S   S59       1.0  0.26320  0.92355  0.69201  1.0000
  H   H279      1.0  0.03728  0.68628  0.80542  1.0000
  H   H280      1.0  0.29027  0.82791  0.72562  1.0000
  C   C223      1.0  0.18564  0.64061  0.75717  1.0000
  S   S60       1.0  0.39057  0.92860  0.82105  1.0000
  Fe  Fe27      1.0  0.07659  0.70125  0.68655  1.0000
  C   C224      1.0  0.03387  0.75821  0.75529  1.0000
  C   C225      1.0  0.12524  0.59029  0.76731  1.0000
  H   H281      1.0  0.30577  0.87709  0.72726  1.0000
  H   H282      1.0  0.06498  0.74599  0.87506  1.0000
  S   S61       1.0  0.34528  0.99184  0.67587  1.0000
  H   H283      1.0  0.07568  0.84534  0.70660  1.0000
  H   H284      1.0  0.38124  0.94530  0.71334  1.0000
  C   C226      1.0  0.49083  0.97910  0.68791  1.0000
  S   S62       1.0  0.34816  0.90286  0.69261  1.0000
  H   H285      1.0  0.29778  0.78949  0.75999  1.0000
  H   H286      1.0  0.11008  0.73112  0.87490  1.0000
  H   H287      1.0  0.09891  0.78499  0.76577  1.0000
  H   H288      1.0  0.04975  0.80823  0.79240  1.0000
  C   C227      1.0  0.10020  0.68882  0.74704  1.0000
  C   C228      1.0  0.11588  0.72189  0.73410  1.0000
  C   C229      1.0  0.14241  0.75422  0.73584  1.0000
  H   H289      1.0  0.10794  0.72247  0.72269  1.0000
  H   H290      1.0  0.15460  0.77962  0.72580  1.0000
  C   C230      1.0  0.34740  0.83226  0.79697  1.0000
  C   C231      1.0  0.38363  0.85900  0.78991  1.0000
  C   C232      1.0  0.39645  0.88944  0.79698  1.0000
  C   C233      1.0  0.37377  0.89229  0.81147  1.0000
  C   C234      1.0  0.33746  0.86569  0.81846  1.0000
  C   C235      1.0  0.32397  0.83619  0.81107  1.0000
  H   H291      1.0  0.40199  0.85607  0.77906  1.0000
  H   H292      1.0  0.42455  0.90983  0.79153  1.0000
  H   H293      1.0  0.31975  0.86782  0.82964  1.0000
  H   H294      1.0  0.13671  0.75420  0.83758  1.0000
  C   C236      1.0  0.14915  0.86214  0.81531  1.0000
  C   C237      1.0  0.12934  0.88685  0.82211  1.0000
  C   C238      1.0  0.11185  0.91113  0.81259  1.0000
  C   C239      1.0  0.11376  0.90981  0.79650  1.0000
  C   C240      1.0  0.13322  0.88499  0.78984  1.0000
  C   C241      1.0  0.15067  0.86099  0.79924  1.0000
  H   H295      1.0  0.12820  0.88781  0.83455  1.0000
  H   H296      1.0  0.09688  0.93074  0.81767  1.0000
  H   H297      1.0  0.13587  0.88533  0.77724  1.0000
  H   H298      1.0  0.40598  0.87181  0.66727  1.0000
  C   C242      1.0  0.25659  0.92682  0.84462  1.0000
  H   H299      1.0  0.09874  0.57548  0.76474  1.0000
  C   C243      1.0  0.08918  0.67042  0.81067  1.0000
  H   H300      1.0  0.45591  0.86147  0.68934  1.0000
  C   C244      1.0  0.05715  0.73761  0.84606  1.0000
  H   H301      1.0  0.05085  0.82494  0.82335  1.0000
  H   H302      1.0  0.25211  0.91898  0.85766  1.0000
  C   C245      1.0  0.43149  0.85614  0.69965  1.0000
  H   H303      1.0  0.11993  0.57199  0.81675  1.0000
  C   C246      1.0  0.09460  0.81499  0.76307  1.0000
  H   H304      1.0  0.14605  0.62428  0.74261  1.0000
  S   S63       1.0  0.02666  0.66652  0.67935  1.0000
  H   H305      1.0  0.06808  0.87117  0.77300  1.0000
  S   S64       1.0  0.48460  0.98983  0.78575  1.0000
  C   C247      1.0  0.02328  0.63726  0.82608  1.0000
  H   H306      1.0  0.09033  0.59676  0.84173  1.0000
  Fe  Fe28      1.0  0.04460  0.92758  0.67061  1.0000
  S   S65       1.0  0.30624  0.96107  0.72342  1.0000
  C   C248      1.0  0.12311  0.91752  0.69650  1.0000
  C   C249      1.0  0.13340  0.91999  0.72916  1.0000
  C   C250      1.0  0.15029  0.93115  0.74127  1.0000
  H   H307      1.0  0.15130  0.93946  0.69052  1.0000
  H   H308      1.0  0.10959  0.90891  0.68685  1.0000
  H   H309      1.0  0.10266  0.93221  0.70273  1.0000
  H   H310      1.0  0.10806  0.93041  0.72727  1.0000
  H   H311      1.0  0.13792  0.94964  0.74818  1.0000
  N   N16       1.0  0.27596  0.95310  0.79256  1.0000
  C   C251      1.0  0.24050  0.94006  0.78667  1.0000
  H   H312      1.0  0.11145  0.83024  0.77040  1.0000
  C   C252      1.0  0.30559  0.93316  0.78603  1.0000
  C   C253      1.0  0.26868  0.94463  0.81042  1.0000
  C   C254      1.0  0.23054  0.93138  0.82074  1.0000
  C   C255      1.0  0.03188  0.79658  0.75634  1.0000
  C   C256      1.0  0.22473  0.92221  0.83758  1.0000
  H   H313      1.0  0.03795  0.76357  0.78645  1.0000
  H   H314      1.0  0.02063  0.85999  0.76939  1.0000
  H   H315      1.0  0.21788  0.95618  0.78980  1.0000
  H   H316      1.0  0.24734  0.94538  0.77325  1.0000
  H   H317      1.0  0.22749  0.90823  0.79180  1.0000
  H   H318      1.0  0.04951  0.95023  0.75645  1.0000
  H   H319      1.0  0.19380  0.86244  0.71812  1.0000
  C   C257      1.0  0.18233  0.81032  0.66869  1.0000
  H   H320      1.0  0.29654  0.90121  0.79176  1.0000
  H   H321      1.0  0.31037  0.93741  0.77269  1.0000
  H   H322      1.0  0.33480  0.94414  0.78816  1.0000
  H   H323      1.0  0.20471  0.92728  0.81610  1.0000
  C   C258      1.0  0.01434  0.73944  0.74546  1.0000
  H   H324      1.0  0.19534  0.91067  0.84517  1.0000
  H   H325      1.0  0.07805  0.51683  0.78202  1.0000
  H   H326      1.0  0.48512  0.98848  0.69895  1.0000
  C   C259      1.0  0.07884  0.61597  0.83364  1.0000
  H   H327      1.0  0.19597  0.92728  0.75391  1.0000
  C   C260      1.0  0.46894  0.96131  0.66506  1.0000
  H   H328      1.0  0.27272  0.84041  0.74396  1.0000
  H   H329      1.0  0.31929  0.94478  0.84023  1.0000
  H   H330      1.0  0.20568  0.66336  0.74733  1.0000
  H   H331      1.0  0.07207  0.59624  0.80233  1.0000
  N   N17       1.0  0.10227  0.55321  0.79657  1.0000
  H   H332      1.0  0.06327  0.87496  0.75273  1.0000
  C   C261      1.0  0.04876  0.66673  0.81335  1.0000
  S   S66       1.0  0.18585  0.79416  0.75291  1.0000
  C   C262      1.0  0.06717  0.67992  0.86431  1.0000
  C   C263      1.0  0.15384  0.75326  0.75043  1.0000
  Fe  Fe29      1.0  0.26618  0.77517  0.79405  1.0000
  H   H333      1.0  0.10896  0.82901  0.75014  1.0000
  C   C264      1.0  0.16750  0.75059  0.68966  1.0000
  C   C265      1.0  0.03832  0.61144  0.83603  1.0000
  C   C266      1.0  0.13828  0.72017  0.76331  1.0000
  C   C267      1.0  0.11103  0.68834  0.76173  1.0000
  C   C268      1.0  0.32208  0.79520  0.74913  1.0000
  S   S67       1.0  0.01551  0.88346  0.69404  1.0000
  H   H334      1.0  0.46134  0.89913  0.70990  1.0000
  Fe  Fe30      1.0  0.04088  0.61393  0.69349  1.0000
  H   H335      1.0  0.14748  0.71897  0.77448  1.0000
  S   S68       1.0  0.05036  0.97865  0.68177  1.0000
  H   H336      1.0  0.31429  0.85454  0.76199  1.0000
  H   H337      1.0  0.34721  0.78668  0.75348  1.0000
  C   C269      1.0  0.38294  0.96247  0.72211  1.0000
  Fe  Fe31      1.0  0.01537  0.93481  0.70457  1.0000
  C   C270      1.0  0.36525  0.82216  0.71440  1.0000
  C   C271      1.0  0.18275  0.91842  0.74458  1.0000
  S   S69       1.0  0.22604  0.75208  0.81881  1.0000
  C   C272      1.0  0.34017  0.86079  0.75171  1.0000
  S   S70       1.0  0.09462  0.64884  0.69854  1.0000
  N   N18       1.0  0.12935  0.88323  0.70749  1.0000
  C   C273      1.0  0.14846  0.89553  0.71996  1.0000
  C   C274      1.0  0.10440  0.64593  0.82109  1.0000
  S   S71       1.0  0.33162  0.79411  0.78809  1.0000
  H   H338      1.0  0.14919  0.72187  0.69574  1.0000
  C   C275      1.0  0.02158  0.71449  0.84463  1.0000
  C   C276      1.0  0.22502  0.80201  0.68699  1.0000
  H   H339      1.0  0.07105  0.86982  0.72255  1.0000
  Fe  Fe32      1.0  0.29562  0.88200  0.68354  1.0000
  H   H340      1.0  0.39487  0.81153  0.69234  1.0000
  C   C277      1.0  0.21511  0.82520  0.67419  1.0000
  H   H341      1.0  0.15495  0.83495  0.70418  1.0000
  C   C278      1.0  0.09240  0.74424  0.86708  1.0000
  H   H342      1.0  0.18214  0.88206  0.69115  1.0000
  N   N19       1.0  0.33295  0.83676  0.74006  1.0000
  C   C279      1.0  0.43448  0.87743  0.71124  1.0000
  C   C280      1.0  0.20114  0.76478  0.69475  1.0000
  Fe  Fe33      1.0  0.31734  0.94736  0.69932  1.0000
  H   H343      1.0  0.06265  0.66058  0.85601  1.0000
  H   H344      1.0  0.03880  0.67603  0.87302  1.0000
  S   S72       1.0  0.23139  0.73342  0.78295  1.0000
  H   H345      1.0  0.09911  0.66290  0.77181  1.0000
  C   C281      1.0  0.05034  0.81210  0.66336  1.0000
  H   H346      1.0  0.29601  0.81572  0.81661  1.0000
  C   C282      1.0  0.15835  0.77313  0.67648  1.0000
  C   C283      1.0  0.09088  0.85584  0.71553  1.0000
  H   H347      1.0  0.00462  0.84354  0.74726  1.0000
  H   H348      1.0  0.20854  0.74685  0.70475  1.0000
  Fe  Fe34      1.0  0.18782  0.71560  0.80691  1.0000
  H   H349      1.0  0.05204  0.56946  0.78935  1.0000
  C   C284      1.0  0.39710  0.82821  0.70133  1.0000
  H   H350      1.0  0.34181  0.83079  0.66943  1.0000
  C   C285      1.0  0.15215  0.61846  0.75451  1.0000
  Fe  Fe35      1.0  0.37083  0.94467  0.66824  1.0000
  H   H351      1.0  0.05046  0.74220  0.76210  1.0000
  C   C286      1.0  0.15231  0.86335  0.69719  1.0000
  C   C287      1.0  0.18096  0.88221  0.72398  1.0000
  C   C288      1.0  0.19802  0.89406  0.73596  1.0000
  H   H352      1.0  0.11532  0.70833  0.83430  1.0000
  S   S73       1.0  0.15508  0.65347  0.81914  1.0000
  S   S74       1.0  0.26846  0.81792  0.69274  1.0000
  H   H353      1.0  0.44256  0.96146  0.72229  1.0000
  H   H354      1.0  0.31190  0.77511  0.74182  1.0000
  H   H355      1.0  0.10997  0.77456  0.86113  1.0000
  Fe  Fe36      1.0  0.05379  0.65291  0.72075  1.0000
  H   H356      1.0  0.23332  0.85410  0.66820  1.0000
  H   H357      1.0  0.22918  0.99052  0.72352  1.0000
  H   H358      1.0  0.32343  0.73919  0.66504  1.0000
  C   C289      1.0  0.16618  0.60579  0.78545  1.0000
  C   C290      1.0  0.46064  0.97011  0.68007  1.0000
  H   H359      1.0  0.34683  0.89252  0.74592  1.0000
  H   H360      1.0  0.22304  0.88382  0.73869  1.0000
  N   N20       1.0  0.08362  0.72136  0.85522  1.0000
  S   S75       1.0  0.04144  0.56137  0.68307  1.0000
  H   H361      1.0  0.00794  0.65423  0.76990  1.0000
  H   H362      1.0  0.09414  0.82960  0.72391  1.0000
  H   H363      1.0  0.17318  0.60305  0.79712  1.0000
  C   C291      1.0  0.40309  0.87108  0.72453  1.0000
  S   S76       1.0  0.03908  0.70753  0.70909  1.0000
  C   C292      1.0  0.12077  0.72365  0.84382  1.0000
  S   S77       1.0  0.11749  0.75524  0.66941  1.0000
  H   H364      1.0  0.01174  0.68348  0.85004  1.0000
  C   C293      1.0  0.06601  0.56696  0.79978  1.0000
  H   H365      1.0  0.10841  0.69177  0.80037  1.0000
  H   H366      1.0  0.09387  0.79696  0.83821  1.0000
  H   H367      1.0  0.30114  0.77189  0.67434  1.0000
  C   C294      1.0  0.19260  0.63429  0.77261  1.0000
  C   C295      1.0  0.03814  0.97474  0.73360  1.0000
  H   H368      1.0  0.09294  0.52263  0.82165  1.0000
  C   C296      1.0  0.05103  0.85711  0.76538  1.0000
  C   C297      1.0  0.29430  0.94134  0.83483  1.0000
  C   C298      1.0  0.30028  0.95069  0.81800  1.0000
  H   H369      1.0  0.04177  0.78509  0.67336  1.0000
  C   C299      1.0  0.09295  0.51535  0.79215  1.0000
  C   C300      1.0  0.00844  0.81461  0.74715  1.0000
  H   H370      1.0  0.04398  0.54675  0.81044  1.0000
  C   C301      1.0  0.30367  0.75920  0.66369  1.0000
  S   S78       1.0  0.00183  0.61270  0.71702  1.0000
  H   H371      1.0  0.27374  0.74133  0.66477  1.0000
  C   C302      1.0  0.99956  0.52191  0.68845  1.0000
  H   H372      1.0  0.03647  0.83416  0.66777  1.0000
  H   H373      1.0  0.11992  0.50526  0.78860  1.0000
  C   C303      1.0  0.35266  0.99641  0.74032  1.0000
  C   C304      1.0  0.42055  0.99464  0.73819  1.0000
  C   C305      1.0  0.29064  0.99575  0.78578  1.0000
  H   H374      1.0  0.72984  0.24451  0.22720  1.0000
  H   H375      1.0  0.95151  0.23988  0.11587  1.0000
  N   N21       1.0  0.92173  0.46383  0.21119  1.0000
  Fe  Fe37      1.0  0.74172  0.18101  0.20380  1.0000
  S   S79       1.0  0.69441  0.21273  0.20356  1.0000
  S   S80       1.0  0.79109  0.21169  0.21262  1.0000
  Fe  Fe38      1.0  0.69645  0.11594  0.19245  1.0000
  S   S81       1.0  0.64538  0.14259  0.19135  1.0000
  S   S82       1.0  0.69387  0.05682  0.18793  1.0000
  Fe  Fe39      1.0  0.69197  0.19784  0.18006  1.0000
  S   S83       1.0  0.68817  0.24639  0.16046  1.0000
  Fe  Fe40      1.0  0.65317  0.15443  0.21492  1.0000
  S   S84       1.0  0.60304  0.14540  0.23605  1.0000
  S   S85       1.0  0.74294  0.17062  0.17912  1.0000
  S   S86       1.0  0.70050  0.12337  0.21718  1.0000
  S   S87       1.0  0.82330  0.30160  0.05162  1.0000
  Fe  Fe41      1.0  0.79463  0.37663  0.07470  1.0000
  S   S88       1.0  0.82271  0.33034  0.08517  1.0000
  Fe  Fe42      1.0  0.86157  0.34577  0.06031  1.0000
  Fe  Fe43      1.0  0.78149  0.29115  0.07554  1.0000
  S   S89       1.0  0.75060  0.23045  0.09016  1.0000
  S   S90       1.0  0.74980  0.33605  0.06705  1.0000
  C   C306      1.0  0.70112  0.23973  0.14099  1.0000
  C   C307      1.0  0.70890  0.27188  0.12784  1.0000
  C   C308      1.0  0.72345  0.26882  0.11217  1.0000
  C   C309      1.0  0.72881  0.23310  0.10957  1.0000
  C   C310      1.0  0.71868  0.20016  0.12264  1.0000
  C   C311      1.0  0.70530  0.20360  0.13844  1.0000
  H   H376      1.0  0.70542  0.29970  0.12986  1.0000
  H   H377      1.0  0.73099  0.29432  0.10216  1.0000
  H   H378      1.0  0.72268  0.17242  0.12064  1.0000
  H   H379      1.0  0.69889  0.17850  0.14861  1.0000
  C   C312      1.0  0.72946  0.47736  0.24503  1.0000
  C   C313      1.0  0.93150  0.39327  0.07824  1.0000
  H   H380      1.0  0.83083  0.35465  0.19249  1.0000
  C   C314      1.0  0.85081  0.21871  0.18675  1.0000
  C   C315      1.0  0.83113  0.23811  0.19669  1.0000
  C   C316      1.0  0.84595  0.27799  0.19500  1.0000
  C   C317      1.0  0.88000  0.29879  0.18310  1.0000
  H   H381      1.0  0.83996  0.18767  0.18828  1.0000
  H   H382      1.0  0.83107  0.29256  0.20302  1.0000
  H   H383      1.0  0.63892  0.27909  0.23786  1.0000
  Fe  Fe44      1.0  0.79510  0.34994  0.04364  1.0000
  S   S91       1.0  0.83695  0.39519  0.05044  1.0000
  C   C318      1.0  0.83572  0.33450  0.26823  1.0000
  C   C319      1.0  0.58817  0.33488  0.28557  1.0000
  C   C320      1.0  0.78783  0.26266  0.00659  1.0000
  H   H384      1.0  0.80211  0.23937  0.00962  1.0000
  H   H385      1.0  0.81366  0.29656  0.02128  1.0000
  C   C321      1.0  0.90005  0.27915  0.17335  1.0000
  C   C322      1.0  0.80520  0.25417  0.28196  1.0000
  C   C323      1.0  0.84088  0.27326  0.28425  1.0000
  H   H386      1.0  0.60998  0.20438  0.20755  1.0000
  H   H387      1.0  0.89136  0.32960  0.18180  1.0000
  H   H388      1.0  0.53340  0.32557  0.19190  1.0000
  H   H389      1.0  0.68154  0.20559  0.26062  1.0000
  H   H390      1.0  0.75950  0.24479  0.04304  1.0000
  S   S92       1.0  0.78576  0.42179  0.08844  1.0000
  S   S93       1.0  0.92624  0.35167  0.05496  1.0000
  H   H391      1.0  0.95008  0.26736  0.13096  1.0000
  C   C324      1.0  0.88562  0.23905  0.17533  1.0000
  H   H392      1.0  0.74660  0.29248  0.22913  1.0000
  C   C325      1.0  0.67314  0.29300  0.28409  1.0000
  H   H393      1.0  0.51373  0.18750  0.18927  1.0000
  H   H394      1.0  0.74582  0.25145  0.24494  1.0000
  C   C326      1.0  0.52231  0.25012  0.31342  1.0000
  N   N22       1.0  0.69966  0.21134  0.04987  1.0000
  H   H395      1.0  0.66826  0.20311  0.24200  1.0000
  C   C327      1.0  0.69450  0.22394  0.03319  1.0000
  C   C328      1.0  0.68708  0.23923  0.05896  1.0000
  C   C329      1.0  0.67750  0.17088  0.05836  1.0000
  C   C330      1.0  0.67665  0.15573  0.07488  1.0000
  C   C331      1.0  0.65744  0.14504  0.05054  1.0000
  C   C332      1.0  0.65632  0.11751  0.08312  1.0000
  C   C333      1.0  0.63719  0.10683  0.05892  1.0000
  C   C334      1.0  0.63654  0.09314  0.07518  1.0000
  H   H396      1.0  0.72456  0.33964  0.23900  1.0000
  S   S94       1.0  0.75362  0.36064  0.20364  1.0000
  H   H397      1.0  0.71242  0.45844  0.22427  1.0000
  H   H398      1.0  0.70681  0.20683  0.02505  1.0000
  H   H399      1.0  0.71003  0.25500  0.02745  1.0000
  H   H400      1.0  0.66317  0.22148  0.03311  1.0000
  H   H401      1.0  0.69440  0.23528  0.07095  1.0000
  H   H402      1.0  0.70192  0.27010  0.05241  1.0000
  H   H403      1.0  0.65496  0.23606  0.06098  1.0000
  C   C335      1.0  0.66902  0.27830  0.23208  1.0000
  H   H404      1.0  0.65721  0.15349  0.03791  1.0000
  C   C336      1.0  0.69012  0.28547  0.25634  1.0000
  H   H405      1.0  0.62213  0.08759  0.05273  1.0000
  H   H406      1.0  0.61650  0.47716  0.15909  1.0000
  N   N23       1.0  0.88094  0.24226  0.23866  1.0000
  C   C337      1.0  0.84217  0.25139  0.24162  1.0000
  C   C338      1.0  0.87723  0.20770  0.23171  1.0000
  C   C339      1.0  0.89114  0.23066  0.25443  1.0000
  C   C340      1.0  0.91045  0.27727  0.22810  1.0000
  C   C341      1.0  0.93001  0.27891  0.21204  1.0000
  C   C342      1.0  0.91955  0.31171  0.23363  1.0000
  C   C343      1.0  0.95751  0.31261  0.20238  1.0000
  C   C344      1.0  0.94747  0.34503  0.22395  1.0000
  H   H407      1.0  0.57598  0.45410  0.13444  1.0000
  H   H408      1.0  0.84229  0.27611  0.24738  1.0000
  H   H409      1.0  0.83303  0.25956  0.23013  1.0000
  H   H410      1.0  0.81900  0.22603  0.24973  1.0000
  H   H411      1.0  0.85503  0.18191  0.24004  1.0000
  H   H412      1.0  0.90545  0.19914  0.22918  1.0000
  H   H413      1.0  0.86703  0.21305  0.22035  1.0000
  H   H414      1.0  0.89135  0.25345  0.26127  1.0000
  H   H415      1.0  0.86940  0.20421  0.26258  1.0000
  H   H416      1.0  0.92052  0.22428  0.25273  1.0000
  H   H417      1.0  0.92426  0.25479  0.20652  1.0000
  H   H418      1.0  0.90494  0.31325  0.24548  1.0000
  S   S95       1.0  0.96737  0.40951  0.16865  1.0000
  H   H419      1.0  0.52465  0.19891  0.28445  1.0000
  C   C345      1.0  0.51897  0.01899  0.28924  1.0000
  C   C346      1.0  0.99225  0.38897  0.06188  1.0000
  C   C347      1.0  0.65752  0.04331  0.27984  1.0000
  C   C348      1.0  0.85983  0.45952  0.11655  1.0000
  C   C349      1.0  0.79393  0.29475  0.01339  1.0000
  H   H420      1.0  0.76735  0.44367  0.18941  1.0000
  H   H421      1.0  0.55790  0.48972  0.25145  1.0000
  H   H422      1.0  0.71284  0.36365  0.09564  1.0000
  H   H423      1.0  0.98385  0.28758  0.11188  1.0000
  C   C350      1.0  0.92633  0.32597  0.11509  1.0000
  S   S96       1.0  0.55944  0.38605  0.31895  1.0000
  C   C351      1.0  0.67441  0.47710  0.26593  1.0000
  C   C352      1.0  0.88434  0.26182  0.11880  1.0000
  C   C353      1.0  0.86991  0.25213  0.13582  1.0000
  C   C354      1.0  0.85917  0.24564  0.10972  1.0000
  C   C355      1.0  0.83312  0.22716  0.14338  1.0000
  H   H424      1.0  0.99135  0.46294  0.19056  1.0000
  C   C356      1.0  0.80949  0.21127  0.13418  1.0000
  H   H425      1.0  0.92169  0.32384  0.12825  1.0000
  H   H426      1.0  0.55205  0.44512  0.23340  1.0000
  H   H427      1.0  0.90420  0.34014  0.11065  1.0000
  S   S97       1.0  0.90165  0.47317  0.27398  1.0000
  H   H428      1.0  0.63313  0.49520  0.29521  1.0000
  H   H429      1.0  0.95432  0.37064  0.22858  1.0000
  Fe  Fe45      1.0  0.91614  0.38933  0.30624  1.0000
  C   C357      1.0  0.74622  0.42417  0.29412  1.0000
  H   H430      1.0  0.85765  0.39571  0.99777  1.0000
  C   C358      1.0  0.61178  0.33914  0.25750  1.0000
  C   C359      1.0  0.52031  0.05865  0.28550  1.0000
  H   H431      1.0  0.64907  0.48971  0.26923  1.0000
  H   H432      1.0  0.51795  0.31803  0.27935  1.0000
  H   H433      1.0  0.78115  0.19151  0.14008  1.0000
  N   N24       1.0  0.80199  0.34141  0.14390  1.0000
  C   C360      1.0  0.82634  0.32814  0.15486  1.0000
  C   C361      1.0  0.76288  0.33978  0.15383  1.0000
  C   C362      1.0  0.79600  0.31320  0.13377  1.0000
  C   C363      1.0  0.82140  0.38179  0.13428  1.0000
  C   C364      1.0  0.83875  0.39103  0.11742  1.0000
  C   C365      1.0  0.82479  0.41322  0.14186  1.0000
  C   C366      1.0  0.85745  0.42938  0.10876  1.0000
  C   C367      1.0  0.84345  0.45147  0.13306  1.0000
  H   H434      1.0  0.95572  0.34619  0.10944  1.0000
  H   H435      1.0  0.82983  0.34657  0.16353  1.0000
  H   H436      1.0  0.81312  0.29760  0.16221  1.0000
  H   H437      1.0  0.85622  0.32947  0.14797  1.0000
  H   H438      1.0  0.76426  0.35703  0.16302  1.0000
  H   H439      1.0  0.74742  0.30952  0.16086  1.0000
  H   H440      1.0  0.74387  0.35031  0.14607  1.0000
  H   H441      1.0  0.82412  0.30946  0.12718  1.0000
  H   H442      1.0  0.77903  0.28363  0.14117  1.0000
  H   H443      1.0  0.77935  0.32284  0.12475  1.0000
  H   H444      1.0  0.83753  0.36947  0.11048  1.0000
  H   H445      1.0  0.81321  0.40850  0.15466  1.0000
  H   H446      1.0  0.86920  0.43593  0.09579  1.0000
  H   H447      1.0  0.82689  0.49168  0.17167  1.0000
  C   C368      1.0  0.59477  0.21248  0.21782  1.0000
  H   H448      1.0  0.90138  0.22358  0.16799  1.0000
  C   C369      1.0  0.79967  0.31564  0.26616  1.0000
  C   C370      1.0  0.85577  0.31347  0.27766  1.0000
  H   H449      1.0  0.85745  0.25675  0.29089  1.0000
  H   H450      1.0  0.89995  0.38724  0.08104  1.0000
  H   H451      1.0  0.80908  0.44141  0.28858  1.0000
  H   H452      1.0  0.99587  0.37533  0.32568  1.0000
  C   C371      1.0  0.82998  0.38446  0.18804  1.0000
  S   S98       1.0  0.79133  0.20305  0.28759  1.0000
  C   C372      1.0  0.58533  0.24861  0.21568  1.0000
  C   C373      1.0  0.72952  0.26274  0.23609  1.0000
  H   H453      1.0  0.59266  0.26779  0.20375  1.0000
  S   S99       1.0  0.69997  0.42323  0.17614  1.0000
  H   H454      1.0  0.65620  0.10664  0.09573  1.0000
  S   S100      1.0  0.71866  0.13922  0.32638  1.0000
  H   H455      1.0  0.59078  0.30418  0.28894  1.0000
  H   H456      1.0  0.88411  0.37848  0.02107  1.0000
  N   N25       1.0  0.68903  0.26182  0.24429  1.0000
  H   H457      1.0  0.63658  0.21687  0.25696  1.0000
  C   C374      1.0  0.71436  0.41158  0.13176  1.0000
  C   C375      1.0  0.66800  0.22017  0.25135  1.0000
  S   S101      1.0  0.94344  0.30338  0.15871  1.0000
  C   C376      1.0  0.78386  0.27562  0.27338  1.0000
  S   S102      1.0  0.65703  0.32958  0.19113  1.0000
  H   H458      1.0  0.66758  0.07436  0.27296  1.0000
  C   C377      1.0  0.68106  0.36576  0.11899  1.0000
  C   C378      1.0  0.79529  0.39581  0.19198  1.0000
  S   S103      1.0  0.93522  0.40495  0.13548  1.0000
  C   C379      1.0  0.54587  0.07576  0.21477  1.0000
  H   H459      1.0  0.91413  0.30833  0.08773  1.0000
  H   H460      1.0  0.88875  0.40121  0.17379  1.0000
  Fe  Fe46      1.0  0.61249  0.34807  0.20770  1.0000
  H   H461      1.0  0.84546  0.47506  0.13908  1.0000
  Fe  Fe47      1.0  0.70042  0.37510  0.19689  1.0000
  H   H462      1.0  0.66632  0.26070  0.22306  1.0000
  C   C380      1.0  0.70992  0.32564  0.25151  1.0000
  H   H463      1.0  0.57294  0.31032  0.16935  1.0000
  H   H464      1.0  0.72790  0.37855  0.25900  1.0000
  C   C381      1.0  0.86199  0.44968  0.17173  1.0000
  H   H465      1.0  0.68495  0.30833  0.22508  1.0000
  C   C382      1.0  0.69417  0.33171  0.27905  1.0000
  C   C383      1.0  0.71192  0.34826  0.26278  1.0000
  C   C384      1.0  0.67132  0.26999  0.27299  1.0000
  H   H466      1.0  0.51398  0.04589  0.24645  1.0000
  H   H467      1.0  0.65533  0.24004  0.27779  1.0000
  C   C385      1.0  0.71340  0.37694  0.10571  1.0000
  C   C386      1.0  0.65484  0.03915  0.17970  1.0000
  H   H468      1.0  0.64408  0.05861  0.24978  1.0000
  H   H469      1.0  0.65577  0.34353  0.11917  1.0000
  C   C387      1.0  0.92740  0.32653  0.99790  1.0000
  C   C388      1.0  0.74619  0.42366  0.11824  1.0000
  H   H470      1.0  0.78442  0.33190  0.25879  1.0000
  H   H471      1.0  0.69687  0.34878  0.28783  1.0000
  C   C389      1.0  0.86296  0.41102  0.17757  1.0000
  H   H472      1.0  0.65860  0.28056  0.29677  1.0000
  S   S104      1.0  0.68450  0.13376  0.29399  1.0000
  C   C390      1.0  0.58797  0.03231  0.21928  1.0000
  Fe  Fe48      1.0  0.67016  0.10008  0.31990  1.0000
  H   H473      1.0  0.57063  0.17776  0.17754  1.0000
  H   H474      1.0  0.91449  0.41148  0.20262  1.0000
  S   S105      1.0  0.64090  0.36799  0.14853  1.0000
  H   H475      1.0  0.61112  0.05648  0.22041  1.0000
  Fe  Fe49      1.0  0.94585  0.44824  0.15044  1.0000
  C   C391      1.0  0.57459  0.38488  0.26451  1.0000
  S   S106      1.0  0.60391  0.39380  0.18815  1.0000
  N   N26       1.0  0.92397  0.28746  0.11128  1.0000
  S   S107      1.0  0.65673  0.38919  0.21528  1.0000
  C   C392      1.0  0.74587  0.40612  0.10527  1.0000
  S   S108      1.0  0.77853  0.36254  0.01965  1.0000
  Fe  Fe50      1.0  0.72877  0.17599  0.30116  1.0000
  H   H476      1.0  0.56570  0.10086  0.21706  1.0000
  C   C393      1.0  0.78228  0.44132  0.29670  1.0000
  H   H477      1.0  0.55477  0.07814  0.20158  1.0000
  C   C394      1.0  0.79406  0.43454  0.18620  1.0000
  C   C395      1.0  0.68174  0.38265  0.13211  1.0000
  H   H478      1.0  0.86709  0.25158  0.09668  1.0000
  C   C396      1.0  0.55190  0.28621  0.17813  1.0000
  Fe  Fe51      1.0  0.65201  0.37892  0.17199  1.0000
  H   H479      1.0  0.52216  0.02455  0.32457  1.0000
  C   C397      1.0  0.82774  0.46174  0.17626  1.0000
  H   H480      1.0  0.53416  0.32044  0.25823  1.0000
  H   H481      1.0  0.75633  0.26094  0.27156  1.0000
  N   N27       1.0  0.57933  0.34465  0.26941  1.0000
  H   H482      1.0  0.70585  0.34179  0.31727  1.0000
  H   H483      1.0  0.57204  0.44574  0.20409  1.0000
  H   H484      1.0  0.64715  0.09554  0.16900  1.0000
  C   C398      1.0  0.77447  0.32421  0.00998  1.0000
  C   C399      1.0  0.58544  0.18743  0.23324  1.0000
  C   C400      1.0  0.56522  0.39816  0.24950  1.0000
  H   H485      1.0  0.88356  0.32788  0.27938  1.0000
  C   C401      1.0  0.96389  0.45403  0.23134  1.0000
  S   S109      1.0  0.85652  0.38396  0.25862  1.0000
  H   H486      1.0  0.62170  0.25942  0.14317  1.0000
  H   H487      1.0  0.60556  0.34196  0.24538  1.0000
  H   H488      1.0  0.76295  0.42390  0.21938  1.0000
  H   H489      1.0  0.69220  0.17318  0.08152  1.0000
  Fe  Fe52      1.0  0.65226  0.43363  0.19425  1.0000
  H   H490      1.0  0.82301  0.21980  0.15645  1.0000
  H   H491      1.0  0.66308  0.44533  0.26730  1.0000
  H   H492      1.0  0.89982  0.49570  0.19230  1.0000
  H   H493      1.0  0.52422  0.19215  0.16119  1.0000
  C   C402      1.0  0.54782  0.24687  0.17704  1.0000
  H   H494      1.0  0.68649  0.48369  0.12089  1.0000
  C   C403      1.0  0.63615  0.06440  0.17136  1.0000
  C   C404      1.0  0.96651  0.34544  0.20837  1.0000
  H   H495      1.0  0.54633  0.01404  0.24973  1.0000
  H   H496      1.0  0.82048  0.30542  0.31181  1.0000
  C   C405      1.0  0.95142  0.38069  0.06555  1.0000
  C   C406      1.0  0.56270  0.46083  0.25499  1.0000
  H   H497      1.0  0.97175  0.31328  0.19009  1.0000
  C   C407      1.0  0.56658  0.25982  0.22895  1.0000
  H   H498      1.0  0.61626  0.09527  0.26754  1.0000
  C   C408      1.0  0.57464  0.47138  0.19467  1.0000
  H   H499      1.0  0.59131  0.00452  0.22653  1.0000
  C   C409      1.0  0.74191  0.21445  0.04875  1.0000
  C   C410      1.0  0.58979  0.07305  0.27373  1.0000
  C   C411      1.0  0.78360  0.45870  0.30965  1.0000
  H   H500      1.0  0.56443  0.33746  0.29525  1.0000
  S   S110      1.0  0.90325  0.48227  0.15839  1.0000
  C   C412      1.0  0.59152  0.48048  0.31803  1.0000
  C   C413      1.0  0.56455  0.19751  0.24641  1.0000
  C   C414      1.0  0.58976  0.03293  0.27782  1.0000
  C   C415      1.0  0.73247  0.45856  0.23212  1.0000
  C   C416      1.0  0.91707  0.34179  0.01114  1.0000
  C   C417      1.0  0.82240  0.22066  0.11740  1.0000
  H   H501      1.0  0.77125  0.44641  0.11785  1.0000
  S   S111      1.0  0.66041  0.03488  0.32497  1.0000
  C   C418      1.0  0.71253  0.44111  0.31757  1.0000
  H   H502      1.0  0.71494  0.42510  0.14174  1.0000
  S   S112      1.0  0.82885  0.47974  0.31293  1.0000
  Fe  Fe53      1.0  0.61750  0.37983  0.32317  1.0000
  H   H503      1.0  0.88731  0.26370  0.14338  1.0000
  C   C419      1.0  0.60304  0.26881  0.15268  1.0000
  H   H504      1.0  0.64677  0.04270  0.29279  1.0000
  Fe  Fe54      1.0  0.64158  0.16625  0.30320  1.0000
  C   C420      1.0  0.54659  0.21900  0.15397  1.0000
  S   S113      1.0  0.56156  0.30769  0.22674  1.0000
  C   C421      1.0  0.55502  0.23377  0.24424  1.0000
  H   H505      1.0  0.55734  0.17823  0.25838  1.0000
  C   C422      1.0  0.59145  0.20577  0.17062  1.0000
  C   C423      1.0  0.59054  0.00882  0.16790  1.0000
  S   S114      1.0  0.66678  0.40212  0.30096  1.0000
  H   H506      1.0  0.58966  0.06874  0.15900  1.0000
  C   C424      1.0  0.61240  0.00968  0.32597  1.0000
  H   H507      1.0  0.74838  0.20626  0.06082  1.0000
  H   H508      1.0  0.75298  0.19512  0.04145  1.0000
  H   H509      1.0  0.54021  0.24215  0.25453  1.0000
  C   C425      1.0  0.76332  0.26069  0.99588  1.0000
  H   H510      1.0  0.73620  0.34586  0.99599  1.0000
  H   H511      1.0  0.88606  0.45948  0.23493  1.0000
  H   H512      1.0  0.92830  0.33428  0.02181  1.0000
  H   H513      1.0  0.62097  0.06345  0.08161  1.0000
  H   H514      1.0  0.66169  0.46621  0.15023  1.0000
  C   C426      1.0  0.60390  0.04923  0.16554  1.0000
  C   C427      1.0  0.89815  0.48031  0.22284  1.0000
  H   H515      1.0  0.61200  0.19855  0.16100  1.0000
  H   H516      1.0  0.65511  0.49540  0.10785  1.0000
  N   N28       1.0  0.69767  0.49684  0.24927  1.0000
  Fe  Fe55      1.0  0.96237  0.36897  0.15228  1.0000
  C   C428      1.0  0.89216  0.36681  0.01070  1.0000
  H   H517      1.0  0.59080  0.29166  0.14621  1.0000
  H   H518      1.0  0.80382  0.20832  0.11027  1.0000
  C   C429      1.0  0.95257  0.41324  0.08748  1.0000
  C   C430      1.0  0.54442  0.47365  0.18672  1.0000
  H   H519      1.0  0.84944  0.27848  0.32185  1.0000
  C   C431      1.0  0.87725  0.37661  0.99708  1.0000
  S   S115      1.0  0.59432  0.17624  0.29030  1.0000
  H   H520      1.0  0.68413  0.03169  0.27893  1.0000
  C   C432      1.0  0.75100  0.32288  0.99882  1.0000
  Fe  Fe56      1.0  0.88820  0.40920  0.27546  1.0000
  H   H521      1.0  0.65479  0.46592  0.23886  1.0000
  H   H522      1.0  0.68567  0.44150  0.32554  1.0000
  H   H523      1.0  0.55680  0.11651  0.27480  1.0000
  C   C433      1.0  0.71135  0.42393  0.30456  1.0000
  C   C434      1.0  0.57915  0.41191  0.27425  1.0000
  H   H524      1.0  0.58810  0.40526  0.28544  1.0000
  H   H525      1.0  0.89314  0.40419  0.22375  1.0000
  S   S116      1.0  0.68738  0.21208  0.30777  1.0000
  C   C435      1.0  0.75795  0.47562  0.25434  1.0000
  H   H526      1.0  0.61599  0.43635  0.15044  1.0000
  H   H527      1.0  0.59469  0.03097  0.20643  1.0000
  S   S117      1.0  0.85743  0.39139  0.30157  1.0000
  H   H528      1.0  0.64407  0.44749  0.12111  1.0000
  C   C436      1.0  0.78729  0.45597  0.25103  1.0000
  H   H529      1.0  0.74546  0.41067  0.28412  1.0000
  H   H530      1.0  0.50534  0.41520  0.29855  1.0000
  C   C437      1.0  0.95946  0.46021  0.21515  1.0000
  H   H531      1.0  0.57543  0.46890  0.27742  1.0000
  S   S118      1.0  0.93122  0.45147  0.30791  1.0000
  H   H532      1.0  0.63944  0.36100  0.25626  1.0000
  C   C438      1.0  0.78907  0.43741  0.23844  1.0000
  C   C439      1.0  0.53273  0.21053  0.29422  1.0000
  H   H533      1.0  0.51563  0.07982  0.21761  1.0000
  C   C440      1.0  0.56525  0.20270  0.29976  1.0000
  Fe  Fe57      1.0  0.95682  0.46404  0.28118  1.0000
  Fe  Fe58      1.0  0.87497  0.45476  0.30062  1.0000
  H   H534      1.0  0.59927  0.20991  0.31734  1.0000
  S   S119      1.0  0.94581  0.40136  0.28001  1.0000
  C   C441      1.0  0.57504  0.21692  0.31262  1.0000
  C   C442      1.0  0.54284  0.31620  0.26994  1.0000
  C   C443      1.0  0.82586  0.29418  0.32385  1.0000
  C   C444      1.0  0.76178  0.43879  0.22901  1.0000
  C   C445      1.0  0.57260  0.44902  0.26962  1.0000
  C   C446      1.0  0.51894  0.21793  0.18940  1.0000
  H   H535      1.0  0.62329  0.28265  0.15933  1.0000
  C   C447      1.0  0.55342  0.24034  0.31944  1.0000
  N   N29       1.0  0.57194  0.23564  0.16377  1.0000
  N   N30       1.0  0.54819  0.03796  0.22464  1.0000
  S   S120      1.0  0.65000  0.49360  0.19676  1.0000
  C   C448      1.0  0.54304  0.04080  0.24170  1.0000
  H   H536      1.0  0.61674  0.30947  0.26104  1.0000
  H   H537      1.0  0.81108  0.42118  0.23622  1.0000
  H   H538      1.0  0.60889  0.21656  0.17886  1.0000
  H   H539      1.0  0.54630  0.28584  0.27273  1.0000
  C   C449      1.0  0.55561  0.08559  0.27766  1.0000
  H   H540      1.0  0.56542  0.06534  0.24301  1.0000
  H   H541      1.0  0.75427  0.30362  0.31319  1.0000
  H   H542      1.0  0.93737  0.42281  0.09734  1.0000
  C   C450      1.0  0.50182  0.26632  0.20316  1.0000
  H   H543      1.0  0.53088  0.24041  0.14886  1.0000
  H   H544      1.0  0.61632  0.35376  0.28597  1.0000
  H   H545      1.0  0.56397  0.21091  0.14367  1.0000
  H   H546      1.0  0.50827  0.45532  0.30779  1.0000
  H   H547      1.0  0.87206  0.48714  0.21881  1.0000
  H   H548      1.0  0.98819  0.37128  0.20086  1.0000
  C   C451      1.0  0.74870  0.45881  0.32003  1.0000
  C   C452      1.0  0.89883  0.42459  0.21162  1.0000
  C   C453      1.0  0.51872  0.00576  0.22235  1.0000
  H   H549      1.0  0.96441  0.31445  0.08801  1.0000
  H   H550      1.0  0.56212  0.37959  0.24124  1.0000
  H   H551      1.0  0.80821  0.45428  0.25854  1.0000
  H   H552      1.0  0.86995  0.42566  0.20885  1.0000
  C   C454      1.0  0.55941  0.43562  0.24486  1.0000
  H   H553      1.0  0.76907  0.24575  0.31661  1.0000
  H   H554      1.0  0.93547  0.26683  0.08959  1.0000
  C   C455      1.0  0.65534  0.47917  0.12014  1.0000
  H   H555      1.0  0.53983  0.01939  0.19605  1.0000
  C   C456      1.0  0.63168  0.46717  0.14889  1.0000
  N   N31       1.0  0.62660  0.02048  0.27387  1.0000
  H   H556      1.0  0.69157  0.48008  0.27522  1.0000
  C   C457      1.0  0.58301  0.02959  0.32455  1.0000
  H   H557      1.0  0.58955  0.06078  0.32267  1.0000
  C   C458      1.0  0.74518  0.30807  0.32512  1.0000
  N   N32       1.0  0.63200  0.49227  0.13302  1.0000
  C   C459      1.0  0.51098  0.23391  0.30118  1.0000
  C   C460      1.0  0.52913  0.29555  0.19103  1.0000
  H   H558      1.0  0.60328  0.45685  0.32305  1.0000
  C   C461      1.0  0.63961  0.02743  0.25608  1.0000
  C   C462      1.0  0.59083  0.48570  0.13142  1.0000
  C   C463      1.0  0.54482  0.00903  0.32553  1.0000
  H   H559      1.0  0.51864  0.44968  0.18999  1.0000
  C   C464      1.0  0.99234  0.46034  0.20307  1.0000
  S   S121      1.0  0.92012  0.33653  0.32392  1.0000
  H   H560      1.0  0.75725  0.48875  0.26451  1.0000
  H   H561      1.0  0.61759  0.00973  0.25128  1.0000
  C   C465      1.0  0.67027  0.49622  0.23838  1.0000
  C   C466      1.0  0.55303  0.00610  0.28544  1.0000
  H   H562      1.0  0.66774  0.01923  0.25253  1.0000
  H   H563      1.0  0.94004  0.45142  0.24145  1.0000
  C   C467      1.0  0.95353  0.26973  0.11777  1.0000
  C   C468      1.0  0.51855  0.00046  0.20660  1.0000
  H   H564      1.0  0.94677  0.30700  0.99832  1.0000
  H   H565      1.0  0.87418  0.48920  0.10975  1.0000
  H   H566      1.0  0.93873  0.47635  0.18497  1.0000
  C   C469      1.0  0.93485  0.29437  0.09341  1.0000
  H   H567      1.0  0.79577  0.21724  0.32707  1.0000
  H   H568      1.0  0.58837  0.49772  0.11895  1.0000
  Fe  Fe59      1.0  0.99706  0.43355  0.12174  1.0000
  C   C470      1.0  0.92766  0.48969  0.19480  1.0000
  C   C471      1.0  0.99349  0.42121  0.08380  1.0000
  C   C472      1.0  0.71766  0.33024  0.32728  1.0000
  C   C473      1.0  0.55833  0.48787  0.32698  1.0000
  S   S122      1.0  0.49891  0.28402  0.32053  1.0000
  C   C474      1.0  0.96989  0.29317  0.54530  1.0000
  N   N33       1.0  0.55025  0.17631  0.36934  1.0000
  C   C475      1.0  0.96417  0.32359  0.61527  1.0000
  H   H569      1.0  0.57107  0.08707  0.65435  1.0000
  H   H570      1.0  0.75473  0.19263  0.64782  1.0000
  H   H571      1.0  0.87869  0.28313  0.58647  1.0000
  H   H572      1.0  0.70977  0.32789  0.36697  1.0000
  S   S123      1.0  0.63545  0.14943  0.63226  1.0000
  H   H573      1.0  0.95662  0.34324  0.56942  1.0000
  H   H574      1.0  0.92814  0.47376  0.38435  1.0000
  C   C476      1.0  0.89344  0.32919  0.60554  1.0000
  Fe  Fe60      1.0  0.77281  0.36669  0.56901  1.0000
  S   S124      1.0  0.80284  0.40382  0.54406  1.0000
  Fe  Fe61      1.0  0.78077  0.29155  0.56048  1.0000
  S   S125      1.0  0.81261  0.32108  0.53480  1.0000
  S   S126      1.0  0.77301  0.22732  0.57011  1.0000
  S   S127      1.0  0.52979  0.45279  0.34448  1.0000
  Fe  Fe62      1.0  0.76796  0.35650  0.53551  1.0000
  S   S128      1.0  0.74596  0.37092  0.51296  1.0000
  S   S129      1.0  0.73296  0.32312  0.56044  1.0000
  H   H575      1.0  0.67756  0.24397  0.37651  1.0000
  Fe  Fe63      1.0  0.95459  0.20235  0.56879  1.0000
  C   C477      1.0  0.93153  0.20957  0.63372  1.0000
  N   N34       1.0  0.79003  0.26880  0.33548  1.0000
  C   C478      1.0  0.90151  0.35757  0.44097  1.0000
  C   C479      1.0  0.79365  0.39707  0.60018  1.0000
  H   H576      1.0  0.89775  0.35203  0.51176  1.0000
  H   H577      1.0  0.89119  0.45492  0.64951  1.0000
  C   C480      1.0  0.91437  0.03756  0.57522  1.0000
  Fe  Fe64      1.0  0.75351  0.31573  0.41714  1.0000
  S   S130      1.0  0.79034  0.29837  0.39739  1.0000
  S   S131      1.0  0.71943  0.35991  0.41095  1.0000
  Fe  Fe65      1.0  0.78505  0.27283  0.44342  1.0000
  S   S132      1.0  0.82618  0.25282  0.42587  1.0000
  S   S133      1.0  0.78032  0.25388  0.47024  1.0000
  Fe  Fe66      1.0  0.83794  0.31319  0.41005  1.0000
  S   S134      1.0  0.89481  0.35420  0.39571  1.0000
  Fe  Fe67      1.0  0.77489  0.23964  0.41479  1.0000
  S   S135      1.0  0.76261  0.18478  0.40619  1.0000
  S   S136      1.0  0.80212  0.33468  0.42866  1.0000
  S   S137      1.0  0.73266  0.25529  0.43352  1.0000
  C   C481      1.0  0.82711  0.40036  0.35097  1.0000
  C   C482      1.0  0.71070  0.16532  0.37003  1.0000
  C   C483      1.0  0.73160  0.16123  0.38218  1.0000
  C   C484      1.0  0.73369  0.18760  0.39203  1.0000
  C   C485      1.0  0.71381  0.21713  0.39009  1.0000
  H   H578      1.0  0.83677  0.19853  0.65292  1.0000
  H   H579      1.0  0.74692  0.13825  0.38370  1.0000
  H   H580      1.0  0.62087  0.36963  0.37953  1.0000
  Fe  Fe68      1.0  0.54974  0.39824  0.34340  1.0000
  S   S138      1.0  0.66733  0.20393  0.35233  1.0000
  H   H581      1.0  0.79276  0.46814  0.36764  1.0000
  H   H582      1.0  0.88431  0.04215  0.57752  1.0000
  S   S139      1.0  0.62443  0.13019  0.32872  1.0000
  H   H583      1.0  0.59574  0.14692  0.36327  1.0000
  N   N35       1.0  0.92381  0.31885  0.59420  1.0000
  H   H584      1.0  0.79881  0.41368  0.38848  1.0000
  C   C486      1.0  0.66485  0.36582  0.39316  1.0000
  H   H585      1.0  0.67333  0.39693  0.39197  1.0000
  C   C487      1.0  0.91387  0.34170  0.34382  1.0000
  C   C488      1.0  0.89524  0.30916  0.35671  1.0000
  C   C489      1.0  0.88895  0.31299  0.37267  1.0000
  C   C490      1.0  0.90322  0.34896  0.37581  1.0000
  C   C491      1.0  0.92337  0.38111  0.36296  1.0000
  C   C492      1.0  0.92769  0.37780  0.34695  1.0000
  H   H586      1.0  0.50486  0.07924  0.62722  1.0000
  H   H587      1.0  0.87395  0.28785  0.38258  1.0000
  C   C493      1.0  0.87433  0.33233  0.45441  1.0000
  H   H588      1.0  0.69144  0.33148  0.61724  1.0000
  C   C494      1.0  0.75251  0.33768  0.50113  1.0000
  C   C495      1.0  0.76015  0.35015  0.48424  1.0000
  C   C496      1.0  0.76891  0.32468  0.47461  1.0000
  C   C497      1.0  0.76929  0.28650  0.48185  1.0000
  C   C498      1.0  0.76117  0.27399  0.49872  1.0000
  C   C499      1.0  0.75290  0.29952  0.50835  1.0000
  H   H589      1.0  0.76045  0.37987  0.47862  1.0000
  H   H590      1.0  0.77564  0.33472  0.46161  1.0000
  H   H591      1.0  0.76109  0.24442  0.50435  1.0000
  H   H592      1.0  0.74650  0.28958  0.52139  1.0000
  C   C500      1.0  0.67132  0.16980  0.61411  1.0000
  C   C501      1.0  0.67508  0.20808  0.60554  1.0000
  C   C502      1.0  0.70576  0.22565  0.59179  1.0000
  C   C503      1.0  0.73234  0.20478  0.58640  1.0000
  C   C504      1.0  0.72791  0.16609  0.59472  1.0000
  C   C505      1.0  0.69744  0.14863  0.60857  1.0000
  H   H593      1.0  0.65502  0.22460  0.60979  1.0000
  H   H594      1.0  0.70917  0.25560  0.58563  1.0000
  H   H595      1.0  0.74841  0.14977  0.59064  1.0000
  H   H596      1.0  0.69417  0.11870  0.61488  1.0000
  H   H597      1.0  0.58369  0.30812  0.42521  1.0000
  N   N36       1.0  0.89271  0.38076  0.48825  1.0000
  H   H598      1.0  0.94717  0.41022  0.43217  1.0000
  C   C506      1.0  0.92617  0.39064  0.44273  1.0000
  H   H599      1.0  0.79424  0.19455  0.63190  1.0000
  H   H600      1.0  0.77709  0.37799  0.37929  1.0000
  N   N37       1.0  0.83109  0.05603  0.65660  1.0000
  S   S140      1.0  0.59642  0.31589  0.33409  1.0000
  C   C507      1.0  0.76067  0.29198  0.33811  1.0000
  H   H601      1.0  0.91740  0.42086  0.50121  1.0000
  C   C508      1.0  0.92743  0.24386  0.65506  1.0000
  C   C509      1.0  0.57632  0.21488  0.36037  1.0000
  C   C510      1.0  0.64199  0.28535  0.39666  1.0000
  H   H602      1.0  0.56003  0.24969  0.32974  1.0000
  H   H603      1.0  0.86466  0.43162  0.38725  1.0000
  C   C511      1.0  0.62384  0.31015  0.38786  1.0000
  Fe  Fe69      1.0  0.67419  0.17267  0.33260  1.0000
  H   H604      1.0  0.50487  0.15287  0.39123  1.0000
  C   C512      1.0  0.86837  0.20801  0.64999  1.0000
  C   C513      1.0  0.89272  0.47907  0.65568  1.0000
  Fe  Fe70      1.0  0.65353  0.10099  0.64713  1.0000
  H   H605      1.0  0.78991  0.23019  0.53427  1.0000
  H   H606      1.0  0.87320  0.47792  0.33607  1.0000
  C   C514      1.0  0.70505  0.33743  0.34230  1.0000
  C   C515      1.0  0.52747  0.12928  0.35276  1.0000
  C   C516      1.0  0.80083  0.08809  0.59747  1.0000
  C   C517      1.0  0.98968  0.30324  0.59132  1.0000
  H   H607      1.0  0.92889  0.34237  0.49512  1.0000
  C   C518      1.0  0.91044  0.31505  0.54510  1.0000
  H   H608      1.0  0.83031  0.35742  0.49664  1.0000
  H   H609      1.0  0.68574  0.28144  0.41034  1.0000
  C   C519      1.0  0.75569  0.02836  0.61446  1.0000
  H   H610      1.0  0.74700  0.21694  0.33680  1.0000
  Fe  Fe71      1.0  0.84486  0.36586  0.54510  1.0000
  S   S141      1.0  0.90909  0.39136  0.53561  1.0000
  H   H611      1.0  0.57691  0.23800  0.42691  1.0000
  C   C520      1.0  0.69273  0.30297  0.62381  1.0000
  H   H612      1.0  0.81546  0.27518  0.35574  1.0000
  N   N38       1.0  0.51442  0.09060  0.64985  1.0000
  C   C521      1.0  0.87155  0.34010  0.46965  1.0000
  H   H613      1.0  0.77232  0.24380  0.60347  1.0000
  C   C522      1.0  0.52477  0.16239  0.35906  1.0000
  H   H614      1.0  0.95631  0.48182  0.63358  1.0000
  H   H615      1.0  0.54057  0.04213  0.65379  1.0000
  H   H616      1.0  0.91622  0.44317  0.48110  1.0000
  H   H617      1.0  0.84799  0.38200  0.35321  1.0000
  H   H618      1.0  0.91199  0.25543  0.55349  1.0000
  H   H619      1.0  0.79853  0.38058  0.35161  1.0000
  H   H620      1.0  0.90995  0.35408  0.57379  1.0000
  C   C523      1.0  0.59290  0.25174  0.43452  1.0000
  H   H621      1.0  0.97586  0.01612  0.58269  1.0000
  H   H622      1.0  0.77778  0.25952  0.65029  1.0000
  H   H623      1.0  0.89279  0.43068  0.59007  1.0000
  S   S142      1.0  0.86634  0.17379  0.62504  1.0000
  C   C524      1.0  0.61829  0.30959  0.44297  1.0000
  C   C525      1.0  0.97127  0.09027  0.62402  1.0000
  H   H624      1.0  0.85670  0.24033  0.47669  1.0000
  H   H625      1.0  0.92525  0.27309  0.58155  1.0000
  C   C526      1.0  0.67207  0.30077  0.40344  1.0000
  C   C527      1.0  0.85725  0.41140  0.61449  1.0000
  H   H626      1.0  0.81758  0.24408  0.60919  1.0000
  H   H627      1.0  0.83750  0.41807  0.33826  1.0000
  H   H628      1.0  0.62147  0.34062  0.44137  1.0000
  H   H629      1.0  0.70980  0.14546  0.36223  1.0000
  C   C528      1.0  0.86215  0.45008  0.36179  1.0000
  H   H630      1.0  0.76950  0.19253  0.52528  1.0000
  H   H631      1.0  0.84962  0.31982  0.47965  1.0000
  C   C529      1.0  0.69237  0.22068  0.37821  1.0000
  C   C530      1.0  0.78742  0.38995  0.61704  1.0000
  H   H632      1.0  0.90125  0.22991  0.52771  1.0000
  C   C531      1.0  0.69143  0.19541  0.36797  1.0000
  C   C532      1.0  0.94995  0.23176  0.64295  1.0000
  C   C533      1.0  0.80630  0.07036  0.58459  1.0000
  N   N39       1.0  0.76942  0.24475  0.62827  1.0000
  C   C534      1.0  0.79100  0.25568  0.61101  1.0000
  C   C535      1.0  0.79313  0.26635  0.63732  1.0000
  S   S143      1.0  0.95272  0.14474  0.56264  1.0000
  C   C536      1.0  0.73116  0.25506  0.63009  1.0000
  C   C537      1.0  0.69628  0.22973  0.64067  1.0000
  C   C538      1.0  0.72833  0.29227  0.62194  1.0000
  H   H633      1.0  0.75799  0.37897  0.62457  1.0000
  H   H634      1.0  0.59834  0.22529  0.36703  1.0000
  H   H635      1.0  0.86252  0.48291  0.65884  1.0000
  H   H636      1.0  0.80104  0.28768  0.60595  1.0000
  H   H637      1.0  0.81122  0.20123  0.50171  1.0000
  H   H638      1.0  0.69536  0.20092  0.64748  1.0000
  H   H639      1.0  0.63444  0.22044  0.65025  1.0000
  C   C539      1.0  0.79607  0.44919  0.35909  1.0000
  C   C540      1.0  0.99301  0.07179  0.61430  1.0000
  H   H640      1.0  0.76502  0.18220  0.54645  1.0000
  C   C541      1.0  0.77534  0.06722  0.61235  1.0000
  H   H641      1.0  0.74589  0.18485  0.62869  1.0000
  H   H642      1.0  0.79002  0.08891  0.65012  1.0000
  H   H643      1.0  0.75358  0.31363  0.61407  1.0000
  H   H644      1.0  0.77550  0.03831  0.65076  1.0000
  C   C542      1.0  0.57524  0.14978  0.37404  1.0000
  N   N40       1.0  0.82342  0.42469  0.36281  1.0000
  H   H645      1.0  0.82284  0.23414  0.34819  1.0000
  H   H646      1.0  0.54186  0.13998  0.62943  1.0000
  H   H647      1.0  0.90479  0.35792  0.60792  1.0000
  C   C543      1.0  0.80141  0.25206  0.35046  1.0000
  H   H648      1.0  0.90332  0.35157  0.42913  1.0000
  S   S144      1.0  0.81816  0.33256  0.57074  1.0000
  C   C544      1.0  0.92085  0.41651  0.48871  1.0000
  H   H649      1.0  0.92412  0.27333  0.47662  1.0000
  H   H650      1.0  0.84488  0.40763  0.48570  1.0000
  C   C545      1.0  0.90551  0.28147  0.59098  1.0000
  H   H651      1.0  0.88546  0.28098  0.35436  1.0000
  H   H652      1.0  0.80625  0.46864  0.34668  1.0000
  C   C546      1.0  0.89626  0.37344  0.47193  1.0000
  H   H653      1.0  0.94897  0.20166  0.62394  1.0000
  H   H654      1.0  0.84406  0.22006  0.54869  1.0000
  H   H655      1.0  0.84959  0.39344  0.50616  1.0000
  N   N41       1.0  0.65858  0.30853  0.46377  1.0000
  C   C547      1.0  0.69301  0.33858  0.45312  1.0000
  C   C548      1.0  0.63338  0.32795  0.47336  1.0000
  C   C549      1.0  0.67288  0.28176  0.47537  1.0000
  C   C550      1.0  0.63650  0.28857  0.45374  1.0000
  H   H656      1.0  0.71520  0.23739  0.39768  1.0000
  C   C551      1.0  0.63283  0.24840  0.45409  1.0000
  C   C552      1.0  0.68314  0.34092  0.40185  1.0000
  C   C553      1.0  0.61131  0.23046  0.44459  1.0000
  S   S145      1.0  0.51967  0.33565  0.35587  1.0000
  H   H657      1.0  0.68471  0.36088  0.44446  1.0000
  H   H658      1.0  0.71035  0.35454  0.46015  1.0000
  H   H659      1.0  0.71277  0.32521  0.44572  1.0000
  H   H660      1.0  0.62513  0.35199  0.46561  1.0000
  H   H661      1.0  0.64849  0.34147  0.48170  1.0000
  H   H662      1.0  0.60592  0.30670  0.48081  1.0000
  H   H663      1.0  0.69503  0.26877  0.46901  1.0000
  H   H664      1.0  0.68752  0.29719  0.48332  1.0000
  H   H665      1.0  0.64845  0.25785  0.48355  1.0000
  H   H666      1.0  0.77569  0.23259  0.35975  1.0000
  H   H667      1.0  0.64687  0.23029  0.46138  1.0000
  H   H668      1.0  0.88298  0.30676  0.61727  1.0000
  H   H669      1.0  0.60947  0.19999  0.44481  1.0000
  H   H670      1.0  0.77186  0.08100  0.62225  1.0000
  S   S146      1.0  0.75391  0.38686  0.59133  1.0000
  C   C554      1.0  0.87888  0.45045  0.37538  1.0000
  C   C555      1.0  0.63539  0.35044  0.38602  1.0000
  H   H671      1.0  0.94374  0.42481  0.45841  1.0000
  N   N42       1.0  0.82322  0.18709  0.53256  1.0000
  C   C556      1.0  0.81594  0.14577  0.53170  1.0000
  C   C557      1.0  0.83774  0.18958  0.54733  1.0000
  C   C558      1.0  0.78543  0.19858  0.53461  1.0000
  C   C559      1.0  0.85098  0.21188  0.51746  1.0000
  C   C560      1.0  0.83997  0.21575  0.50246  1.0000
  C   C561      1.0  0.88989  0.23139  0.51700  1.0000
  C   C562      1.0  0.86601  0.23795  0.48797  1.0000
  C   C563      1.0  0.91584  0.25323  0.50241  1.0000
  C   C564      1.0  0.90392  0.25654  0.48793  1.0000
  H   H672      1.0  0.84363  0.13590  0.53023  1.0000
  H   H673      1.0  0.79562  0.12604  0.54300  1.0000
  H   H674      1.0  0.80280  0.14093  0.52145  1.0000
  H   H675      1.0  0.86430  0.17812  0.54738  1.0000
  H   H676      1.0  0.81576  0.17161  0.55854  1.0000
  C   C565      1.0  0.97337  0.36157  0.53461  1.0000
  H   H677      1.0  0.81427  0.39026  0.63723  1.0000
  C   C566      1.0  0.93548  0.34990  0.57892  1.0000
  H   H678      1.0  0.94550  0.26739  0.50237  1.0000
  H   H679      1.0  0.79869  0.29852  0.63263  1.0000
  S   S147      1.0  0.60920  0.39493  0.34718  1.0000
  H   H680      1.0  0.88341  0.06319  0.63803  1.0000
  H   H681      1.0  0.81636  0.11797  0.59601  1.0000
  C   C567      1.0  0.74775  0.30057  0.35322  1.0000
  H   H682      1.0  0.76645  0.43111  0.35986  1.0000
  C   C568      1.0  0.89068  0.19852  0.63702  1.0000
  C   C569      1.0  0.95891  0.31505  0.60042  1.0000
  H   H683      1.0  0.85504  0.30672  0.45296  1.0000
  H   H684      1.0  0.82187  0.25883  0.63673  1.0000
  C   C570      1.0  0.76568  0.20236  0.63447  1.0000
  C   C571      1.0  0.93255  0.35346  0.53846  1.0000
  S   S148      1.0  0.84185  0.09492  0.56673  1.0000
  S   S149      1.0  0.58606  0.29009  0.37970  1.0000
  H   H685      1.0  0.55011  0.14787  0.64809  1.0000
  H   H686      1.0  0.83671  0.41697  0.57747  1.0000
  C   C572      1.0  0.81927  0.39632  0.62421  1.0000
  H   H687      1.0  0.95167  0.41479  0.48477  1.0000
  C   C573      1.0  0.83176  0.41123  0.59050  1.0000
  H   H688      1.0  0.98152  0.24100  0.64019  1.0000
  S   S150      1.0  0.63301  0.03856  0.64678  1.0000
  H   H689      1.0  0.50274  0.14735  0.64399  1.0000
  C   C574      1.0  0.92380  0.39865  0.45795  1.0000
  H   H690      1.0  0.86759  0.33216  0.60048  1.0000
  H   H691      1.0  0.99051  0.39129  0.52942  1.0000
  C   C575      1.0  0.98278  0.05087  0.64794  1.0000
  Fe  Fe72      1.0  0.58024  0.33129  0.35775  1.0000
  C   C576      1.0  0.72015  0.32274  0.35522  1.0000
  C   C577      1.0  0.86345  0.41907  0.59764  1.0000
  C   C578      1.0  0.59655  0.29127  0.43365  1.0000
  H   H692      1.0  0.55742  0.12024  0.38101  1.0000
  C   C579      1.0  0.80546  0.39770  0.37901  1.0000
  S   S151      1.0  0.89736  0.41998  0.62324  1.0000
  C   C580      1.0  0.76105  0.01068  0.60154  1.0000
  C   C581      1.0  0.54911  0.07397  0.64831  1.0000
  H   H693      1.0  0.63269  0.25414  0.39829  1.0000
  H   H694      1.0  0.59431  0.16122  0.38164  1.0000
  C   C582      1.0  0.92914  0.28491  0.54839  1.0000
  C   C583      1.0  0.91565  0.47469  0.37389  1.0000
  S   S152      1.0  0.88971  0.19002  0.57884  1.0000
  H   H695      1.0  0.87891  0.30852  0.54801  1.0000
  C   C584      1.0  0.52766  0.13326  0.64257  1.0000
  H   H696      1.0  0.59283  0.21369  0.34836  1.0000
  Fe  Fe73      1.0  0.88914  0.13074  0.57481  1.0000
  H   H697      1.0  0.95835  0.11264  0.61863  1.0000
  S   S153      1.0  0.89724  0.10595  0.59929  1.0000
  H   H698      1.0  0.56004  0.23786  0.35837  1.0000
  Fe  Fe74      1.0  0.90319  0.16649  0.60249  1.0000
  Fe  Fe75      1.0  0.88436  0.38257  0.64849  1.0000
  H   H699      1.0  0.93519  0.40871  0.36534  1.0000
  C   C585      1.0  0.89948  0.34723  0.49946  1.0000
  C   C586      1.0  0.85277  0.38504  0.49440  1.0000
  H   H700      1.0  0.75774  0.28971  0.36382  1.0000
  H   H701      1.0  0.82502  0.37887  0.38260  1.0000
  H   H702      1.0  0.87720  0.31970  0.50108  1.0000
  S   S154      1.0  0.71605  0.09925  0.64547  1.0000
  H   H703      1.0  0.92623  0.04560  0.56188  1.0000
  Fe  Fe76      1.0  0.69441  0.03535  0.64763  1.0000
  H   H704      1.0  0.79012  0.01802  0.57661  1.0000
  H   H705      1.0  0.94954  0.09446  0.64819  1.0000
  H   H706      1.0  0.54515  0.19013  0.39254  1.0000
  S   S155      1.0  0.86620  0.31788  0.65304  1.0000
  H   H707      1.0  0.94959  0.37844  0.58084  1.0000
  H   H708      1.0  0.89757  0.25710  0.60211  1.0000
  C   C587      1.0  0.88673  0.23093  0.65889  1.0000
  H   H709      1.0  0.56472  0.07888  0.63543  1.0000
  H   H710      1.0  0.94258  0.33275  0.62310  1.0000
  S   S156      1.0  0.96830  0.18429  0.59294  1.0000
  C   C588      1.0  0.88422  0.47595  0.34686  1.0000
  H   H711      1.0  0.85046  0.09135  0.63213  1.0000
  S   S157      1.0  0.99343  0.25674  0.55132  1.0000
  Fe  Fe77      1.0  0.96108  0.12542  0.58762  1.0000
  C   C589      1.0  0.66079  0.24073  0.64247  1.0000
  C   C590      1.0  0.96640  0.08003  0.64081  1.0000
  C   C591      1.0  0.78588  0.03185  0.58653  1.0000
  H   H712      1.0  0.50830  0.09395  0.33713  1.0000
  C   C592      1.0  0.85192  0.06284  0.63948  1.0000
  S   S158      1.0  0.72623  0.00072  0.63338  1.0000
  H   H713      1.0  0.54731  0.11143  0.35557  1.0000
  C   C593      1.0  0.65898  0.27721  0.63402  1.0000
  C   C594      1.0  0.79049  0.05924  0.65676  1.0000
  H   H714      1.0  0.94259  0.40299  0.33711  1.0000
  C   C595      1.0  0.50497  0.11869  0.34212  1.0000
  H   H715      1.0  0.68338  0.35427  0.34397  1.0000
  H   H716      1.0  0.84766  0.11693  0.65652  1.0000
  H   H717      1.0  0.93242  0.05865  0.58023  1.0000
  H   H718      1.0  0.63140  0.28554  0.63532  1.0000
  H   H719      1.0  0.51012  0.20369  0.38217  1.0000
  H   H720      1.0  0.96961  0.49283  0.65117  1.0000
  C   C596      1.0  0.52639  0.18075  0.38447  1.0000
  H   H721      1.0  0.98821  0.29683  0.57977  1.0000
  C   C597      1.0  0.99207  0.33136  0.53807  1.0000
  H   H722      1.0  0.83846  0.04015  0.63387  1.0000
  Fe  Fe78      1.0  0.53717  0.32309  0.33166  1.0000
  H   H723      1.0  0.74958  0.47250  0.32998  1.0000
  C   C598      1.0  0.77480  0.23592  0.32869  1.0000
  S   S159      1.0  0.99791  0.08372  0.59337  1.0000
  C   C599      1.0  0.99805  0.32026  0.62060  1.0000
  H   H724      1.0  0.83758  0.31975  0.32835  1.0000
  C   C600      1.0  0.74429  0.10492  0.87709  1.0000
  H   H725      1.0  0.54184  0.02535  0.71821  1.0000
  C   C601      1.0  0.97274  0.06628  0.76645  1.0000
  S   S160      1.0  0.90218  0.45903  0.84198  1.0000
  C   C602      1.0  0.96440  0.13746  0.77277  1.0000
  S   S161      1.0  0.97757  0.16536  0.82880  1.0000
  N   N43       1.0  0.58491  0.15222  0.85143  1.0000
  H   H726      1.0  0.89760  0.06785  0.90745  1.0000
  H   H727      1.0  0.96577  0.20431  0.68712  1.0000
  H   H728      1.0  0.87838  0.10238  0.82259  1.0000
  Fe  Fe79      1.0  0.70240  0.32728  0.82054  1.0000
  S   S162      1.0  0.70262  0.38469  0.82673  1.0000
  S   S163      1.0  0.77646  0.29018  0.94489  1.0000
  Fe  Fe80      1.0  0.80170  0.19711  0.93453  1.0000
  S   S164      1.0  0.81112  0.25189  0.91516  1.0000
  S   S165      1.0  0.81096  0.13855  0.93222  1.0000
  Fe  Fe81      1.0  0.83424  0.28273  0.93268  1.0000
  S   S166      1.0  0.88842  0.33209  0.92457  1.0000
  Fe  Fe82      1.0  0.75275  0.25526  0.92873  1.0000
  S   S167      1.0  0.71177  0.27651  0.91451  1.0000
  S   S168      1.0  0.83102  0.22762  0.95071  1.0000
  H   H729      1.0  0.66139  0.24400  0.72849  1.0000
  C   C603      1.0  0.82885  0.12222  0.83272  1.0000
  H   H730      1.0  0.82133  0.10081  0.89391  1.0000
  C   C604      1.0  0.86688  0.12130  0.70199  1.0000
  H   H731      1.0  0.53577  0.19394  0.79676  1.0000
  H   H732      1.0  0.80203  0.24774  0.81141  1.0000
  H   H733      1.0  0.72416  0.20225  0.91018  1.0000
  C   C605      1.0  0.62412  0.15805  0.84079  1.0000
  C   C606      1.0  0.54719  0.08377  0.86798  1.0000
  H   H734      1.0  0.78751  0.31901  0.70725  1.0000
  C   C607      1.0  0.70524  0.21894  0.87271  1.0000
  C   C608      1.0  0.69673  0.25530  0.87197  1.0000
  C   C609      1.0  0.69707  0.27201  0.88517  1.0000
  C   C610      1.0  0.70781  0.25339  0.89881  1.0000
  C   C611      1.0  0.71635  0.21701  0.89956  1.0000
  H   H735      1.0  0.68982  0.27065  0.86127  1.0000
  H   H736      1.0  0.68972  0.29972  0.88465  1.0000
  H   H737      1.0  0.91618  0.44667  0.87913  1.0000
  C   C612      1.0  0.78584  0.34118  0.71438  1.0000
  C   C613      1.0  0.51756  0.03626  0.85490  1.0000
  C   C614      1.0  0.84907  0.13524  0.91713  1.0000
  C   C615      1.0  0.86490  0.16502  0.90298  1.0000
  C   C616      1.0  0.89264  0.15971  0.89039  1.0000
  S   S169      1.0  0.90199  0.19229  0.84658  1.0000
  H   H738      1.0  0.85446  0.19132  0.90144  1.0000
  H   H739      1.0  0.90455  0.18267  0.87944  1.0000
  S   S170      1.0  0.56353  0.06789  0.79349  1.0000
  C   C617      1.0  0.82562  0.46383  0.80806  1.0000
  C   C618      1.0  0.79882  0.47126  0.82026  1.0000
  C   C619      1.0  0.76015  0.44850  0.82513  1.0000
  C   C620      1.0  0.74898  0.41681  0.81859  1.0000
  C   C621      1.0  0.77571  0.40970  0.80627  1.0000
  C   C622      1.0  0.81372  0.43388  0.80071  1.0000
  C   C623      1.0  0.90251  0.07263  0.69736  1.0000
  H   H740      1.0  0.73903  0.45489  0.83419  1.0000
  H   H741      1.0  0.76709  0.38563  0.80099  1.0000
  C   C624      1.0  0.56023  0.00963  0.74634  1.0000
  C   C625      1.0  0.85982  0.43769  0.89492  1.0000
  C   C626      1.0  0.83383  0.41558  0.90943  1.0000
  C   C627      1.0  0.84264  0.38320  0.91855  1.0000
  C   C628      1.0  0.87807  0.37361  0.91350  1.0000
  C   C629      1.0  0.90510  0.39714  0.89947  1.0000
  C   C630      1.0  0.89574  0.42892  0.89010  1.0000
  H   H742      1.0  0.80647  0.42297  0.91344  1.0000
  H   H743      1.0  0.82201  0.36597  0.92954  1.0000
  H   H744      1.0  0.93277  0.39031  0.89555  1.0000
  H   H745      1.0  0.92683  0.18226  0.70484  1.0000
  N   N44       1.0  0.87166  0.37086  0.96876  1.0000
  C   C631      1.0  0.77272  0.38061  0.88692  1.0000
  C   C632      1.0  0.88016  0.21599  0.79528  1.0000
  Fe  Fe83      1.0  0.94912  0.16560  0.85397  1.0000
  Fe  Fe84      1.0  0.74938  0.28685  0.80006  1.0000
  C   C633      1.0  0.68975  0.36373  0.89823  1.0000
  S   S171      1.0  0.74099  0.19777  0.94671  1.0000
  H   H746      1.0  0.92155  0.32363  0.97423  1.0000
  C   C634      1.0  0.93303  0.45886  0.69573  1.0000
  C   C635      1.0  0.68168  0.38824  0.87131  1.0000
  H   H747      1.0  0.79288  0.38373  0.85586  1.0000
  S   S172      1.0  0.65573  0.27262  0.83304  1.0000
  S   S173      1.0  0.70341  0.31882  0.79566  1.0000
  H   H748      1.0  0.76783  0.39443  0.89720  1.0000
  H   H749      1.0  0.69276  0.40233  0.85858  1.0000
  H   H750      1.0  0.70663  0.35739  0.90705  1.0000
  H   H751      1.0  0.75834  0.45036  0.87913  1.0000
  H   H752      1.0  0.74161  0.29208  0.76419  1.0000
  H   H753      1.0  0.80481  0.38978  0.88154  1.0000
  C   C636      1.0  0.96706  0.45939  0.68470  1.0000
  Fe  Fe85      1.0  0.88922  0.49781  0.85835  1.0000
  H   H754      1.0  0.71966  0.17095  0.88745  1.0000
  Fe  Fe86      1.0  0.77095  0.23232  0.96157  1.0000
  H   H755      1.0  0.78317  0.16271  0.88887  1.0000
  S   S174      1.0  0.89087  0.41990  0.70041  1.0000
  C   C637      1.0  0.84399  0.39637  0.97008  1.0000
  C   C638      1.0  0.83343  0.01774  0.66594  1.0000
  H   H756      1.0  0.80452  0.09932  0.71168  1.0000
  C   C639      1.0  0.83259  0.05306  0.70867  1.0000
  C   C640      1.0  0.90336  0.11243  0.69669  1.0000
  H   H757      1.0  0.78993  0.17656  0.86726  1.0000
  C   C641      1.0  0.90405  0.12443  0.89189  1.0000
  C   C642      1.0  0.96106  0.21782  0.90475  1.0000
  H   H758      1.0  0.97639  0.03888  0.76383  1.0000
  C   C643      1.0  0.87023  0.01082  0.66753  1.0000
  H   H759      1.0  0.56383  0.18080  0.83152  1.0000
  C   C644      1.0  0.91590  0.25826  0.90272  1.0000
  C   C645      1.0  0.95501  0.14538  0.67282  1.0000
  S   S175      1.0  0.84602  0.47448  0.88241  1.0000
  N   N45       1.0  0.95542  0.25730  0.90524  1.0000
  H   H760      1.0  0.89387  0.39987  0.94340  1.0000
  C   C646      1.0  0.98498  0.34657  0.83972  1.0000
  C   C647      1.0  0.61265  0.07024  0.73407  1.0000
  C   C648      1.0  0.64419  0.09500  0.72145  1.0000
  C   C649      1.0  0.60638  0.08103  0.74905  1.0000
  C   C650      1.0  0.66857  0.12759  0.72388  1.0000
  C   C651      1.0  0.63079  0.11383  0.75128  1.0000
  C   C652      1.0  0.66191  0.13698  0.73877  1.0000
  Fe  Fe87      1.0  0.69925  0.08278  0.67250  1.0000
  Fe  Fe88      1.0  0.62238  0.02749  0.67371  1.0000
  H   H761      1.0  0.96205  0.11786  0.67072  1.0000
  H   H762      1.0  0.73602  0.07529  0.87499  1.0000
  H   H763      1.0  0.62226  0.38154  0.86895  1.0000
  C   C653      1.0  0.55770  0.17721  0.79622  1.0000
  S   S176      1.0  0.97413  0.03655  0.66905  1.0000
  H   H764      1.0  0.73626  0.12577  0.86774  1.0000
  H   H765      1.0  0.58118  0.21185  0.84334  1.0000
  H   H766      1.0  0.65026  0.08956  0.70956  1.0000
  C   C654      1.0  0.59085  0.16014  0.86705  1.0000
  H   H767      1.0  0.69278  0.14573  0.71417  1.0000
  H   H768      1.0  0.77289  0.05425  0.66931  1.0000
  H   H769      1.0  0.68081  0.16230  0.74060  1.0000
  N   N46       1.0  0.87868  0.34637  0.82037  1.0000
  C   C655      1.0  0.90215  0.38651  0.81850  1.0000
  C   C656      1.0  0.90610  0.32270  0.81551  1.0000
  C   C657      1.0  0.85272  0.34904  0.80899  1.0000
  C   C658      1.0  0.85493  0.32746  0.83705  1.0000
  C   C659      1.0  0.85636  0.34518  0.85020  1.0000
  C   C660      1.0  0.82964  0.28972  0.84058  1.0000
  C   C661      1.0  0.83443  0.32576  0.86589  1.0000
  C   C662      1.0  0.80665  0.27129  0.85614  1.0000
  C   C663      1.0  0.80924  0.28912  0.86881  1.0000
  H   H770      1.0  0.92362  0.38674  0.82624  1.0000
  H   H771      1.0  0.91955  0.40002  0.80586  1.0000
  H   H772      1.0  0.88300  0.40615  0.82145  1.0000
  H   H773      1.0  0.92542  0.31926  0.82403  1.0000
  H   H774      1.0  0.92508  0.33627  0.80315  1.0000
  H   H775      1.0  0.89068  0.29287  0.81543  1.0000
  H   H776      1.0  0.82932  0.36331  0.81315  1.0000
  H   H777      1.0  0.86897  0.36596  0.79653  1.0000
  H   H778      1.0  0.83823  0.32006  0.80775  1.0000
  H   H779      1.0  0.87517  0.37344  0.84882  1.0000
  H   H780      1.0  0.82750  0.27416  0.83130  1.0000
  H   H781      1.0  0.83756  0.33890  0.87588  1.0000
  H   H782      1.0  0.78695  0.24291  0.85838  1.0000
  H   H783      1.0  0.79200  0.27436  0.88094  1.0000
  H   H784      1.0  0.56254  0.15717  0.87561  1.0000
  C   C664      1.0  0.62480  0.35838  0.89347  1.0000
  H   H785      1.0  0.93821  0.19442  0.91411  1.0000
  C   C665      1.0  0.94110  0.08070  0.76316  1.0000
  H   H786      1.0  0.77198  0.09565  0.90324  1.0000
  H   H787      1.0  0.91274  0.25186  0.89097  1.0000
  S   S177      1.0  0.83940  0.38488  0.66972  1.0000
  Fe  Fe89      1.0  0.94454  0.24815  0.84492  1.0000
  H   H788      1.0  0.59332  0.34901  0.89796  1.0000
  H   H789      1.0  0.96821  0.43533  0.67914  1.0000
  N   N47       1.0  0.77869  0.32366  0.73201  1.0000
  C   C666      1.0  0.86770  0.04347  0.70337  1.0000
  C   C667      1.0  0.56532  0.18149  0.84412  1.0000
  H   H790      1.0  0.51841  0.12591  0.79411  1.0000
  C   C668      1.0  0.93726  0.18210  0.69196  1.0000
  H   H791      1.0  0.86803  0.01326  0.70385  1.0000
  N   N48       1.0  0.94073  0.14269  0.69026  1.0000
  C   C669      1.0  0.53117  0.06364  0.84005  1.0000
  S   S178      1.0  0.68195  0.01841  0.67473  1.0000
  C   C670      1.0  0.75731  0.23602  0.68348  1.0000
  H   H792      1.0  0.54556  0.11379  0.67394  1.0000
  C   C671      1.0  0.55270  0.10111  0.83908  1.0000
  H   H793      1.0  0.90842  0.23086  0.76992  1.0000
  S   S179      1.0  0.70748  0.22828  0.81042  1.0000
  C   C672      1.0  0.71412  0.19942  0.88666  1.0000
  S   S180      1.0  0.70654  0.19854  0.85599  1.0000
  H   H794      1.0  0.58276  0.06471  0.75931  1.0000
  C   C673      1.0  0.72349  0.21455  0.68057  1.0000
  Fe  Fe90      1.0  0.70535  0.24383  0.83422  1.0000
  C   C674      1.0  0.82582  0.24483  0.80243  1.0000
  H   H795      1.0  0.74787  0.44766  0.86000  1.0000
  S   S181      1.0  0.75173  0.29960  0.82405  1.0000
  C   C675      1.0  0.70736  0.38146  0.88158  1.0000
  C   C676      1.0  0.62370  0.17208  0.79657  1.0000
  H   H796      1.0  0.62273  0.15559  0.82840  1.0000
  H   H797      1.0  0.97937  0.10564  0.69641  1.0000
  H   H798      1.0  0.84646  0.20684  0.81963  1.0000
  S   S182      1.0  0.76284  0.28592  0.68238  1.0000
  N   N49       1.0  0.75027  0.39288  0.87493  1.0000
  C   C677      1.0  0.76085  0.37502  0.86127  1.0000
  C   C678      1.0  0.76338  0.43592  0.86900  1.0000
  H   H799      1.0  0.76469  0.34832  0.89178  1.0000
  H   H800      1.0  0.74701  0.38392  0.85125  1.0000
  H   H801      1.0  0.75170  0.34261  0.86526  1.0000
  H   H802      1.0  0.63175  0.00444  0.73024  1.0000
  Fe  Fe91      1.0  0.93443  0.19797  0.82128  1.0000
  N   N50       1.0  0.58680  0.03612  0.73122  1.0000
  Fe  Fe92      1.0  0.66115  0.26123  0.80836  1.0000
  C   C679      1.0  0.85067  0.22140  0.80704  1.0000
  C   C680      1.0  0.74559  0.29123  0.99169  1.0000
  H   H803      1.0  0.83425  0.42851  0.79109  1.0000
  H   H804      1.0  0.90123  0.46926  0.66723  1.0000
  H   H805      1.0  0.83909  0.32171  0.72964  1.0000
  H   H806      1.0  0.92884  0.06369  0.69317  1.0000
  H   H807      1.0  0.56266  0.12120  0.82728  1.0000
  H   H808      1.0  0.80629  0.28963  0.74765  1.0000
  S   S183      1.0  0.80314  0.29636  0.78048  1.0000
  C   C681      1.0  0.79129  0.09189  0.89230  1.0000
  S   S184      1.0  0.60579  0.24077  0.80068  1.0000
  H   H809      1.0  0.81428  0.36343  0.70964  1.0000
  C   C682      1.0  0.64108  0.37663  0.87717  1.0000
  C   C683      1.0  0.71932  0.17493  0.68084  1.0000
  C   C684      1.0  0.83207  0.26476  0.78622  1.0000
  H   H810      1.0  0.76253  0.35585  0.71160  1.0000
  C   C685      1.0  0.66502  0.24372  0.75291  1.0000
  C   C686      1.0  0.64909  0.35208  0.90397  1.0000
  H   H811      1.0  0.67700  0.24867  0.77578  1.0000
  H   H812      1.0  0.80771  0.49494  0.82572  1.0000
  C   C687      1.0  0.68795  0.25756  0.76276  1.0000
  H   H813      1.0  0.51488  0.02479  0.88035  1.0000
  H   H814      1.0  0.89265  0.23659  0.91250  1.0000
  C   C688      1.0  0.81086  0.11025  0.86233  1.0000
  C   C689      1.0  0.90452  0.39114  0.95452  1.0000
  H   H815      1.0  0.63630  0.22417  0.75833  1.0000
  H   H816      1.0  0.91630  0.35464  0.87087  1.0000
  C   C690      1.0  0.88558  0.23495  0.77902  1.0000
  C   C691      1.0  0.52551  0.04629  0.86883  1.0000
  C   C692      1.0  0.67913  0.25506  0.73616  1.0000
  C   C693      1.0  0.74849  0.15646  0.68447  1.0000
  C   C694      1.0  0.72481  0.28304  0.75595  1.0000
  C   C695      1.0  0.86210  0.26000  0.77454  1.0000
  Fe  Fe93      1.0  0.82563  0.31970  0.67564  1.0000
  H   H817      1.0  0.78322  0.14205  0.84540  1.0000
  C   C696      1.0  0.59546  0.19377  0.79739  1.0000
  H   H818      1.0  0.78473  0.06028  0.89259  1.0000
  H   H819      1.0  0.86700  0.27539  0.76201  1.0000
  S   S185      1.0  0.90977  0.18482  0.80063  1.0000
  H   H820      1.0  0.82972  0.16744  0.87584  1.0000
  C   C697      1.0  0.80524  0.12592  0.84682  1.0000
  N   N51       1.0  0.78646  0.11575  0.87707  1.0000
  H   H821      1.0  0.65301  0.18469  0.79720  1.0000
  H   H822      1.0  0.91711  0.19314  0.68495  1.0000
  C   C698      1.0  0.79762  0.15739  0.87728  1.0000
  H   H823      1.0  0.80557  0.03044  0.71320  1.0000
  H   H824      1.0  0.82436  0.13468  0.82096  1.0000
  C   C699      1.0  0.73959  0.29637  0.73894  1.0000
  C   C700      1.0  0.84245  0.09195  0.86278  1.0000
  C   C701      1.0  0.71591  0.28084  0.72919  1.0000
  C   C702      1.0  0.85938  0.10397  0.83360  1.0000
  C   C703      1.0  0.86627  0.08904  0.84858  1.0000
  H   H825      1.0  0.83421  0.08391  0.67606  1.0000
  C   C704      1.0  0.88700  0.36140  0.98338  1.0000
  C   C705      1.0  0.86140  0.10051  0.91880  1.0000
  H   H826      1.0  0.83240  0.40235  0.95904  1.0000
  H   H827      1.0  0.72522  0.10480  0.88881  1.0000
  H   H828      1.0  0.80686  0.27764  0.72858  1.0000
  C   C706      1.0  0.80908  0.30223  0.73457  1.0000
  H   H829      1.0  0.72504  0.28815  0.71615  1.0000
  C   C707      1.0  0.94125  0.36323  0.86061  1.0000
  H   H830      1.0  0.75881  0.37073  0.73996  1.0000
  C   C708      1.0  0.88889  0.09514  0.90622  1.0000
  H   H831      1.0  0.84895  0.07730  0.92972  1.0000
  S   S186      1.0  0.93473  0.11533  0.87559  1.0000
  C   C709      1.0  0.78357  0.35644  0.74003  1.0000
  C   C710      1.0  0.61381  0.13353  0.79517  1.0000
  H   H832      1.0  0.60736  0.14051  0.87283  1.0000
  H   H833      1.0  0.81126  0.37916  0.73396  1.0000
  C   C711      1.0  0.93685  0.11612  0.76638  1.0000
  C   C712      1.0  0.51537  0.09737  0.67805  1.0000
  H   H834      1.0  0.78558  0.34699  0.75278  1.0000
  H   H835      1.0  0.54400  0.06779  0.72604  1.0000
  H   H836      1.0  0.63553  0.11656  0.79486  1.0000
  C   C713      1.0  0.57580  0.11672  0.79438  1.0000
  H   H837      1.0  0.85027  0.08054  0.87388  1.0000
  H   H838      1.0  0.80481  0.16376  0.69026  1.0000
  S   S187      1.0  0.94948  0.27661  0.66498  1.0000
  S   S188      1.0  0.86843  0.31476  0.69125  1.0000
  S   S189      1.0  0.92176  0.28846  0.85836  1.0000
  H   H839      1.0  0.95924  0.16463  0.77495  1.0000
  H   H840      1.0  0.69320  0.15858  0.67855  1.0000
  C   C714      1.0  0.56145  0.11240  0.85298  1.0000
  H   H841      1.0  0.85830  0.42519  0.97166  1.0000
  H   H842      1.0  0.58017  0.06826  0.70849  1.0000
  S   S190      1.0  0.74270  0.10640  0.68584  1.0000
  H   H843      1.0  0.55243  0.08953  0.87920  1.0000
  H   H844      1.0  0.81269  0.23419  0.68924  1.0000
  H   H845      1.0  0.91980  0.06429  0.75817  1.0000
  H   H846      1.0  0.60868  0.19040  0.86532  1.0000
  C   C715      1.0  0.95201  0.33558  0.85270  1.0000
  H   H847      1.0  0.64285  0.18745  0.83948  1.0000
  H   H848      1.0  0.90942  0.28718  0.90245  1.0000
  Fe  Fe94      1.0  0.50209  0.04839  0.79096  1.0000
  Fe  Fe95      1.0  0.91046  0.31756  0.66811  1.0000
  C   C716      1.0  0.78214  0.17788  0.68752  1.0000
  Fe  Fe96      1.0  0.88640  0.38050  0.68329  1.0000
  C   C717      1.0  0.78672  0.21773  0.68686  1.0000
  H   H849      1.0  0.95982  0.12680  0.71221  1.0000
  C   C718      1.0  0.85064  0.33440  0.96568  1.0000
  C   C719      1.0  0.54784  0.13872  0.79472  1.0000
  H   H850      1.0  0.52523  0.05580  0.82915  1.0000
  H   H851      1.0  0.81813  0.38252  0.98043  1.0000
  S   S191      1.0  0.75313  0.21888  0.98868  1.0000
  C   C720      1.0  0.95669  0.26224  0.92170  1.0000
  H   H852      1.0  0.79523  0.44566  0.86311  1.0000
  C   C721      1.0  0.96189  0.40229  0.85495  1.0000
  H   H853      1.0  0.86424  0.15071  0.70167  1.0000
  H   H854      1.0  0.95870  0.21130  0.89293  1.0000
  C   C722      1.0  0.61020  0.01248  0.72332  1.0000
  H   H855      1.0  0.87017  0.31534  0.96254  1.0000
  H   H856      1.0  0.89088  0.07601  0.84925  1.0000
  H   H857      1.0  0.92448  0.37226  0.95161  1.0000
  S   S192      1.0  0.97203  0.25737  0.81860  1.0000
  H   H858      1.0  0.92218  0.41791  0.95659  1.0000
  H   H859      1.0  0.70077  0.22874  0.67786  1.0000
  H   H860      1.0  0.95305  0.42376  0.86085  1.0000
  H   H861      1.0  0.83678  0.34050  0.95535  1.0000
  C   C723      1.0  0.98477  0.32882  0.89249  1.0000
  H   H862      1.0  0.63649  0.33745  0.91663  1.0000
  H   H863      1.0  0.99505  0.11274  0.80749  1.0000
  H   H864      1.0  0.93614  0.23750  0.93128  1.0000
  H   H865      1.0  0.53484  0.17664  0.85127  1.0000
  H   H866      1.0  0.62538  0.12123  0.76286  1.0000
  S   S193      1.0  0.63838  0.09052  0.67409  1.0000
  H   H867      1.0  0.94778  0.28888  0.92385  1.0000
  H   H868      1.0  0.86936  0.23906  0.66863  1.0000
  C   C724      1.0  0.56229  0.05014  0.72049  1.0000
  H   H869      1.0  0.63968  0.13632  0.84574  1.0000
  H   H870      1.0  0.91195  0.12717  0.76404  1.0000
  C   C725      1.0  0.83214  0.09190  0.70788  1.0000
  H   H871      1.0  0.53880  0.02408  0.75213  1.0000
  H   H872      1.0  0.93283  0.15188  0.66595  1.0000
  H   H873      1.0  0.62620  0.02773  0.71067  1.0000
  H   H874      1.0  0.98226  0.16898  0.66727  1.0000
  H   H875      1.0  0.82724  0.31712  0.97643  1.0000
  H   H876      1.0  0.90618  0.48978  0.71169  1.0000
  C   C726      1.0  0.99360  0.41378  0.84155  1.0000
  C   C727      1.0  0.97066  0.13219  0.69888  1.0000
  H   H877      1.0  0.98664  0.26419  0.92372  1.0000
  H   H878      1.0  0.72663  0.28976  0.98340  1.0000
  H   H879      1.0  0.99145  0.18008  0.79361  1.0000
  S   S194      1.0  0.87406  0.49170  0.80179  1.0000
  Fe  Fe97      1.0  0.96466  0.49212  0.83739  1.0000
  C   C728      1.0  0.91275  0.33620  0.98419  1.0000
  C   C729      1.0  0.98492  0.28932  0.89290  1.0000
  H   H880      1.0  0.96319  0.33615  0.90104  1.0000
  H   H881      1.0  0.89690  0.03315  0.66206  1.0000
  S   S195      1.0  0.98986  0.22120  0.85378  1.0000
  H   H882      1.0  0.88092  0.08977  0.66260  1.0000
  C   C730      1.0  0.93240  0.48995  0.70315  1.0000
  H   H883      1.0  0.99372  0.32510  0.83373  1.0000
  H   H884      1.0  0.51390  0.10148  0.70259  1.0000
  C   C731      1.0  0.84945  0.08785  0.66326  1.0000
  H   H885      1.0  0.98997  0.21465  0.90691  1.0000
  S   S196      1.0  0.93257  0.38277  0.66150  1.0000
  C   C732      1.0  0.99700  0.12352  0.77630  1.0000
  H   H886      1.0  0.50089  0.00720  0.85556  1.0000
  H   H887      1.0  0.57679  0.99911  0.75523  1.0000
  H   H888      1.0  0.65564  0.97916  0.18847  1.0000
  H   H889      1.0  0.64472  0.76810  0.19826  1.0000
  H   H890      1.0  0.55840  0.94827  0.22023  1.0000
  H   H891      1.0  0.55268  0.77136  0.14658  1.0000
  Fe  Fe98      1.0  0.55295  0.56944  0.26798  1.0000
  C   C733      1.0  0.55741  0.77023  0.26953  1.0000
  H   H892      1.0  0.60207  0.80532  0.17537  1.0000
  C   C734      1.0  0.58534  0.73549  0.13565  1.0000
  H   H893      1.0  0.61209  0.70760  0.20203  1.0000
  H   H894      1.0  0.63612  0.65369  0.15407  1.0000
  C   C735      1.0  0.67088  0.54775  0.14196  1.0000
  H   H895      1.0  0.65029  0.76185  0.26901  1.0000
  H   H896      1.0  0.59940  0.95292  0.17804  1.0000
  S   S197      1.0  0.54442  0.88930  0.30003  1.0000
  C   C736      1.0  0.58127  0.53743  0.17016  1.0000
  Fe  Fe99      1.0  0.53902  0.92436  0.16430  1.0000
  C   C737      1.0  0.64885  0.53424  0.13132  1.0000
  C   C738      1.0  0.56475  0.90681  0.24054  1.0000
  C   C739      1.0  0.60944  0.98388  0.17614  1.0000
  H   H897      1.0  0.61165  0.97125  0.29454  1.0000
  C   C740      1.0  0.62913  0.80488  0.11354  1.0000
  H   H898      1.0  0.58190  0.76150  0.16980  1.0000
  C   C741      1.0  0.71441  0.53829  0.24864  1.0000
  H   H899      1.0  0.66499  0.82132  0.15649  1.0000
  H   H900      1.0  0.53523  0.74447  0.22955  1.0000
  C   C742      1.0  0.51612  0.73531  0.30914  1.0000
  C   C743      1.0  0.62205  0.75816  0.26602  1.0000
  H   H901      1.0  0.64400  0.78363  0.14826  1.0000
  H   H902      1.0  0.60790  0.60989  0.18147  1.0000
  Fe  Fe100     1.0  0.56858  0.64663  0.12923  1.0000
  C   C744      1.0  0.63216  0.66585  0.16454  1.0000
  C   C745      1.0  0.59275  0.53215  0.29524  1.0000
  H   H903      1.0  0.60258  0.95928  0.27609  1.0000
  H   H904      1.0  0.56813  0.70871  0.14418  1.0000
  C   C746      1.0  0.61635  0.73470  0.12330  1.0000
  C   C747      1.0  0.64137  0.70633  0.16244  1.0000
  C   C748      1.0  0.51166  0.67076  0.20812  1.0000
  C   C749      1.0  0.62263  0.97852  0.28115  1.0000
  S   S198      1.0  0.58497  0.84999  0.12590  1.0000
  H   H905      1.0  0.94843  0.51825  0.19323  1.0000
  Fe  Fe101     1.0  0.55318  0.85816  0.14935  1.0000
  H   H906      1.0  0.54983  0.97503  0.28899  1.0000
  H   H907      1.0  0.51632  0.61261  0.20730  1.0000
  H   H908      1.0  0.68558  0.51132  0.22558  1.0000
  C   C750      1.0  0.51336  0.75563  0.23686  1.0000
  H   H909      1.0  0.53310  0.65011  0.30166  1.0000
  C   C751      1.0  0.57658  0.77104  0.13704  1.0000
  C   C752      1.0  0.53644  0.70680  0.30665  1.0000
  S   S199      1.0  0.52281  0.81203  0.17212  1.0000
  C   C753      1.0  0.64448  0.56302  0.11843  1.0000
  H   H910      1.0  0.70130  0.59735  0.14879  1.0000
  C   C754      1.0  0.54800  0.50637  0.17429  1.0000
  H   H911      1.0  0.68985  0.77131  0.18421  1.0000
  C   C755      1.0  0.59804  0.80571  0.12579  1.0000
  Fe  Fe102     1.0  0.51863  0.56699  0.14834  1.0000
  C   C756      1.0  0.54297  0.76693  0.09423  1.0000
  S   S200      1.0  0.50539  0.89018  0.15015  1.0000
  C   C757      1.0  0.51724  0.67186  0.30379  1.0000
  H   H912      1.0  0.63477  0.72190  0.24992  1.0000
  H   H913      1.0  0.60075  0.79236  0.28166  1.0000
  H   H914      1.0  0.66258  0.76905  0.10288  1.0000
  C   C758      1.0  0.66069  0.78943  0.15742  1.0000
  S   S201      1.0  0.55385  0.93510  0.25421  1.0000
  H   H915      1.0  0.58808  0.82075  0.23816  1.0000
  Fe  Fe103     1.0  0.52194  0.62225  0.24474  1.0000
  C   C759      1.0  0.65883  0.60281  0.11699  1.0000
  H   H916      1.0  0.59720  0.63742  0.20526  1.0000
  C   C760      1.0  0.64146  0.99889  0.18200  1.0000
  H   H917      1.0  0.68948  0.64607  0.12688  1.0000
  C   C761      1.0  0.57310  0.87063  0.24561  1.0000
  S   S202      1.0  0.53426  0.56364  0.24516  1.0000
  H   H918      1.0  0.69002  0.78372  0.15382  1.0000
  S   S203      1.0  0.62638  0.69017  0.12111  1.0000
  H   H919      1.0  0.58401  0.75983  0.19029  1.0000
  C   C762      1.0  0.61328  0.73575  0.25529  1.0000
  H   H920      1.0  0.65258  0.72365  0.15014  1.0000
  S   S204      1.0  0.60561  0.55113  0.27418  1.0000
  C   C763      1.0  0.61030  0.65667  0.19331  1.0000
  H   H921      1.0  0.64704  0.51152  0.24183  1.0000
  S   S205      1.0  0.54108  0.62170  0.15552  1.0000
  C   C764      1.0  0.58078  0.84825  0.23442  1.0000
  C   C765      1.0  0.52490  0.73975  0.08694  1.0000
  H   H922      1.0  0.57428  0.86026  0.25805  1.0000
  H   H923      1.0  0.66733  0.81196  0.18346  1.0000
  C   C766      1.0  0.61918  0.69706  0.19134  1.0000
  N   N52       1.0  0.63951  0.76572  0.17396  1.0000
  H   H924      1.0  0.54219  0.73022  0.07757  1.0000
  H   H925      1.0  0.69096  0.55379  0.25155  1.0000
  H   H926      1.0  0.56717  0.71204  0.30665  1.0000
  S   S206      1.0  0.54981  0.98966  0.16085  1.0000
  C   C767      1.0  0.66141  0.77963  0.18545  1.0000
  H   H927      1.0  0.50426  0.79757  0.13622  1.0000
  S   S207      1.0  0.58890  0.89547  0.16158  1.0000
  H   H928      1.0  0.53590  0.80084  0.11136  1.0000
  H   H929      1.0  0.57123  0.71282  0.24331  1.0000
  C   C768      1.0  0.49884  0.70311  0.20125  1.0000
  C   C769      1.0  0.68536  0.58766  0.14032  1.0000
  C   C770      1.0  0.63464  0.72322  0.17584  1.0000
  H   H930      1.0  0.58452  0.56248  0.16035  1.0000
  C   C771      1.0  0.57666  0.73066  0.25158  1.0000
  S   S208      1.0  0.51726  0.66790  0.12330  1.0000
  C   C772      1.0  0.57813  0.86111  0.21843  1.0000
  H   H931      1.0  0.73302  0.55410  0.23640  1.0000
  C   C773      1.0  0.63872  0.76954  0.11247  1.0000
  H   H932      1.0  0.64565  0.83163  0.10476  1.0000
  C   C774      1.0  0.67893  0.61511  0.12798  1.0000
  C   C775      1.0  0.59421  0.77544  0.27308  1.0000
  C   C776      1.0  0.61634  0.64111  0.17992  1.0000
  C   C777      1.0  0.56441  0.92042  0.22435  1.0000
  H   H933      1.0  0.57440  0.77876  0.09047  1.0000
  S   S209      1.0  0.55224  0.58976  0.12250  1.0000
  H   H934      1.0  0.63814  0.55808  0.17443  1.0000
  C   C778      1.0  0.54748  0.74776  0.25856  1.0000
  C   C779      1.0  0.60024  0.77348  0.17749  1.0000
  H   H935      1.0  0.57348  0.49933  0.13966  1.0000
  S   S210      1.0  0.58079  0.83067  0.20502  1.0000
  Fe  Fe104     1.0  0.55405  0.85261  0.18457  1.0000
  Fe  Fe105     1.0  0.51005  0.82723  0.30562  1.0000
  H   H936      1.0  0.52368  0.78777  0.23298  1.0000
  C   C780      1.0  0.57055  0.89744  0.21343  1.0000
  H   H937      1.0  0.67674  0.52812  0.15186  1.0000
  H   H938      1.0  0.65104  0.97027  0.27871  1.0000
  C   C781      1.0  0.56270  0.54274  0.30484  1.0000
  C   C782      1.0  0.61159  0.53501  0.17812  1.0000
  S   S211      1.0  0.53733  0.67368  0.22324  1.0000
  H   H939      1.0  0.73250  0.54152  0.25757  1.0000
  S   S212      1.0  0.54598  0.63011  0.26630  1.0000
  S   S213      1.0  0.50642  0.88401  0.18828  1.0000
  H   H940      1.0  0.56955  0.90801  0.20108  1.0000
  Fe  Fe106     1.0  0.51900  0.89764  0.27842  1.0000
  S   S214      1.0  0.54013  0.77942  0.31223  1.0000
  H   H941      1.0  0.55189  0.56730  0.29986  1.0000
  H   H942      1.0  0.62957  0.55516  0.10943  1.0000
  C   C783      1.0  0.52076  0.77880  0.10647  1.0000
  H   H943      1.0  0.65392  0.62442  0.10741  1.0000
  H   H944      1.0  0.53726  0.78383  0.27573  1.0000
  C   C784      1.0  0.54543  0.52059  0.32075  1.0000
  H   H945      1.0  0.50467  0.68267  0.25249  1.0000
  N   N53       1.0  0.50873  0.74151  0.25453  1.0000
  Fe  Fe107     1.0  0.49827  0.60900  0.11875  1.0000
  H   H946      1.0  0.91583  0.50775  0.22440  1.0000
  H   H947      1.0  0.50360  0.72918  0.20566  1.0000
  S   S215      1.0  0.51153  0.50701  0.16354  1.0000
  C   C785      1.0  0.60875  0.50255  0.30218  1.0000
  C   C786      1.0  0.60365  0.96921  0.32782  1.0000
  C   C787      1.0  0.53618  0.96866  0.32724  1.0000
  C   C788      1.0  0.50612  0.63752  0.20216  1.0000
  C   C789      1.0  0.60872  0.50145  0.19001  1.0000
  H   H948      1.0  0.52090  0.52765  0.32784  1.0000
  H   H949      1.0  0.62626  0.95365  0.32888  1.0000
  H   H950      1.0  0.88785  0.93928  0.58146  1.0000
  H   H951      1.0  0.80671  0.96726  0.62659  1.0000
  H   H952      1.0  0.92725  0.55536  0.62253  1.0000
  C   C790      1.0  0.97112  0.81621  0.65370  1.0000
  C   C791      1.0  0.83822  0.97192  0.62255  1.0000
  H   H953      1.0  0.87737  0.53126  0.63291  1.0000
  C   C792      1.0  0.91941  0.98609  0.61215  1.0000
  H   H954      1.0  0.74588  0.98061  0.60314  1.0000
  C   C793      1.0  0.97680  0.74961  0.65628  1.0000
  H   H955      1.0  0.90702  0.97393  0.56209  1.0000
  H   H956      1.0  0.84703  0.95937  0.64665  1.0000
  C   C794      1.0  0.88938  0.55942  0.65936  1.0000
  C   C795      1.0  0.90765  0.52738  0.63034  1.0000
  H   H957      1.0  0.93740  0.51895  0.33383  1.0000
  C   C796      1.0  0.89692  0.98810  0.60030  1.0000
  H   H958      1.0  0.51367  0.95303  0.64663  1.0000
  C   C797      1.0  0.90147  0.97598  0.62868  1.0000
  H   H959      1.0  0.98181  0.53058  0.63251  1.0000
  C   C798      1.0  0.95896  0.50486  0.64044  1.0000
  H   H960      1.0  0.83715  0.98620  0.59777  1.0000
  H   H961      1.0  0.90721  0.50513  0.62308  1.0000
  H   H962      1.0  0.91925  0.97445  0.63750  1.0000
  C   C799      1.0  0.86091  0.96797  0.63386  1.0000
  N   N54       1.0  0.92103  0.51501  0.64530  1.0000
  H   H963      1.0  0.55910  0.91752  0.32977  1.0000
  H   H964      1.0  0.91228  0.82341  0.65918  1.0000
  C   C800      1.0  0.93038  0.80297  0.65779  1.0000
  C   C801      1.0  0.95590  0.99360  0.57901  1.0000
  H   H965      1.0  0.95836  0.96428  0.58512  1.0000
  H   H966      1.0  0.95097  0.99254  0.60896  1.0000
  C   C802      1.0  0.89212  0.97029  0.57495  1.0000
  H   H967      1.0  0.86286  0.97578  0.57456  1.0000
  C   C803      1.0  0.85593  0.98239  0.60602  1.0000
  H   H968      1.0  0.98293  0.84696  0.65226  1.0000
  C   C804      1.0  0.95757  0.56218  0.65875  1.0000
  C   C805      1.0  0.92310  0.54589  0.65425  1.0000
  H   H969      1.0  0.99284  0.72729  0.65654  1.0000
  H   H970      1.0  0.86193  0.54792  0.65661  1.0000
  H   H971      1.0  0.98456  0.55338  0.65578  1.0000
  C   C806      1.0  0.50710  0.95986  0.65825  1.0000
  H   H972      1.0  0.96545  0.51755  0.35781  1.0000
  C   C807      1.0  0.93677  0.49917  0.35896  1.0000
  C   C808      1.0  0.93601  0.73665  0.66059  1.0000
  C   C809      1.0  0.99568  0.79002  0.65241  1.0000
  H   H973      1.0  0.50603  0.67521  0.34950  1.0000
  N   N55       1.0  0.91476  0.99710  0.58271  1.0000
  H   H974      1.0  0.96795  0.99844  0.56578  1.0000
  C   C810      1.0  0.92102  0.49986  0.34547  1.0000
  H   H975      1.0  0.56638  0.96652  0.66106  1.0000
  C   C811      1.0  0.91286  0.76328  0.66125  1.0000
  C   C812      1.0  0.56571  0.94878  0.32825  1.0000
  C   C813      1.0  0.91326  0.79666  0.69685  1.0000
  C   C814      1.0  0.53702  0.96778  0.66635  1.0000
  C   C815      1.0  0.88067  0.76476  0.70207  1.0000
  C   C816      1.0  0.88563  0.72660  0.70512  1.0000
  C   C817      1.0  0.90039  0.60859  0.74439  1.0000
  H   H976      1.0  0.97421  0.62066  0.75290  1.0000
  H   H977      1.0  0.54200  0.98353  0.74396  1.0000
  C   C818      1.0  0.87352  0.97483  0.67604  1.0000
  C   C819      1.0  0.95585  0.75195  0.69770  1.0000
  H   H978      1.0  0.86386  0.59663  0.67251  1.0000
  H   H979      1.0  0.84305  0.91658  0.68974  1.0000
  C   C820      1.0  0.97729  0.63925  0.77436  1.0000
  H   H980      1.0  0.86028  0.70209  0.70910  1.0000
  C   C821      1.0  0.95086  0.79014  0.69471  1.0000
  C   C822      1.0  0.91543  0.54839  0.75621  1.0000
  C   C823      1.0  0.99192  0.75802  0.73651  1.0000
  H   H981      1.0  0.90461  0.61716  0.80829  1.0000
  C   C824      1.0  0.95789  0.58987  0.66790  1.0000
  H   H982      1.0  0.94666  0.55960  0.74960  1.0000
  H   H983      1.0  0.97140  0.80982  0.73037  1.0000
  S   S216      1.0  0.95689  0.94064  0.70072  1.0000
  C   C825      1.0  0.92431  0.60231  0.67284  1.0000
  H   H984      1.0  0.90038  0.53211  0.74861  1.0000
  S   S217      1.0  0.92865  0.67213  0.70633  1.0000
  H   H985      1.0  0.85153  0.76957  0.70367  1.0000
  S   S218      1.0  0.90613  0.84414  0.69221  1.0000
  C   C826      1.0  0.92321  0.72015  0.70290  1.0000
  S   S219      1.0  0.95227  0.52610  0.85585  1.0000
  H   H986      1.0  0.77779  0.92639  0.68730  1.0000
  H   H987      1.0  0.84008  0.54896  0.75858  1.0000
  H   H988      1.0  0.91437  0.52696  0.76760  1.0000
  C   C827      1.0  0.84028  0.94454  0.68321  1.0000
  H   H989      1.0  0.97344  0.65399  0.79718  1.0000
  H   H990      1.0  0.98488  0.74713  0.69566  1.0000
  H   H991      1.0  0.98426  0.60074  0.67157  1.0000
  H   H992      1.0  0.98842  0.78327  0.82181  1.0000
  H   H993      1.0  0.96453  0.54543  0.70511  1.0000
  Fe  Fe108     1.0  0.95961  0.89257  0.68812  1.0000
  C   C828      1.0  0.52900  0.97807  0.68108  1.0000
  C   C829      1.0  0.96548  0.52147  0.69947  1.0000
  Fe  Fe109     1.0  0.94359  0.56936  0.83523  1.0000
  H   H994      1.0  0.88815  0.63361  0.74659  1.0000
  S   S220      1.0  0.87924  0.54394  0.83900  1.0000
  C   C830      1.0  0.91748  0.59961  0.77039  1.0000
  C   C831      1.0  0.89892  0.59870  0.78650  1.0000
  H   H995      1.0  0.92472  0.62320  0.68025  1.0000
  C   C832      1.0  0.95795  0.63885  0.78984  1.0000
  Fe  Fe110     1.0  0.99083  0.66739  0.70323  1.0000
  C   C833      1.0  0.91903  0.61832  0.79599  1.0000
  C   C834      1.0  0.89011  0.58723  0.66850  1.0000
  H   H996      1.0  0.84969  0.53871  0.77810  1.0000
  H   H997      1.0  0.88475  0.59522  0.73618  1.0000
  S   S221      1.0  0.97278  0.63292  0.82956  1.0000
  H   H998      1.0  0.83918  0.58478  0.77014  1.0000
  N   N56       1.0  0.89708  0.58003  0.75980  1.0000
  Fe  Fe111     1.0  0.89779  0.50738  0.82235  1.0000
  C   C835      1.0  0.99734  0.73094  0.83590  1.0000
  H   H999      1.0  0.86914  0.58251  0.79218  1.0000
  C   C836      1.0  0.95756  0.61992  0.76474  1.0000
  H   H1000     1.0  0.97606  0.81434  0.69015  1.0000
  H   H1001     1.0  0.93106  0.62099  0.73736  1.0000
  C   C837      1.0  0.85469  0.56250  0.76702  1.0000
  S   S222      1.0  0.96107  0.53767  0.81655  1.0000
  Fe  Fe112     1.0  0.99137  0.98043  0.67688  1.0000
  H   H1002     1.0  0.97657  0.74324  0.72898  1.0000
  S   S223      1.0  0.98833  0.93273  0.66369  1.0000
  C   C838      1.0  0.80362  0.95016  0.68182  1.0000
  H   H1003     1.0  0.77079  0.98818  0.67248  1.0000
  C   C839      1.0  0.80002  0.98609  0.67328  1.0000
  H   H1004     1.0  0.59127  0.98503  0.72229  1.0000
  S   S224      1.0  0.56637  0.99116  0.69087  1.0000
  C   C840      1.0  0.98904  0.79551  0.73733  1.0000
  H   H1005     1.0  0.88130  0.75306  0.66513  1.0000
  H   H1006     1.0  0.92226  0.70565  0.66401  1.0000
  H   H1007     1.0  0.90213  0.97040  0.67702  1.0000
  H   H1008     1.0  0.97041  0.71250  0.83499  1.0000
