data_image0
_chemical_formula_structural       FeC2HFeSHFeS2FeS2FeS2FeSFeCS2CH2C3HCFeHC2H6C7H4C6H2C2H3CHCHCSCHCH3S2H2C2HC2HC2H5C3H3CNH3CH3C2HNH3C2SCH2C2SHNH3SFeS2FeHFeS3FeS2FeHFeCS3HC2FeHC2SH2C2H4C6H7C4H3C2H3CHC2SH2SC4NHC2HCH3C2HCHC2HC3H2FeH3CH2CHCHSFeS2FeSFeS2CSH2CH2S2HFeS2C2HSHSHFeSHFeHCFeSH3S2FeH2CHC6H7CHCSHCH2CHC7H6C2H3C5H2C3H2C2HC4HCHFeH2C6HFeNC9H15CNSFeCNHC2H5CHFeHNC4H7NC9H10CHC2HC2SH2CH2CH3SH2CHC3H2CH3NCFeH4CHCHCHC2HC3SCSCHC2FeHC3H2C2H4SC2HC4NSHCHNCHCH3C3SFeH4CH2SC2H4CH3CH3CH2C2H2CH9SH3CH3C2HC3HCNFeHSCS2C3SHCFeCHC2HS2H3FeSFe2SCFe2S2FeSFeS3FeS2HFeS2C2HCFeSC2H2C2H2C6H5CH2C5H4C7H3C6H6NSCH3C3H5SCH2C6H4CS2HFeNC7H12NC7H11SHCHNC5H8CHCH4SHCH2C2HSH2C6HCHC2H2CFeNSCFeC3HSCHCHCHSCHFeCSC4H2FeHSNCHSH2C2H2CH2C2HCSC2FeH5C2HC3H3C2NC2H4SHC2FeHCHS2H2CH3NH4CNCHCSH5C5FeCH3FeH2CH4C2H5C3H5C2H2C2H2NCH3SHSHCHS2HS2HCSH2C2H3FeHC6H3C7H2CHCH3CH2CHNCSCHFeH4NCFeCH2FeH2CHCH2C4HFe2S2H2FeSHS3CSHCHC2NCHCH2C6H5CHC2H2SCHNFeH3C2H2C4HCH3C3HCHCH2CH3FeH2FeSC2H3CNC3HSHSCFeSCHSCFeS2HCFeSHSHSCHSHCHFeS3CFeSCSFeCSFeSFeS2Fe2HSFeS2FeSFeHS2HCHCHC7H4C6H4CHCFeCH2CH3NH3C6H4C2HCHC3SHCSHC4H2C2H5CHC6H4CH2NC7HCH13SC2NCHCH3SHC2NC5HCH12C2H2NSH2C3FeC2H2C2HCH2SH5NH2CH2SC2H7NCH3CHSHCHCHCHNFeCH3C3H2C2HNSHCHCHCHCHCH2CSH2C4H2C2HCNHC2HCHCH4C2HC3HCHC4HC2H4CH6CHC2SC2H2S2NC3SHCHCH2C2HC4H2CHFeCHC2H4CSHC2HCHCSHCS2H2CH2CHCFeS3HCFeCHNSCHSHFeS3H2CSHCS2H2CHFeS2FeS2Fe2S3FeSH4SH4CSH3C2H2CSHFeHSHCHCH3CH2CFeSC2HCNSHSC6H4C6HFeH2C6H4C5SCH2C7H3SC4H6CHNHNH4SC6HC3SH3C5HSH3NFe2C2HC3H3C2H2NH4CH7CHCHSH4CHCHCNC9H14NFeCHC6HC2H3NC2Fe2CH2C2H4CHC2HCH3CH2C2SHCHC2H4SC2H4C2HSH2C4NH4CH2CHSHC2HCHS2HCH4FeHCFeCHCH9SHCH7C2H4FeSHFeS2FeS2FeSFeS3CH2CSNH3C7H3C6H4C6H2SH3CH2CSCHCHC4HC2HNHSCH2CHCHCH3NFeHC4NH2CSH2FeCHCH4FeH5C2H2CHCHCH2CHCSFeS2FeHFeSH2FeS2HCFeH2SH2C5H2SHCH2S2HC6H5C3H2C2HCH2FeCH2SC2HSC2HCH2SNC9H8CHCH2CH7FeHSC2HFeS2FeSFeCSHCH2C2HS2HFeS2C2HSHCHFeSHFeH2FeSH4SCH2CHC6H4CHC5H4C9H4CHCH2C2FeHNHSCHC3H5C2H3C2HCHC6H2NC6H3SH7CH4NC5H9NC9H14NC9H2CSHCHC2H9SHSH2CHC3NH3C2NC6HCSH5SHSFeCSFeHCHCH2S2HCHCHFeHSCH5SHNH2C4H2CH2CHCH4C2H2CHC2H2CHCFeH2CSC5HNH2CH3CHFeC2FeCSCS2H3SH2CSHCHCS2CFeHFeSFe2S2Fe2S2FeSFeS3FeS3FeS2C2H2FeC3HC3HC7H2C2HC2HC6H4C5H2SHC6H5CH4SCFeH3CNH2FeSHC7H4S3CFeNC9H11CH2NC9H15CH2SH2CH3FeH2CN3C3H2C2H6NC9H18C2NC6FeH2CH2CHC5HC2FeHC2H4FeCH2FeHSCSC2H2CSHCHSC2HCSCHCH3CHSCHFeCH5CH2C2HSHC2HSH2C2HCHC3H11C2HCH3C2HCH2FeHCHFeS2HSFeH2SH2S2CH2CNC6H4C6H7C2SHFeNC2H2SHC2H2C3HCHFeCH5CH5CHCHC2HCHCSCHSH2NSHSFeSHS2CHSCH9C7H4SC2HC3HC2HNC3H2CHC3HSC4H3CHCHCHFeCH3CH2CH2CH2CSCH2CH2SHCH4SHC4SHCSFeS2FeCH4CSH2SHC2FeS2FeSFeS3CNSFeHFeS2Fe2S2FeS2FeSFeS3NC2SHC7H4C6H3NC3HC4H2C3H2C6H4NC4HCH2C3HCHCSC2H2CH2C10H4CH3CSHCSCHCHCH4CH3FeCH2CH3N2C6HCH12SCHNCHC2SC7H2CH3CH2CHNC9H6C2H6NC8H12SCNCHCH2CFeHFeH4SC2HSH2FeHCH2CH3C3NCSH2CHSHFeH3FeH2SH2C2H2CHFeCH4SH4CSHC2HCSHSHC2H2CHCHCH4SH2CH3SH2CH3C3H5C2SNHCH2C3H2C2H2CHC4FeH2CH5CHFeHC2HFeH2CSCFeS2FeSH2SH3SH2CHFeS2FeS2Fe2S3FeSCNH5C3SH5NH2SHCFeSH2CHCH4C3H4FeHCHC7H3C7H3NC6H4C5SHCHC7H4C3HSCHC3HCHC2H5C6HCHC2HCHC3HC2H3FeH4SFeH2CHNC9H15CH2SHFeH7C2HSHNC12HCH3CH5CHNCH2C2H4SH3NCHCHCH2CSCH2C3HSHC3FeSH2CHC3H3SH2CSH2S2HCH3C2FeHCFeH3NS2C2SH5CSNHCHSCHFeCSH2CHCH2CHSFeC3SH
_chemical_formula_sum              "Fe192 C1440 H1728 S384 N96"
_cell_length_a       47.2366
_cell_length_b       47.9966
_cell_length_c       45.5258
_cell_angle_alpha    85.8381
_cell_angle_beta     87.8197
_cell_angle_gamma    86.3843

_space_group_name_H-M_alt    "P 1"
_space_group_IT_number       1

loop_
  _space_group_symop_operation_xyz
  'x, y, z'

loop_
  _atom_site_type_symbol
  _atom_site_label
  _atom_site_symmetry_multiplicity
  _atom_site_fract_x
  _atom_site_fract_y
  _atom_site_fract_z
  _atom_site_occupancy
  Fe  Fe1       1.0  0.22599  0.46640  0.45622  1.0000
  C   C1        1.0  0.22295  0.38457  0.02393  1.0000
  C   C2        1.0  0.04074  0.25857  0.20695  1.0000
  H   H1        1.0  0.09473  0.12102  0.98932  1.0000
  Fe  Fe2       1.0  0.02527  0.34548  0.34235  1.0000
  S   S1        1.0  0.02195  0.38933  0.35670  1.0000
  H   H2        1.0  0.02395  0.30954  0.15002  1.0000
  Fe  Fe3       1.0  0.02197  0.32087  0.40821  1.0000
  S   S2        1.0  0.01798  0.36400  0.42605  1.0000
  S   S3        1.0  0.02847  0.27674  0.43222  1.0000
  Fe  Fe4       1.0  0.05260  0.37514  0.39226  1.0000
  S   S4        1.0  0.09261  0.39995  0.39379  1.0000
  S   S5        1.0  0.05787  0.33191  0.37626  1.0000
  Fe  Fe5       1.0  0.06168  0.37460  0.06819  1.0000
  S   S6        1.0  0.05417  0.33562  0.09808  1.0000
  S   S7        1.0  0.10628  0.39143  0.07023  1.0000
  Fe  Fe6       1.0  0.02650  0.32271  0.06236  1.0000
  S   S8        1.0  0.02259  0.27618  0.05307  1.0000
  Fe  Fe7       1.0  0.01566  0.35984  0.11589  1.0000
  C   C3        1.0  0.13245  0.32972  0.45722  1.0000
  S   S9        1.0  0.03652  0.35998  0.03132  1.0000
  S   S10       1.0  0.02418  0.39917  0.08770  1.0000
  C   C4        1.0  0.17647  0.37538  0.00542  1.0000
  H   H3        1.0  0.21527  0.09615  0.00721  1.0000
  H   H4        1.0  0.22934  0.36632  0.06872  1.0000
  C   C5        1.0  0.02665  0.25401  0.02264  1.0000
  C   C6        1.0  0.03948  0.25442  0.14465  1.0000
  C   C7        1.0  0.02364  0.20709  0.00426  1.0000
  H   H5        1.0  0.05811  0.26709  0.14715  1.0000
  C   C8        1.0  0.02080  0.22550  0.02736  1.0000
  Fe  Fe8       1.0  0.99833  0.38198  0.05334  1.0000
  H   H6        1.0  0.09649  0.14639  0.01614  1.0000
  C   C9        1.0  0.04467  0.33687  0.23440  1.0000
  C   C10       1.0  0.03616  0.34314  0.20505  1.0000
  H   H7        1.0  0.16088  0.37868  0.98844  1.0000
  H   H8        1.0  0.04029  0.28542  0.98994  1.0000
  H   H9        1.0  0.06187  0.32230  0.45166  1.0000
  H   H10       1.0  0.06514  0.32616  0.23839  1.0000
  H   H11       1.0  0.05020  0.33743  0.18687  1.0000
  H   H12       1.0  0.03787  0.21828  0.44998  1.0000
  C   C11       1.0  0.17951  0.12270  0.02116  1.0000
  C   C12       1.0  0.16891  0.45182  0.02238  1.0000
  C   C13       1.0  0.14478  0.44447  0.00806  1.0000
  C   C14       1.0  0.12533  0.42619  0.02221  1.0000
  C   C15       1.0  0.12975  0.41490  0.05102  1.0000
  C   C16       1.0  0.15368  0.42254  0.06547  1.0000
  C   C17       1.0  0.17300  0.44095  0.05139  1.0000
  H   H13       1.0  0.03689  0.25367  0.12043  1.0000
  H   H14       1.0  0.10707  0.42070  0.01073  1.0000
  H   H15       1.0  0.15729  0.41414  0.08780  1.0000
  H   H16       1.0  0.19091  0.44683  0.06313  1.0000
  C   C18       1.0  0.11996  0.40926  0.41650  1.0000
  C   C19       1.0  0.14309  0.42291  0.40302  1.0000
  C   C20       1.0  0.16518  0.43128  0.41980  1.0000
  C   C21       1.0  0.16460  0.42590  0.45041  1.0000
  C   C22       1.0  0.01624  0.26907  0.19148  1.0000
  C   C23       1.0  0.11927  0.40393  0.44717  1.0000
  H   H17       1.0  0.14395  0.42703  0.37932  1.0000
  H   H18       1.0  0.18277  0.44172  0.40897  1.0000
  C   C24       1.0  0.14156  0.41206  0.46396  1.0000
  C   C25       1.0  0.03546  0.26374  0.99417  1.0000
  H   H19       1.0  0.08283  0.34925  0.43393  1.0000
  H   H20       1.0  0.09027  0.29038  0.42065  1.0000
  H   H21       1.0  0.10145  0.39392  0.45798  1.0000
  C   C26       1.0  0.03348  0.22893  0.46996  1.0000
  H   H22       1.0  0.04454  0.23250  0.15340  1.0000
  C   C27       1.0  0.02785  0.25822  0.46790  1.0000
  H   H23       1.0  0.11279  0.31708  0.40680  1.0000
  C   C28       1.0  0.15481  0.13833  0.01259  1.0000
  S   S11       1.0  0.21171  0.02550  0.00612  1.0000
  C   C29       1.0  0.09524  0.14384  0.99220  1.0000
  H   H24       1.0  0.10121  0.25542  0.45537  1.0000
  C   C30       1.0  0.15829  0.04817  0.99241  1.0000
  H   H25       1.0  0.12838  0.28567  0.42463  1.0000
  H   H26       1.0  0.00745  0.29452  0.12029  1.0000
  H   H27       1.0  0.13609  0.34458  0.43761  1.0000
  S   S12       1.0  0.03783  0.33307  0.29519  1.0000
  S   S13       1.0  0.19183  0.43653  0.47249  1.0000
  H   H28       1.0  0.15180  0.31538  0.45964  1.0000
  H   H29       1.0  0.18340  0.34557  0.07475  1.0000
  C   C31       1.0  0.10976  0.30101  0.42543  1.0000
  C   C32       1.0  0.19652  0.10891  0.00045  1.0000
  H   H30       1.0  0.14908  0.35147  0.03493  1.0000
  C   C33       1.0  0.18914  0.35680  0.05407  1.0000
  C   C34       1.0  0.08157  0.33366  0.45324  1.0000
  H   H31       1.0  0.08161  0.46648  0.09428  1.0000
  C   C35       1.0  0.02686  0.34399  0.25866  1.0000
  C   C36       1.0  0.21535  0.36884  0.05038  1.0000
  H   H32       1.0  0.09949  0.46289  0.05928  1.0000
  H   H33       1.0  0.23455  0.43645  0.03788  1.0000
  H   H34       1.0  0.01889  0.18538  0.00849  1.0000
  H   H35       1.0  0.14225  0.14852  0.02950  1.0000
  H   H36       1.0  0.15408  0.04652  0.01598  1.0000
  C   C37       1.0  0.02022  0.27431  0.25291  1.0000
  C   C38       1.0  0.20254  0.38770  0.00154  1.0000
  C   C39       1.0  0.16978  0.36001  0.03160  1.0000
  H   H37       1.0  0.14118  0.45289  0.98573  1.0000
  H   H38       1.0  0.13034  0.48056  0.39620  1.0000
  H   H39       1.0  0.20579  0.40021  0.98116  1.0000
  C   C40       1.0  0.00763  0.29510  0.14469  1.0000
  N   N1        1.0  0.10687  0.31380  0.45425  1.0000
  H   H40       1.0  0.07894  0.34584  0.47309  1.0000
  H   H41       1.0  0.12676  0.47688  0.45187  1.0000
  H   H42       1.0  0.06498  0.48005  0.06096  1.0000
  C   C41       1.0  0.04256  0.26129  0.23722  1.0000
  H   H43       1.0  0.18538  0.12089  0.04405  1.0000
  H   H44       1.0  0.01391  0.21753  0.04912  1.0000
  H   H45       1.0  0.24042  0.42940  0.98613  1.0000
  C   C42       1.0  0.08556  0.47731  0.07216  1.0000
  C   C43       1.0  0.00947  0.35642  0.19945  1.0000
  H   H46       1.0  0.06165  0.25388  0.24859  1.0000
  N   N2        1.0  0.01356  0.26688  0.15940  1.0000
  H   H47       1.0  0.05900  0.24858  0.19620  1.0000
  H   H48       1.0  0.07442  0.15415  0.98547  1.0000
  H   H49       1.0  0.24734  0.41076  0.06559  1.0000
  C   C44       1.0  0.14616  0.14025  0.98292  1.0000
  C   C45       1.0  0.12032  0.18573  0.98096  1.0000
  S   S14       1.0  0.24350  0.46936  0.40974  1.0000
  C   C46       1.0  0.18522  0.03904  0.98113  1.0000
  H   H50       1.0  0.02211  0.27725  0.27617  1.0000
  H   H51       1.0  0.12253  0.18842  0.00478  1.0000
  C   C47       1.0  0.03244  0.21680  0.97579  1.0000
  C   C48       1.0  0.00037  0.35770  0.25301  1.0000
  S   S15       1.0  0.19304  0.47441  0.00279  1.0000
  H   H52       1.0  0.11628  0.06653  0.98263  1.0000
  N   N3        1.0  0.11923  0.15591  0.97472  1.0000
  H   H53       1.0  0.10050  0.19814  0.97430  1.0000
  H   H54       1.0  0.07303  0.07626  0.77418  1.0000
  H   H55       1.0  0.01813  0.29404  0.49304  1.0000
  S   S16       1.0  0.23333  0.05762  0.58342  1.0000
  Fe  Fe9       1.0  0.06335  0.10511  0.59439  1.0000
  S   S17       1.0  0.07136  0.14705  0.61039  1.0000
  S   S18       1.0  0.09728  0.07142  0.58135  1.0000
  Fe  Fe10      1.0  0.03417  0.16380  0.58285  1.0000
  H   H56       1.0  0.99994  0.34055  0.96947  1.0000
  Fe  Fe11      1.0  0.03954  0.13614  0.64725  1.0000
  S   S19       1.0  0.02787  0.12222  0.56449  1.0000
  S   S20       1.0  0.02927  0.20828  0.55946  1.0000
  S   S21       1.0  0.03319  0.09341  0.63242  1.0000
  Fe  Fe12      1.0  0.07014  0.09568  0.92090  1.0000
  S   S22       1.0  0.06137  0.13615  0.89340  1.0000
  S   S23       1.0  0.11616  0.07699  0.91795  1.0000
  Fe  Fe13      1.0  0.03219  0.14922  0.93148  1.0000
  H   H57       1.0  0.09256  0.16706  0.93759  1.0000
  Fe  Fe14      1.0  0.02448  0.11595  0.87565  1.0000
  C   C49       1.0  0.09524  0.25478  0.52942  1.0000
  S   S24       1.0  0.04283  0.10943  0.95950  1.0000
  S   S25       1.0  0.03475  0.07470  0.90118  1.0000
  S   S26       1.0  0.00321  0.15621  0.62123  1.0000
  H   H58       1.0  0.13852  0.19540  0.96878  1.0000
  C   C50       1.0  0.09240  0.08204  0.76232  1.0000
  C   C51       1.0  0.04160  0.13421  0.73126  1.0000
  Fe  Fe15      1.0  0.99853  0.11384  0.60400  1.0000
  H   H59       1.0  0.09965  0.08126  0.64449  1.0000
  C   C52       1.0  0.02564  0.11915  0.79118  1.0000
  C   C53       1.0  0.11289  0.15513  0.94309  1.0000
  S   S27       1.0  0.01119  0.11192  0.82768  1.0000
  H   H60       1.0  0.15680  0.10533  0.77492  1.0000
  H   H61       1.0  0.09272  0.05868  0.67648  1.0000
  C   C54       1.0  0.12666  0.11905  0.67053  1.0000
  C   C55       1.0  0.03390  0.21328  0.49755  1.0000
  H   H62       1.0  0.14078  0.40797  0.48766  1.0000
  H   H63       1.0  0.04528  0.25321  0.94930  1.0000
  H   H64       1.0  0.14504  0.04984  0.68438  1.0000
  H   H65       1.0  0.03889  0.19095  0.49850  1.0000
  C   C56       1.0  0.19552  0.06137  0.58185  1.0000
  C   C57       1.0  0.17949  0.04008  0.57303  1.0000
  C   C58       1.0  0.14956  0.04364  0.57296  1.0000
  C   C59       1.0  0.13517  0.06856  0.58139  1.0000
  C   C60       1.0  0.15121  0.09001  0.58986  1.0000
  C   C61       1.0  0.18114  0.08631  0.59034  1.0000
  H   H66       1.0  0.19013  0.02078  0.56647  1.0000
  H   H67       1.0  0.13744  0.02693  0.56627  1.0000
  H   H68       1.0  0.14057  0.10950  0.59580  1.0000
  H   H69       1.0  0.19326  0.10302  0.59700  1.0000
  H   H70       1.0  0.14683  0.12690  0.67736  1.0000
  H   H71       1.0  0.01874  0.26668  0.54160  1.0000
  H   H72       1.0  0.11064  0.13331  0.93711  1.0000
  C   C62       1.0  0.14202  0.06217  0.94304  1.0000
  C   C63       1.0  0.16893  0.05297  0.93175  1.0000
  C   C64       1.0  0.19039  0.04148  0.95061  1.0000
  C   C65       1.0  0.09449  0.08161  0.73162  1.0000
  H   H73       1.0  0.07603  0.07537  0.72110  1.0000
  H   H74       1.0  0.17328  0.05495  0.90821  1.0000
  H   H75       1.0  0.21106  0.03493  0.94158  1.0000
  C   C66       1.0  0.11476  0.09061  0.77783  1.0000
  C   C67       1.0  0.10111  0.26410  0.47660  1.0000
  H   H76       1.0  0.12732  0.12052  0.64599  1.0000
  H   H77       1.0  0.16744  0.07891  0.68076  1.0000
  H   H78       1.0  0.14874  0.07003  0.64986  1.0000
  C   C68       1.0  0.11938  0.08976  0.71546  1.0000
  H   H79       1.0  0.07779  0.09445  0.67383  1.0000
  C   C69       1.0  0.02863  0.22669  0.52370  1.0000
  C   C70       1.0  0.05278  0.14729  0.75465  1.0000
  S   S28       1.0  0.05038  0.14641  0.69415  1.0000
  H   H80       1.0  0.15926  0.12575  0.93934  1.0000
  H   H81       1.0  0.11274  0.09130  0.80160  1.0000
  S   S29       1.0  0.03688  0.19451  0.94549  1.0000
  C   C71       1.0  0.04496  0.13980  0.78437  1.0000
  C   C72       1.0  0.09696  0.08065  0.66898  1.0000
  C   C73       1.0  0.14696  0.07148  0.67421  1.0000
  C   C74       1.0  0.02278  0.25594  0.52164  1.0000
  N   N4        1.0  0.12225  0.09012  0.68290  1.0000
  H   H82       1.0  0.10908  0.13387  0.67779  1.0000
  C   C75       1.0  0.13949  0.09856  0.76273  1.0000
  C   C76       1.0  0.14187  0.09813  0.73203  1.0000
  H   H83       1.0  0.00044  0.08923  0.77265  1.0000
  C   C77       1.0  0.11145  0.98819  0.94710  1.0000
  H   H84       1.0  0.09118  0.24022  0.54825  1.0000
  H   H85       1.0  0.12961  0.16465  0.92846  1.0000
  H   H86       1.0  0.16136  0.10473  0.72127  1.0000
  C   C78       1.0  0.02323  0.11272  0.73812  1.0000
  C   C79       1.0  0.03834  0.24530  0.97108  1.0000
  H   H87       1.0  0.15405  0.99703  0.95240  1.0000
  C   C80       1.0  0.13679  0.05959  0.97354  1.0000
  H   H88       1.0  0.05314  0.15070  0.80192  1.0000
  C   C81       1.0  0.09752  0.28306  0.53328  1.0000
  C   C82       1.0  0.02244  0.27160  0.49404  1.0000
  H   H89       1.0  0.06718  0.16379  0.74974  1.0000
  C   C83       1.0  0.01525  0.10539  0.76780  1.0000
  C   C84       1.0  0.10172  0.30199  0.50889  1.0000
  C   C85       1.0  0.10360  0.29311  0.47975  1.0000
  H   H90       1.0  0.01462  0.10218  0.72056  1.0000
  H   H91       1.0  0.09552  0.29039  0.55528  1.0000
  Fe  Fe16      1.0  0.00631  0.09129  0.93759  1.0000
  H   H92       1.0  0.10285  0.32379  0.51297  1.0000
  H   H93       1.0  0.10401  0.00992  0.94886  1.0000
  H   H94       1.0  0.09480  0.22339  0.49828  1.0000
  C   C86       1.0  0.09726  0.24532  0.50119  1.0000
  H   H95       1.0  0.19779  0.98368  0.93201  1.0000
  H   H96       1.0  0.20222  0.09985  0.95511  1.0000
  C   C87       1.0  0.16420  0.12614  0.96228  1.0000
  H   H97       1.0  0.13070  0.34280  0.47644  1.0000
  C   C88       1.0  0.18907  0.11096  0.97105  1.0000
  H   H98       1.0  0.15113  0.67095  0.19426  1.0000
  S   S30       1.0  0.01333  0.76872  0.28262  1.0000
  Fe  Fe17      1.0  0.05424  0.73063  0.34741  1.0000
  S   S31       1.0  0.07512  0.73969  0.30358  1.0000
  S   S32       1.0  0.08372  0.70735  0.37883  1.0000
  Fe  Fe18      1.0  0.05217  0.78187  0.30524  1.0000
  S   S33       1.0  0.07565  0.82227  0.29606  1.0000
  Fe  Fe19      1.0  0.03543  0.72565  0.28540  1.0000
  S   S34       1.0  0.03646  0.68769  0.25915  1.0000
  S   S35       1.0  0.03311  0.77315  0.35081  1.0000
  C   C89       1.0  0.14385  0.54164  0.42420  1.0000
  S   S36       1.0  0.20954  0.53505  0.37172  1.0000
  H   H99       1.0  0.11321  0.86756  0.28683  1.0000
  H   H100      1.0  0.00320  0.84778  0.24033  1.0000
  C   C90       1.0  0.05945  0.79893  0.41435  1.0000
  H   H101      1.0  0.17926  0.78831  0.18094  1.0000
  H   H102      1.0  0.19963  0.86322  0.23424  1.0000
  S   S37       1.0  0.20796  0.82896  0.31769  1.0000
  S   S38       1.0  0.18208  0.66877  0.25101  1.0000
  H   H103      1.0  0.01919  0.68539  0.39398  1.0000
  Fe  Fe20      1.0  0.17853  0.71471  0.23807  1.0000
  S   S39       1.0  0.13965  0.74283  0.24864  1.0000
  S   S40       1.0  0.21721  0.72250  0.26265  1.0000
  C   C91       1.0  0.11588  0.53965  0.98570  1.0000
  C   C92       1.0  0.21598  0.88403  0.19506  1.0000
  H   H104      1.0  0.13964  0.48247  0.08246  1.0000
  S   S41       1.0  0.03475  0.78097  0.16807  1.0000
  H   H105      1.0  0.00818  0.72697  0.07620  1.0000
  S   S42       1.0  0.02008  0.80974  0.01417  1.0000
  H   H106      1.0  0.08797  0.68706  0.21144  1.0000
  Fe  Fe21      1.0  0.23576  0.49386  0.00944  1.0000
  S   S43       1.0  0.01441  0.60941  0.11950  1.0000
  H   H107      1.0  0.07678  0.51680  0.11411  1.0000
  Fe  Fe22      1.0  0.04751  0.64301  0.04674  1.0000
  H   H108      1.0  0.18003  0.92997  0.99238  1.0000
  C   C93       1.0  0.07449  0.68381  0.46450  1.0000
  Fe  Fe23      1.0  0.05973  0.60704  0.10272  1.0000
  S   S44       1.0  0.06097  0.65298  0.09128  1.0000
  H   H109      1.0  0.12218  0.83025  0.36584  1.0000
  H   H110      1.0  0.17102  0.78401  0.32427  1.0000
  H   H111      1.0  0.02338  0.90583  0.13600  1.0000
  S   S45       1.0  0.21835  0.62103  0.09461  1.0000
  S   S46       1.0  0.21021  0.55255  0.06422  1.0000
  Fe  Fe24      1.0  0.24411  0.57873  0.07996  1.0000
  H   H112      1.0  0.16473  0.87088  0.29427  1.0000
  H   H113      1.0  0.06768  0.83767  0.21008  1.0000
  C   C94       1.0  0.00673  0.71521  0.17905  1.0000
  H   H114      1.0  0.07811  0.75892  0.01005  1.0000
  C   C95       1.0  0.12622  0.57695  0.11115  1.0000
  C   C96       1.0  0.12917  0.58164  0.08048  1.0000
  C   C97       1.0  0.15497  0.57397  0.06595  1.0000
  C   C98       1.0  0.17792  0.56206  0.08213  1.0000
  C   C99       1.0  0.17490  0.55759  0.11272  1.0000
  C   C100      1.0  0.14907  0.56483  0.12716  1.0000
  H   H115      1.0  0.11160  0.59089  0.06791  1.0000
  H   H116      1.0  0.15727  0.57735  0.04226  1.0000
  H   H117      1.0  0.01581  0.53364  0.43791  1.0000
  H   H118      1.0  0.18137  0.65011  0.37788  1.0000
  H   H119      1.0  0.23622  0.78362  0.34904  1.0000
  H   H120      1.0  0.05576  0.76897  0.98017  1.0000
  H   H121      1.0  0.04544  0.83304  0.36836  1.0000
  C   C101      1.0  0.15525  0.81982  0.39538  1.0000
  H   H122      1.0  0.05189  0.86414  0.12046  1.0000
  C   C102      1.0  0.00503  0.82327  0.07033  1.0000
  S   S47       1.0  0.04986  0.59652  0.05728  1.0000
  H   H123      1.0  0.07188  0.86789  0.41431  1.0000
  C   C103      1.0  0.24418  0.58047  0.12694  1.0000
  H   H124      1.0  0.11774  0.62211  0.32525  1.0000
  H   H125      1.0  0.12469  0.73832  0.00289  1.0000
  C   C104      1.0  0.12462  0.49848  0.09202  1.0000
  H   H126      1.0  0.22452  0.65765  0.01389  1.0000
  C   C105      1.0  0.01592  0.66506  0.17962  1.0000
  C   C106      1.0  0.06296  0.76903  0.19125  1.0000
  C   C107      1.0  0.06487  0.77869  0.21920  1.0000
  C   C108      1.0  0.08891  0.77107  0.23595  1.0000
  C   C109      1.0  0.11071  0.75268  0.22564  1.0000
  C   C110      1.0  0.10877  0.74269  0.19773  1.0000
  C   C111      1.0  0.08496  0.75089  0.18063  1.0000
  H   H127      1.0  0.04798  0.79231  0.22770  1.0000
  H   H128      1.0  0.09060  0.77942  0.25712  1.0000
  H   H129      1.0  0.12549  0.72866  0.18945  1.0000
  H   H130      1.0  0.08323  0.74283  0.15930  1.0000
  H   H131      1.0  0.16307  0.83515  0.24181  1.0000
  H   H132      1.0  0.21719  0.90369  0.20520  1.0000
  C   C112      1.0  0.04012  0.87585  0.20457  1.0000
  C   C113      1.0  0.20477  0.83454  0.19893  1.0000
  H   H133      1.0  0.00896  0.90246  0.26734  1.0000
  H   H134      1.0  0.07743  0.85080  0.36381  1.0000
  H   H135      1.0  0.04273  0.65686  0.40412  1.0000
  C   C114      1.0  0.22750  0.67784  0.00245  1.0000
  C   C115      1.0  0.21523  0.56938  0.35679  1.0000
  C   C116      1.0  0.22512  0.62391  0.33223  1.0000
  C   C117      1.0  0.21256  0.60503  0.31544  1.0000
  C   C118      1.0  0.20736  0.57791  0.32784  1.0000
  H   H136      1.0  0.20714  0.61125  0.29293  1.0000
  H   H137      1.0  0.19771  0.56339  0.31477  1.0000
  C   C119      1.0  0.02477  0.68957  0.22296  1.0000
  C   C120      1.0  0.02424  0.66464  0.20887  1.0000
  C   C121      1.0  0.04981  0.51637  0.41055  1.0000
  H   H138      1.0  0.14810  0.80215  0.46880  1.0000
  H   H139      1.0  0.05840  0.88512  0.27464  1.0000
  C   C122      1.0  0.01595  0.71493  0.20811  1.0000
  C   C123      1.0  0.23557  0.52117  0.28416  1.0000
  H   H140      1.0  0.07049  0.54393  0.98254  1.0000
  C   C124      1.0  0.07204  0.70651  0.41546  1.0000
  C   C125      1.0  0.04833  0.72322  0.42422  1.0000
  C   C126      1.0  0.03763  0.72011  0.45328  1.0000
  C   C127      1.0  0.20001  0.59547  0.46030  1.0000
  H   H141      1.0  0.01428  0.71169  0.03268  1.0000
  C   C128      1.0  0.08555  0.68735  0.43570  1.0000
  H   H142      1.0  0.06924  0.60794  0.99636  1.0000
  Fe  Fe25      1.0  0.20951  0.66595  0.20974  1.0000
  H   H143      1.0  0.08641  0.50024  0.38777  1.0000
  H   H144      1.0  0.10389  0.67442  0.42881  1.0000
  C   C129      1.0  0.11280  0.82361  0.30065  1.0000
  C   C130      1.0  0.12943  0.80012  0.31114  1.0000
  C   C131      1.0  0.15854  0.80221  0.31574  1.0000
  C   C132      1.0  0.17161  0.82758  0.30944  1.0000
  C   C133      1.0  0.15510  0.85107  0.29869  1.0000
  C   C134      1.0  0.12582  0.84910  0.29451  1.0000
  H   H145      1.0  0.11986  0.78033  0.31589  1.0000
  Fe  Fe26      1.0  0.22261  0.67587  0.27200  1.0000
  N   N5        1.0  0.14777  0.66925  0.07086  1.0000
  C   C135      1.0  0.13494  0.65594  0.04646  1.0000
  C   C136      1.0  0.17698  0.67601  0.06086  1.0000
  C   C137      1.0  0.14930  0.64830  0.09648  1.0000
  C   C138      1.0  0.13172  0.69494  0.07980  1.0000
  C   C139      1.0  0.10596  0.70548  0.06673  1.0000
  C   C140      1.0  0.14157  0.70998  0.10274  1.0000
  C   C141      1.0  0.09090  0.72931  0.07647  1.0000
  C   C142      1.0  0.12647  0.73393  0.11212  1.0000
  C   C143      1.0  0.10113  0.74352  0.09907  1.0000
  H   H146      1.0  0.13351  0.67029  0.02617  1.0000
  H   H147      1.0  0.11340  0.64899  0.05282  1.0000
  H   H148      1.0  0.17678  0.69315  0.04301  1.0000
  H   H149      1.0  0.18908  0.65760  0.05210  1.0000
  H   H150      1.0  0.18982  0.68251  0.07890  1.0000
  H   H151      1.0  0.15926  0.62788  0.09022  1.0000
  H   H152      1.0  0.12778  0.64416  0.10602  1.0000
  H   H153      1.0  0.09667  0.69536  0.04937  1.0000
  H   H154      1.0  0.16099  0.70314  0.11371  1.0000
  H   H155      1.0  0.07088  0.73654  0.06680  1.0000
  H   H156      1.0  0.13427  0.74495  0.12986  1.0000
  H   H157      1.0  0.08914  0.76178  0.10679  1.0000
  H   H158      1.0  0.08590  0.65972  0.23996  1.0000
  H   H159      1.0  0.10608  0.67075  0.30512  1.0000
  H   H160      1.0  0.01858  0.85408  0.27455  1.0000
  C   C144      1.0  0.10063  0.66968  0.22334  1.0000
  N   N6        1.0  0.03461  0.87860  0.23651  1.0000
  S   S48       1.0  0.20039  0.63041  0.18307  1.0000
  Fe  Fe27      1.0  0.24559  0.85451  0.30071  1.0000
  C   C145      1.0  0.22827  0.59085  0.15132  1.0000
  N   N7        1.0  0.09893  0.50418  0.07415  1.0000
  H   H161      1.0  0.15595  0.61257  0.36119  1.0000
  C   C146      1.0  0.10524  0.51656  0.04402  1.0000
  C   C147      1.0  0.08808  0.53718  0.99649  1.0000
  H   H162      1.0  0.22776  0.88561  0.43639  1.0000
  H   H163      1.0  0.03670  0.80070  0.40831  1.0000
  H   H164      1.0  0.21500  0.51292  0.28942  1.0000
  H   H165      1.0  0.07760  0.86563  0.24780  1.0000
  H   H166      1.0  0.13601  0.50636  0.47096  1.0000
  C   C148      1.0  0.23232  0.61529  0.36121  1.0000
  H   H167      1.0  0.21464  0.57683  0.16397  1.0000
  Fe  Fe28      1.0  0.24163  0.71620  0.22032  1.0000
  H   H168      1.0  0.13629  0.55689  0.40621  1.0000
  N   N8        1.0  0.11323  0.64894  0.20315  1.0000
  C   C149      1.0  0.13319  0.66356  0.18239  1.0000
  C   C150      1.0  0.08991  0.63954  0.18609  1.0000
  C   C151      1.0  0.14005  0.60196  0.20256  1.0000
  C   C152      1.0  0.15625  0.57963  0.21619  1.0000
  H   H169      1.0  0.12250  0.68196  0.17017  1.0000
  H   H170      1.0  0.14278  0.64957  0.16582  1.0000
  H   H171      1.0  0.07570  0.62630  0.20035  1.0000
  H   H172      1.0  0.07679  0.65751  0.17588  1.0000
  H   H173      1.0  0.09788  0.62710  0.16761  1.0000
  H   H174      1.0  0.13808  0.60221  0.17897  1.0000
  H   H175      1.0  0.16613  0.56351  0.20305  1.0000
  N   N9        1.0  0.17400  0.70784  0.36036  1.0000
  C   C153      1.0  0.19660  0.69942  0.38164  1.0000
  C   C154      1.0  0.18750  0.72303  0.33454  1.0000
  C   C155      1.0  0.15318  0.72739  0.37470  1.0000
  C   C156      1.0  0.15925  0.68390  0.35067  1.0000
  C   C157      1.0  0.13775  0.68844  0.32958  1.0000
  C   C158      1.0  0.16519  0.65581  0.36201  1.0000
  C   C159      1.0  0.12287  0.66641  0.32072  1.0000
  C   C160      1.0  0.15053  0.63384  0.35260  1.0000
  C   C161      1.0  0.12927  0.63914  0.33218  1.0000
  H   H176      1.0  0.20793  0.71759  0.38792  1.0000
  H   H177      1.0  0.18773  0.68916  0.40238  1.0000
  H   H178      1.0  0.21305  0.68462  0.37214  1.0000
  H   H179      1.0  0.20281  0.70873  0.32302  1.0000
  H   H180      1.0  0.19948  0.74067  0.34102  1.0000
  H   H181      1.0  0.17190  0.73189  0.31816  1.0000
  H   H182      1.0  0.14192  0.71642  0.39369  1.0000
  H   H183      1.0  0.16348  0.74537  0.38294  1.0000
  H   H184      1.0  0.13661  0.73628  0.35937  1.0000
  H   H185      1.0  0.13181  0.70922  0.32019  1.0000
  C   C162      1.0  0.12839  0.62447  0.21861  1.0000
  H   H186      1.0  0.16240  0.65480  0.11429  1.0000
  C   C163      1.0  0.14210  0.80832  0.44633  1.0000
  C   C164      1.0  0.10469  0.82057  0.41070  1.0000
  H   H187      1.0  0.02242  0.65571  0.37172  1.0000
  C   C165      1.0  0.03314  0.89125  0.15249  1.0000
  C   C166      1.0  0.06168  0.84888  0.16470  1.0000
  S   S49       1.0  0.09391  0.58484  0.12998  1.0000
  H   H188      1.0  0.20399  0.78515  0.25656  1.0000
  H   H189      1.0  0.14776  0.63682  0.04023  1.0000
  C   C167      1.0  0.07891  0.52332  0.09019  1.0000
  H   H190      1.0  0.08628  0.54487  0.08840  1.0000
  H   H191      1.0  0.16727  0.53834  0.42092  1.0000
  C   C168      1.0  0.22500  0.88210  0.16578  1.0000
  H   H192      1.0  0.22005  0.92471  0.47243  1.0000
  H   H193      1.0  0.13309  0.51476  0.37685  1.0000
  H   H194      1.0  0.07096  0.90268  0.24061  1.0000
  S   S50       1.0  0.23271  0.65822  0.31825  1.0000
  H   H195      1.0  0.11712  0.67979  0.23501  1.0000
  H   H196      1.0  0.03822  0.83407  0.24899  1.0000
  C   C169      1.0  0.07306  0.75347  0.98755  1.0000
  H   H197      1.0  0.06466  0.73220  0.98986  1.0000
  C   C170      1.0  0.13301  0.62264  0.24942  1.0000
  C   C171      1.0  0.02318  0.85257  0.25052  1.0000
  C   C172      1.0  0.06156  0.88333  0.25045  1.0000
  H   H198      1.0  0.05716  0.52465  0.08157  1.0000
  H   H199      1.0  0.17153  0.82270  0.37809  1.0000
  C   C173      1.0  0.09828  0.52061  0.42690  1.0000
  H   H200      1.0  0.02969  0.61560  0.42569  1.0000
  H   H201      1.0  0.15548  0.79950  0.24146  1.0000
  H   H202      1.0  0.15202  0.51243  0.04454  1.0000
  N   N10       1.0  0.07409  0.82464  0.40444  1.0000
  C   C174      1.0  0.22459  0.85669  0.15292  1.0000
  Fe  Fe29      1.0  0.01474  0.65473  0.10378  1.0000
  H   H203      1.0  0.12525  0.63881  0.26341  1.0000
  H   H204      1.0  0.03815  0.85233  0.41561  1.0000
  H   H205      1.0  0.07384  0.83038  0.15785  1.0000
  H   H206      1.0  0.16164  0.48928  0.44755  1.0000
  C   C175      1.0  0.02145  0.66220  0.39474  1.0000
  H   H207      1.0  0.09801  0.81010  0.45770  1.0000
  C   C176      1.0  0.13337  0.51915  0.03222  1.0000
  H   H208      1.0  0.21532  0.81405  0.15789  1.0000
  C   C177      1.0  0.05757  0.85299  0.19467  1.0000
  H   H209      1.0  0.05928  0.79450  0.43864  1.0000
  C   C178      1.0  0.14932  0.60022  0.26284  1.0000
  C   C179      1.0  0.16109  0.57890  0.24622  1.0000
  H   H210      1.0  0.03041  0.64493  0.22061  1.0000
  C   C180      1.0  0.08276  0.52577  0.02515  1.0000
  C   C181      1.0  0.16300  0.81186  0.42416  1.0000
  C   C182      1.0  0.19465  0.62332  0.44967  1.0000
  S   S51       1.0  0.06815  0.66693  0.00794  1.0000
  C   C183      1.0  0.24414  0.63864  0.14272  1.0000
  S   S52       1.0  0.00092  0.64874  0.05813  1.0000
  C   C184      1.0  0.13844  0.53060  0.00353  1.0000
  H   H211      1.0  0.11427  0.71240  0.97940  1.0000
  C   C185      1.0  0.00757  0.61862  0.41790  1.0000
  C   C186      1.0  0.00720  0.69037  0.16463  1.0000
  Fe  Fe30      1.0  0.23365  0.51562  0.41138  1.0000
  H   H212      1.0  0.17450  0.56210  0.25650  1.0000
  C   C187      1.0  0.21196  0.80303  0.24231  1.0000
  C   C188      1.0  0.02862  0.89541  0.18249  1.0000
  C   C189      1.0  0.24407  0.69692  0.01483  1.0000
  H   H213      1.0  0.21479  0.77717  0.19280  1.0000
  H   H214      1.0  0.19237  0.54800  0.12524  1.0000
  C   C190      1.0  0.06858  0.83083  0.37265  1.0000
  C   C191      1.0  0.01377  0.90198  0.24321  1.0000
  H   H215      1.0  0.06085  0.52405  0.03235  1.0000
  H   H216      1.0  0.06974  0.78029  0.40413  1.0000
  H   H217      1.0  0.03778  0.73789  0.40846  1.0000
  H   H218      1.0  0.23216  0.95340  0.42380  1.0000
  S   S53       1.0  0.01631  0.71332  0.32965  1.0000
  C   C192      1.0  0.19308  0.78474  0.20025  1.0000
  C   C193      1.0  0.16782  0.63662  0.45552  1.0000
  H   H219      1.0  0.15369  0.59986  0.28607  1.0000
  C   C194      1.0  0.12658  0.82414  0.38859  1.0000
  C   C195      1.0  0.05029  0.69981  0.47303  1.0000
  C   C196      1.0  0.16434  0.81727  0.22766  1.0000
  C   C197      1.0  0.22767  0.58825  0.37342  1.0000
  N   N11       1.0  0.12943  0.51502  0.42424  1.0000
  S   S54       1.0  0.21449  0.51255  0.45732  1.0000
  H   H220      1.0  0.16017  0.53197  0.99510  1.0000
  C   C198      1.0  0.06107  0.84828  0.42052  1.0000
  H   H221      1.0  0.14680  0.56072  0.15076  1.0000
  N   N12       1.0  0.19376  0.81025  0.21673  1.0000
  C   C199      1.0  0.04927  0.86782  0.14365  1.0000
  H   H222      1.0  0.16340  0.65813  0.44736  1.0000
  C   C200      1.0  0.21471  0.83313  0.16912  1.0000
  H   H223      1.0  0.23277  0.90029  0.15319  1.0000
  H   H224      1.0  0.02403  0.81113  0.07716  1.0000
  H   H225      1.0  0.18437  0.76719  0.21435  1.0000
  C   C201      1.0  0.22740  0.61897  0.15837  1.0000
  C   C202      1.0  0.20603  0.86068  0.21147  1.0000
  C   C203      1.0  0.24201  0.53199  0.25564  1.0000
  S   S55       1.0  0.20242  0.71144  0.19480  1.0000
  Fe  Fe31      1.0  0.00426  0.60303  0.07287  1.0000
  H   H226      1.0  0.07762  0.81365  0.35933  1.0000
  H   H227      1.0  0.01886  0.73246  0.46008  1.0000
  H   H228      1.0  0.18522  0.80852  0.42934  1.0000
  H   H229      1.0  0.22657  0.53229  0.23859  1.0000
  C   C204      1.0  0.03859  0.53023  0.43463  1.0000
  H   H230      1.0  0.02173  0.92268  0.23558  1.0000
  H   H231      1.0  0.22061  0.58500  0.45618  1.0000
  S   S56       1.0  0.22122  0.64361  0.43177  1.0000
  C   C205      1.0  0.11342  0.81282  0.43979  1.0000
  C   C206      1.0  0.05670  0.53926  0.45491  1.0000
  H   H232      1.0  0.21269  0.82064  0.25667  1.0000
  H   H233      1.0  0.23343  0.58220  0.39587  1.0000
  H   H234      1.0  0.06205  0.84427  0.44485  1.0000
  H   H235      1.0  0.01616  0.73427  0.21889  1.0000
  C   C207      1.0  0.13907  0.50147  0.39697  1.0000
  H   H236      1.0  0.13601  0.51785  0.09377  1.0000
  H   H237      1.0  0.14044  0.55179  0.44529  1.0000
  H   H238      1.0  0.16264  0.49784  0.39559  1.0000
  C   C208      1.0  0.13881  0.49619  0.44976  1.0000
  H   H239      1.0  0.01533  0.91359  0.18777  1.0000
  H   H240      1.0  0.19055  0.58356  0.99210  1.0000
  H   H241      1.0  0.14988  0.82261  0.20910  1.0000
  C   C209      1.0  0.00179  0.71073  0.98867  1.0000
  H   H242      1.0  0.02061  0.69813  0.98239  1.0000
  H   H243      1.0  0.01588  0.64575  0.16886  1.0000
  C   C210      1.0  0.08606  0.53451  0.45122  1.0000
  C   C211      1.0  0.12062  0.73437  0.97968  1.0000
  H   H244      1.0  0.24144  0.55876  0.12296  1.0000
  H   H245      1.0  0.23227  0.85524  0.13029  1.0000
  C   C212      1.0  0.07921  0.51154  0.40660  1.0000
  H   H246      1.0  0.00955  0.76159  0.05763  1.0000
  H   H247      1.0  0.22783  0.84910  0.40073  1.0000
  H   H248      1.0  0.23422  0.79718  0.23501  1.0000
  H   H249      1.0  0.00666  0.60734  0.39748  1.0000
  H   H250      1.0  0.11934  0.49020  0.11491  1.0000
  H   H251      1.0  0.24132  0.62971  0.37453  1.0000
  H   H252      1.0  0.11227  0.78978  0.98816  1.0000
  H   H253      1.0  0.99954  0.73474  0.16759  1.0000
  H   H254      1.0  0.01557  0.65875  0.45344  1.0000
  S   S57       1.0  0.24154  0.54026  0.00100  1.0000
  H   H255      1.0  0.14257  0.60069  0.97578  1.0000
  H   H256      1.0  0.03565  0.50885  0.39509  1.0000
  H   H257      1.0  0.10489  0.93470  0.46792  1.0000
  C   C213      1.0  0.14675  0.62251  0.47231  1.0000
  H   H258      1.0  0.24249  0.66010  0.14862  1.0000
  H   H259      1.0  0.09914  0.54136  0.46795  1.0000
  H   H260      1.0  0.10341  0.88342  0.46656  1.0000
  C   C214      1.0  0.07222  0.62017  0.97576  1.0000
  C   C215      1.0  0.07245  0.64933  0.97531  1.0000
  H   H261      1.0  0.24311  0.78542  0.29477  1.0000
  C   C216      1.0  0.24677  0.87236  0.43262  1.0000
  C   C217      1.0  0.24686  0.85178  0.41256  1.0000
  C   C218      1.0  0.21424  0.68522  0.97538  1.0000
  H   H262      1.0  0.04795  0.54961  0.47393  1.0000
  C   C219      1.0  0.99860  0.82671  0.04048  1.0000
  N   N13       1.0  0.99835  0.64873  0.41262  1.0000
  Fe  Fe32      1.0  0.05562  0.71001  0.67774  1.0000
  H   H263      1.0  0.19684  0.59880  0.57478  1.0000
  S   S58       1.0  0.09870  0.69423  0.65972  1.0000
  C   C220      1.0  0.24047  0.62756  0.51241  1.0000
  S   S59       1.0  0.05168  0.75471  0.68831  1.0000
  S   S60       1.0  0.01981  0.71598  0.64681  1.0000
  C   C221      1.0  0.18214  0.63111  0.91856  1.0000
  C   C222      1.0  0.15234  0.59493  0.48354  1.0000
  C   C223      1.0  0.21343  0.65408  0.54819  1.0000
  S   S61       1.0  0.19148  0.63120  0.74149  1.0000
  H   H264      1.0  0.17812  0.58794  0.69140  1.0000
  C   C224      1.0  0.18480  0.55994  0.84094  1.0000
  Fe  Fe33      1.0  0.00159  0.82060  0.96989  1.0000
  C   C225      1.0  0.09216  0.96819  0.94282  1.0000
  H   H265      1.0  0.15682  0.68882  0.87650  1.0000
  C   C226      1.0  0.07121  0.83512  0.82670  1.0000
  C   C227      1.0  0.20186  0.81682  0.76155  1.0000
  H   H266      1.0  0.13713  0.91075  0.94015  1.0000
  S   S62       1.0  0.04082  0.87718  0.88332  1.0000
  S   S63       1.0  0.02494  0.80919  0.92842  1.0000
  H   H267      1.0  0.13693  0.62932  0.92971  1.0000
  H   H268      1.0  0.22992  0.69812  0.51450  1.0000
  H   H269      1.0  0.16866  0.55002  0.55089  1.0000
  Fe  Fe34      1.0  0.04201  0.60330  0.57248  1.0000
  S   S64       1.0  0.02859  0.59724  0.62132  1.0000
  Fe  Fe35      1.0  0.08332  0.59566  0.51921  1.0000
  Fe  Fe36      1.0  0.01906  0.59167  0.51200  1.0000
  S   S65       1.0  0.07698  0.62885  0.55171  1.0000
  C   C228      1.0  0.13068  0.93252  0.94214  1.0000
  Fe  Fe37      1.0  0.02968  0.66254  0.81196  1.0000
  Fe  Fe38      1.0  0.09218  0.68055  0.80934  1.0000
  S   S66       1.0  0.11042  0.63636  0.81254  1.0000
  S   S67       1.0  0.11998  0.71768  0.81071  1.0000
  Fe  Fe39      1.0  0.07731  0.62850  0.78007  1.0000
  S   S68       1.0  0.08777  0.59773  0.74470  1.0000
  Fe  Fe40      1.0  0.07634  0.62968  0.84742  1.0000
  S   S69       1.0  0.08624  0.60464  0.89002  1.0000
  S   S70       1.0  0.06085  0.67351  0.77460  1.0000
  S   S71       1.0  0.05932  0.67416  0.84608  1.0000
  Fe  Fe41      1.0  0.17905  0.81198  0.55892  1.0000
  S   S72       1.0  0.19558  0.77560  0.58883  1.0000
  S   S73       1.0  0.13699  0.80482  0.53784  1.0000
  H   H270      1.0  0.19429  0.88171  0.82616  1.0000
  Fe  Fe42      1.0  0.19291  0.82503  0.90566  1.0000
  S   S74       1.0  0.16441  0.85398  0.93202  1.0000
  S   S75       1.0  0.17443  0.79310  0.87994  1.0000
  C   C229      1.0  0.21948  0.78514  0.72454  1.0000
  C   C230      1.0  0.21574  0.79162  0.75409  1.0000
  H   H271      1.0  0.22417  0.77715  0.77096  1.0000
  C   C231      1.0  0.12260  0.92115  0.47594  1.0000
  Fe  Fe43      1.0  0.20811  0.80447  0.84492  1.0000
  S   S76       1.0  0.19377  0.84408  0.58809  1.0000
  C   C232      1.0  0.07983  0.62230  0.92243  1.0000
  C   C233      1.0  0.07623  0.60672  0.94938  1.0000
  H   H272      1.0  0.07723  0.68731  0.94800  1.0000
  H   H273      1.0  0.13835  0.56783  0.84074  1.0000
  C   C234      1.0  0.07674  0.66485  0.94845  1.0000
  C   C235      1.0  0.08003  0.65146  0.92204  1.0000
  H   H274      1.0  0.07619  0.58422  0.94969  1.0000
  H   H275      1.0  0.11831  0.86315  0.54974  1.0000
  C   C236      1.0  0.04907  0.59973  0.65290  1.0000
  C   C237      1.0  0.06534  0.57630  0.66429  1.0000
  C   C238      1.0  0.07753  0.57631  0.69206  1.0000
  C   C239      1.0  0.07354  0.59965  0.70898  1.0000
  C   C240      1.0  0.05766  0.62326  0.69751  1.0000
  C   C241      1.0  0.04507  0.62314  0.66986  1.0000
  H   H276      1.0  0.08335  0.66370  0.90154  1.0000
  H   H277      1.0  0.08970  0.55789  0.70071  1.0000
  H   H278      1.0  0.05460  0.64131  0.71030  1.0000
  H   H279      1.0  0.03160  0.64101  0.66201  1.0000
  H   H280      1.0  0.13875  0.55099  0.57625  1.0000
  C   C242      1.0  0.23666  0.72914  0.97148  1.0000
  H   H281      1.0  0.05018  0.83062  0.81899  1.0000
  H   H282      1.0  0.21362  0.92575  0.91693  1.0000
  C   C243      1.0  0.05536  0.85901  0.51546  1.0000
  C   C244      1.0  0.05878  0.83099  0.50888  1.0000
  C   C245      1.0  0.08370  0.81490  0.51628  1.0000
  C   C246      1.0  0.10550  0.82626  0.53086  1.0000
  C   C247      1.0  0.10181  0.85405  0.53842  1.0000
  H   H283      1.0  0.13619  0.75008  0.91987  1.0000
  H   H284      1.0  0.04237  0.82171  0.49777  1.0000
  H   H285      1.0  0.08616  0.79356  0.51023  1.0000
  H   H286      1.0  0.14715  0.65217  0.60295  1.0000
  C   C248      1.0  0.05142  0.66833  0.60251  1.0000
  C   C249      1.0  0.07518  0.87111  0.89704  1.0000
  C   C250      1.0  0.07897  0.86114  0.92636  1.0000
  C   C251      1.0  0.10645  0.85599  0.93702  1.0000
  C   C252      1.0  0.13021  0.85952  0.91807  1.0000
  C   C253      1.0  0.12648  0.86944  0.88875  1.0000
  C   C254      1.0  0.09900  0.87591  0.87848  1.0000
  H   H287      1.0  0.06074  0.85797  0.94105  1.0000
  H   H288      1.0  0.13086  0.56253  0.89374  1.0000
  H   H289      1.0  0.18367  0.87131  0.50691  1.0000
  C   C255      1.0  0.21667  0.72822  0.80635  1.0000
  C   C256      1.0  0.19694  0.74957  0.81387  1.0000
  C   C257      1.0  0.16783  0.74535  0.81636  1.0000
  C   C258      1.0  0.15748  0.71955  0.81110  1.0000
  C   C259      1.0  0.17703  0.69739  0.80460  1.0000
  C   C260      1.0  0.20653  0.70174  0.80234  1.0000
  H   H290      1.0  0.20416  0.76972  0.81727  1.0000
  H   H291      1.0  0.15325  0.76260  0.82172  1.0000
  H   H292      1.0  0.16945  0.67744  0.79986  1.0000
  H   H293      1.0  0.22139  0.68480  0.79648  1.0000
  H   H294      1.0  0.14967  0.55369  0.79393  1.0000
  H   H295      1.0  0.15259  0.58293  0.55959  1.0000
  N   N14       1.0  0.17850  0.64923  0.89099  1.0000
  S   S77       1.0  0.02728  0.69562  0.71575  1.0000
  C   C261      1.0  0.11464  0.74606  0.91496  1.0000
  H   H296      1.0  0.19004  0.84487  0.69103  1.0000
  H   H297      1.0  0.02441  0.73524  0.55721  1.0000
  H   H298      1.0  0.17590  0.92202  0.55616  1.0000
  C   C262      1.0  0.10174  0.94036  0.94044  1.0000
  C   C263      1.0  0.09536  0.83006  0.77922  1.0000
  C   C264      1.0  0.01139  0.78665  0.81401  1.0000
  H   H299      1.0  0.24159  0.74834  0.95944  1.0000
  H   H300      1.0  0.19523  0.65473  0.62198  1.0000
  H   H301      1.0  0.04635  0.74253  0.94281  1.0000
  H   H302      1.0  0.07082  0.82904  0.85081  1.0000
  H   H303      1.0  0.18545  0.94672  0.89904  1.0000
  S   S78       1.0  0.22324  0.79497  0.92960  1.0000
  C   C265      1.0  0.17925  0.57620  0.64641  1.0000
  H   H304      1.0  0.08437  0.66836  0.47996  1.0000
  H   H305      1.0  0.00839  0.65623  0.60197  1.0000
  C   C266      1.0  0.12396  0.67589  0.68248  1.0000
  C   C267      1.0  0.11742  0.66766  0.71183  1.0000
  C   C268      1.0  0.13844  0.65424  0.72973  1.0000
  C   C269      1.0  0.16589  0.64820  0.71818  1.0000
  C   C270      1.0  0.17231  0.65579  0.68857  1.0000
  C   C271      1.0  0.15142  0.66993  0.67088  1.0000
  H   H306      1.0  0.09619  0.67176  0.72075  1.0000
  H   H307      1.0  0.13327  0.64812  0.75249  1.0000
  H   H308      1.0  0.19340  0.65114  0.67951  1.0000
  H   H309      1.0  0.15654  0.67672  0.64832  1.0000
  C   C272      1.0  0.16198  0.65146  0.55767  1.0000
  S   S79       1.0  0.04512  0.61712  0.81575  1.0000
  S   S80       1.0  0.19455  0.82493  0.79908  1.0000
  H   H310      1.0  0.19549  0.97641  0.97163  1.0000
  Fe  Fe44      1.0  0.04322  0.64696  0.52116  1.0000
  N   N15       1.0  0.13598  0.75511  0.71676  1.0000
  C   C273      1.0  0.11481  0.73583  0.72971  1.0000
  C   C274      1.0  0.14316  0.77369  0.73968  1.0000
  C   C275      1.0  0.12231  0.77318  0.69279  1.0000
  C   C276      1.0  0.16176  0.73879  0.70662  1.0000
  C   C277      1.0  0.17043  0.73794  0.67641  1.0000
  C   C278      1.0  0.17896  0.72277  0.72725  1.0000
  C   C279      1.0  0.19522  0.72268  0.66783  1.0000
  H   H311      1.0  0.12383  0.72071  0.74706  1.0000
  H   H312      1.0  0.09612  0.74723  0.74001  1.0000
  H   H313      1.0  0.10663  0.72343  0.71263  1.0000
  H   H314      1.0  0.12426  0.78648  0.74720  1.0000
  H   H315      1.0  0.15940  0.78816  0.73112  1.0000
  H   H316      1.0  0.15148  0.76194  0.75970  1.0000
  H   H317      1.0  0.11445  0.76046  0.67562  1.0000
  H   H318      1.0  0.10348  0.78570  0.70121  1.0000
  H   H319      1.0  0.13737  0.78815  0.68219  1.0000
  H   H320      1.0  0.15869  0.74913  0.65896  1.0000
  H   H321      1.0  0.17317  0.72161  0.75034  1.0000
  H   H322      1.0  0.20136  0.72255  0.64468  1.0000
  N   N16       1.0  0.08116  0.73607  0.56869  1.0000
  C   C280      1.0  0.08667  0.73530  0.53650  1.0000
  C   C281      1.0  0.06846  0.76418  0.57520  1.0000
  C   C282      1.0  0.10889  0.73234  0.58332  1.0000
  C   C283      1.0  0.06141  0.71418  0.57833  1.0000
  C   C284      1.0  0.03250  0.71722  0.57060  1.0000
  C   C285      1.0  0.07049  0.68868  0.59389  1.0000
  C   C286      1.0  0.22011  0.91677  0.49597  1.0000
  H   H323      1.0  0.14480  0.87292  0.87426  1.0000
  H   H324      1.0  0.01486  0.71806  0.79991  1.0000
  H   H325      1.0  0.06708  0.74100  0.52398  1.0000
  H   H326      1.0  0.10310  0.74989  0.52840  1.0000
  H   H327      1.0  0.09413  0.71388  0.53062  1.0000
  H   H328      1.0  0.05066  0.77129  0.56074  1.0000
  H   H329      1.0  0.08400  0.78071  0.57176  1.0000
  H   H330      1.0  0.06024  0.76430  0.59848  1.0000
  H   H331      1.0  0.12133  0.71317  0.57694  1.0000
  H   H332      1.0  0.12262  0.75005  0.57703  1.0000
  H   H333      1.0  0.10579  0.73132  0.60774  1.0000
  S   S81       1.0  0.24277  0.56893  0.72299  1.0000
  H   H334      1.0  0.09213  0.68401  0.60007  1.0000
  C   C287      1.0  0.09078  0.78976  0.81391  1.0000
  H   H335      1.0  0.13712  0.85969  0.72334  1.0000
  N   N17       1.0  0.17779  0.56222  0.59427  1.0000
  C   C288      1.0  0.18685  0.53279  0.60351  1.0000
  C   C289      1.0  0.16464  0.57645  0.61965  1.0000
  C   C290      1.0  0.13768  0.59144  0.61848  1.0000
  C   C291      1.0  0.12595  0.60451  0.64297  1.0000
  C   C292      1.0  0.14011  0.60240  0.66934  1.0000
  H   H336      1.0  0.21856  0.57830  0.60051  1.0000
  H   H337      1.0  0.16876  0.52146  0.61389  1.0000
  H   H338      1.0  0.20413  0.53127  0.61958  1.0000
  H   H339      1.0  0.19542  0.52108  0.58452  1.0000
  H   H340      1.0  0.12508  0.59331  0.59906  1.0000
  H   H341      1.0  0.10549  0.61606  0.64180  1.0000
  H   H342      1.0  0.13039  0.61175  0.68853  1.0000
  H   H343      1.0  0.22012  0.54663  0.90571  1.0000
  C   C293      1.0  0.06475  0.74200  0.92799  1.0000
  H   H344      1.0  0.21415  0.56644  0.56458  1.0000
  C   C294      1.0  0.10957  0.73970  0.88623  1.0000
  H   H345      1.0  0.10929  0.84912  0.95994  1.0000
  H   H346      1.0  0.09517  0.85285  0.69460  1.0000
  H   H347      1.0  0.17454  0.96646  0.52357  1.0000
  H   H348      1.0  0.15446  0.59056  0.79670  1.0000
  S   S82       1.0  0.00955  0.79673  0.62858  1.0000
  H   H349      1.0  0.23649  0.65658  0.58890  1.0000
  C   C295      1.0  0.15228  0.56024  0.88439  1.0000
  H   H350      1.0  0.08677  0.92473  0.93705  1.0000
  H   H351      1.0  0.20118  0.60616  0.80825  1.0000
  C   C296      1.0  0.17902  0.58150  0.47744  1.0000
  C   C297      1.0  0.16875  0.63223  0.86794  1.0000
  H   H352      1.0  0.06976  0.97433  0.94135  1.0000
  S   S83       1.0  0.00773  0.62420  0.54376  1.0000
  H   H353      1.0  0.21498  0.67256  0.89752  1.0000
  H   H354      1.0  0.12604  0.84726  0.82465  1.0000
  C   C298      1.0  0.22292  0.89348  0.79014  1.0000
  C   C299      1.0  0.15685  0.67261  0.89532  1.0000
  C   C300      1.0  0.20525  0.66178  0.87996  1.0000
  C   C301      1.0  0.15694  0.56309  0.85377  1.0000
  C   C302      1.0  0.21200  0.70783  0.68889  1.0000
  C   C303      1.0  0.20919  0.61990  0.92795  1.0000
  H   H355      1.0  0.01412  0.82100  0.56965  1.0000
  C   C304      1.0  0.17496  0.55455  0.90302  1.0000
  H   H356      1.0  0.01641  0.58880  0.72257  1.0000
  C   C305      1.0  0.21096  0.89531  0.81853  1.0000
  C   C306      1.0  0.20298  0.57705  0.58307  1.0000
  H   H357      1.0  0.06779  0.55774  0.65207  1.0000
  H   H358      1.0  0.19096  0.51858  0.80495  1.0000
  C   C307      1.0  0.16123  0.60622  0.96251  1.0000
  Fe  Fe45      1.0  0.20752  0.76326  0.90191  1.0000
  N   N18       1.0  0.23802  0.65426  0.52699  1.0000
  S   S84       1.0  0.21304  0.79274  0.66511  1.0000
  C   C308      1.0  0.20378  0.70776  0.71856  1.0000
  Fe  Fe46      1.0  0.21269  0.80740  0.61633  1.0000
  C   C309      1.0  0.16689  0.58868  0.67096  1.0000
  C   C310      1.0  0.21006  0.80404  0.70152  1.0000
  C   C311      1.0  0.02308  0.67209  0.59499  1.0000
  H   H359      1.0  0.07272  0.85819  0.82375  1.0000
  S   S85       1.0  0.05076  0.56836  0.54212  1.0000
  C   C312      1.0  0.09237  0.74735  0.93680  1.0000
  H   H360      1.0  0.16065  0.68317  0.91561  1.0000
  C   C313      1.0  0.18555  0.65208  0.53812  1.0000
  H   H361      1.0  0.13487  0.66559  0.89703  1.0000
  C   C314      1.0  0.15852  0.56152  0.56935  1.0000
  H   H362      1.0  0.20034  0.56626  0.64867  1.0000
  S   S86       1.0  0.03399  0.69217  0.50716  1.0000
  C   C315      1.0  0.20731  0.55361  0.86062  1.0000
  H   H363      1.0  0.14806  0.62316  0.87443  1.0000
  Fe  Fe47      1.0  0.02107  0.74131  0.72452  1.0000
  C   C316      1.0  0.12178  0.89227  0.47496  1.0000
  S   S87       1.0  0.20041  0.72095  0.92665  1.0000
  C   C317      1.0  0.00562  0.58966  0.74458  1.0000
  C   C318      1.0  0.16898  0.91525  0.49909  1.0000
  C   C319      1.0  0.01369  0.69640  0.57878  1.0000
  C   C320      1.0  0.01587  0.76284  0.79806  1.0000
  H   H364      1.0  0.16568  0.64500  0.84674  1.0000
  H   H365      1.0  0.20168  0.67779  0.86132  1.0000
  Fe  Fe48      1.0  0.00963  0.85199  0.91074  1.0000
  H   H366      1.0  0.17064  0.57292  0.76699  1.0000
  S   S88       1.0  0.03038  0.76711  0.76203  1.0000
  N   N19       1.0  0.18165  0.94363  0.94635  1.0000
  C   C321      1.0  0.14043  0.98049  0.94889  1.0000
  H   H367      1.0  0.21389  0.92465  0.55397  1.0000
  S   S89       1.0  0.23934  0.77083  0.86455  1.0000
  H   H368      1.0  0.13987  0.81265  0.81623  1.0000
  H   H369      1.0  0.09625  0.88451  0.85610  1.0000
  C   C322      1.0  0.19308  0.83621  0.73841  1.0000
  C   C323      1.0  0.19720  0.82996  0.70854  1.0000
  H   H370      1.0  0.23118  0.58129  0.81280  1.0000
  H   H371      1.0  0.03893  0.73090  0.89308  1.0000
  C   C324      1.0  0.19043  0.93156  0.91807  1.0000
  H   H372      1.0  0.18358  0.56020  0.48618  1.0000
  H   H373      1.0  0.99939  0.80290  0.85563  1.0000
  C   C325      1.0  0.00096  0.80329  0.56984  1.0000
  C   C326      1.0  0.15100  0.95237  0.94608  1.0000
  H   H374      1.0  0.22112  0.64596  0.87150  1.0000
  C   C327      1.0  0.19298  0.95754  0.51067  1.0000
  S   S90       1.0  0.05235  0.61596  0.48699  1.0000
  C   C328      1.0  0.24424  0.89035  0.73096  1.0000
  C   C329      1.0  0.19565  0.91614  0.54339  1.0000
  Fe  Fe49      1.0  0.23535  0.84024  0.56121  1.0000
  H   H375      1.0  0.14094  0.64986  0.54936  1.0000
  H   H376      1.0  0.01687  0.96744  0.91709  1.0000
  H   H377      1.0  0.22153  0.89743  0.72864  1.0000
  H   H378      1.0  0.21461  0.87820  0.77711  1.0000
  H   H379      1.0  0.21248  0.91411  0.85974  1.0000
  C   C330      1.0  0.06004  0.73539  0.89926  1.0000
  C   C331      1.0  0.07695  0.87041  0.53047  1.0000
  H   H380      1.0  0.12688  0.73886  0.86990  1.0000
  C   C332      1.0  0.20245  0.55126  0.89116  1.0000
  C   C333      1.0  0.20012  0.96698  0.95016  1.0000
  C   C334      1.0  0.15821  0.62296  0.93621  1.0000
  H   H381      1.0  0.18308  0.85617  0.74363  1.0000
  H   H382      1.0  0.01444  0.80704  0.80325  1.0000
  H   H383      1.0  0.22857  0.62379  0.91542  1.0000
  C   C335      1.0  0.11915  0.84225  0.76447  1.0000
  C   C336      1.0  0.08230  0.73444  0.87842  1.0000
  N   N20       1.0  0.19382  0.92647  0.51199  1.0000
  C   C337      1.0  0.14586  0.93264  0.48766  1.0000
  C   C338      1.0  0.23380  0.67778  0.50421  1.0000
  H   H384      1.0  0.22345  0.89365  0.49695  1.0000
  H   H385      1.0  0.20806  0.53748  0.77435  1.0000
  H   H386      1.0  0.23931  0.92419  0.50571  1.0000
  H   H387      1.0  0.05272  0.81801  0.77161  1.0000
  S   S91       1.0  0.21894  0.81149  0.53006  1.0000
  H   H388      1.0  0.21231  0.96512  0.52000  1.0000
  C   C339      1.0  0.20440  0.53645  0.79871  1.0000
  C   C340      1.0  0.21840  0.71123  0.95992  1.0000
  Fe  Fe50      1.0  0.01408  0.75945  0.66039  1.0000
  H   H389      1.0  0.18437  0.61453  0.86386  1.0000
  C   C341      1.0  0.16728  0.88591  0.49797  1.0000
  H   H390      1.0  0.21629  0.69556  0.73497  1.0000
  S   S92       1.0  0.02522  0.88053  0.50382  1.0000
  S   S93       1.0  0.22563  0.83691  0.87119  1.0000
  H   H391      1.0  0.23097  0.69575  0.68224  1.0000
  H   H392      1.0  0.05880  0.64941  0.61497  1.0000
  C   C342      1.0  0.16522  0.57024  0.79106  1.0000
  H   H393      1.0  0.12012  0.81773  0.84972  1.0000
  H   H394      1.0  0.10759  0.77784  0.80142  1.0000
  H   H395      1.0  0.09117  0.78134  0.83730  1.0000
  N   N21       1.0  0.19085  0.56302  0.80873  1.0000
  H   H396      1.0  0.18182  0.65081  0.51497  1.0000
  H   H397      1.0  0.19933  0.89305  0.54605  1.0000
  H   H398      1.0  0.22894  0.55030  0.85254  1.0000
  H   H399      1.0  0.23290  0.59494  0.96107  1.0000
  C   C343      1.0  0.07158  0.83488  0.73181  1.0000
  N   N22       1.0  0.09492  0.82022  0.81084  1.0000
  C   C344      1.0  0.09520  0.84667  0.71799  1.0000
  H   H400      1.0  0.07828  0.72971  0.85609  1.0000
  C   C345      1.0  0.12142  0.82476  0.82587  1.0000
  S   S94       1.0  0.12665  0.57644  0.50518  1.0000
  H   H401      1.0  0.07454  0.89206  0.53577  1.0000
  H   H402      1.0  0.17127  0.55248  0.92671  1.0000
  H   H403      1.0  0.07021  0.78444  0.80551  1.0000
  H   H404      1.0  0.05318  0.83164  0.71917  1.0000
  H   H405      1.0  0.13836  0.84531  0.77565  1.0000
  C   C346      1.0  0.16545  0.65267  0.58779  1.0000
  C   C347      1.0  0.07154  0.82697  0.76195  1.0000
  C   C348      1.0  0.11884  0.85047  0.73429  1.0000
  C   C349      1.0  0.21065  0.58555  0.80187  1.0000
  C   C350      1.0  0.24350  0.93002  0.82811  1.0000
  Fe  Fe51      1.0  0.23624  0.77766  0.56219  1.0000
  C   C351      1.0  0.01056  0.73664  0.81177  1.0000
  H   H406      1.0  0.21577  0.67506  0.48988  1.0000
  H   H407      1.0  0.17978  0.91202  0.91494  1.0000
  H   H408      1.0  0.19259  0.96678  0.48750  1.0000
  Fe  Fe52      1.0  0.23456  0.61523  0.72451  1.0000
  H   H409      1.0  0.22139  0.62452  0.50008  1.0000
  H   H410      1.0  0.22564  0.53130  0.80821  1.0000
  C   C352      1.0  0.19253  0.65427  0.59847  1.0000
  H   H411      1.0  0.21611  0.58788  0.77793  1.0000
  H   H412      1.0  0.24310  0.60923  0.52865  1.0000
  H   H413      1.0  0.22300  0.95980  0.95002  1.0000
  H   H414      1.0  0.22973  0.76516  0.71957  1.0000
  C   C353      1.0  0.21623  0.65513  0.57909  1.0000
  C   C354      1.0  0.21199  0.60307  0.95422  1.0000
  H   H415      1.0  0.11994  0.54833  0.96340  1.0000
  H   H416      1.0  0.14510  0.95516  0.48776  1.0000
  H   H417      1.0  0.02192  0.59579  0.75955  1.0000
  H   H418      1.0  0.00043  0.92416  0.89878  1.0000
  H   H419      1.0  0.20074  0.67075  0.96647  1.0000
  C   C355      1.0  0.22116  0.91356  0.83744  1.0000
  C   C356      1.0  0.14418  0.87473  0.48578  1.0000
  C   C357      1.0  0.00218  0.78437  0.84358  1.0000
  H   H420      1.0  0.23764  0.94678  0.73322  1.0000
  H   H421      1.0  0.21023  0.91559  0.97195  1.0000
  H   H422      1.0  0.24559  0.86798  0.73955  1.0000
  H   H423      1.0  0.12626  0.63304  0.47665  1.0000
  H   H424      1.0  0.00420  0.64517  0.75021  1.0000
  C   C358      1.0  0.99994  0.73449  0.84112  1.0000
  C   C359      1.0  0.18812  0.59650  0.97165  1.0000
  H   H425      1.0  0.09235  0.79856  0.95559  1.0000
  H   H426      1.0  0.14140  0.73573  0.96743  1.0000
  C   C360      1.0  0.24550  0.91018  0.77973  1.0000
  C   C361      1.0  0.18717  0.92202  0.97077  1.0000
  H   H427      1.0  0.12858  0.78515  0.95267  1.0000
  H   H428      1.0  0.17623  0.90255  0.96812  1.0000
  N   N23       1.0  0.09829  0.75440  0.96701  1.0000
  C   C362      1.0  0.10836  0.78313  0.96582  1.0000
  H   H429      1.0  0.00001  0.56799  0.75175  1.0000
  H   H430      1.0  0.14318  0.85225  0.48579  1.0000
  H   H431      1.0  0.99908  0.63896  0.71253  1.0000
  S   S95       1.0  0.48547  0.33398  0.08762  1.0000
  H   H432      1.0  0.41988  0.30929  0.45350  1.0000
  S   S96       1.0  0.32697  0.46118  0.40478  1.0000
  H   H433      1.0  0.27191  0.42893  0.04180  1.0000
  C   C363      1.0  0.44046  0.31912  0.45480  1.0000
  H   H434      1.0  0.27358  0.35893  0.01217  1.0000
  S   S97       1.0  0.32813  0.43968  0.02322  1.0000
  S   S98       1.0  0.29358  0.00578  0.02561  1.0000
  H   H435      1.0  0.45464  0.30875  0.22956  1.0000
  S   S99       1.0  0.44768  0.40058  0.43819  1.0000
  S   S100      1.0  0.47789  0.34362  0.38629  1.0000
  H   H436      1.0  0.35040  0.43798  0.46135  1.0000
  C   C364      1.0  0.38467  0.47993  0.09715  1.0000
  S   S101      1.0  0.46040  0.41458  0.04980  1.0000
  H   H437      1.0  0.37558  0.44338  0.36961  1.0000
  H   H438      1.0  0.46340  0.31554  0.32922  1.0000
  C   C365      1.0  0.27423  0.37644  0.02683  1.0000
  C   C366      1.0  0.49236  0.36143  0.21174  1.0000
  H   H439      1.0  0.39788  0.41557  0.47334  1.0000
  H   H440      1.0  0.49020  0.27832  0.20417  1.0000
  H   H441      1.0  0.45714  0.30721  0.44203  1.0000
  Fe  Fe53      1.0  0.31899  0.99867  0.98313  1.0000
  H   H442      1.0  0.48357  0.24600  0.36081  1.0000
  C   C367      1.0  0.36524  0.43268  0.02912  1.0000
  C   C368      1.0  0.37514  0.40580  0.04029  1.0000
  C   C369      1.0  0.40416  0.39961  0.04620  1.0000
  C   C370      1.0  0.42372  0.42033  0.04118  1.0000
  C   C371      1.0  0.41386  0.44704  0.02948  1.0000
  C   C372      1.0  0.38493  0.45308  0.02321  1.0000
  H   H443      1.0  0.36025  0.38968  0.04468  1.0000
  H   H444      1.0  0.41130  0.37894  0.05503  1.0000
  H   H445      1.0  0.42870  0.46321  0.02518  1.0000
  C   C373      1.0  0.43072  0.45928  0.11394  1.0000
  C   C374      1.0  0.35955  0.44247  0.41464  1.0000
  C   C375      1.0  0.36602  0.43421  0.44389  1.0000
  C   C376      1.0  0.39299  0.42137  0.45061  1.0000
  C   C377      1.0  0.41368  0.41607  0.42824  1.0000
  C   C378      1.0  0.40701  0.42383  0.39898  1.0000
  C   C379      1.0  0.38023  0.43710  0.39231  1.0000
  H   H446      1.0  0.35342  0.44832  0.09400  1.0000
  H   H447      1.0  0.42263  0.42001  0.38150  1.0000
  C   C380      1.0  0.46783  0.29437  0.27323  1.0000
  H   H448      1.0  0.47389  0.35573  0.47371  1.0000
  C   C381      1.0  0.25620  0.41159  0.99122  1.0000
  H   H449      1.0  0.44484  0.03426  0.00509  1.0000
  H   H450      1.0  0.47957  0.37046  0.19384  1.0000
  H   H451      1.0  0.39597  0.01777  0.00410  1.0000
  C   C382      1.0  0.46885  0.29451  0.24246  1.0000
  H   H452      1.0  0.38445  0.40856  0.11024  1.0000
  H   H453      1.0  0.27744  0.42065  0.98956  1.0000
  C   C383      1.0  0.43253  0.03891  0.98559  1.0000
  H   H454      1.0  0.37783  0.47343  0.01357  1.0000
  N   N24       1.0  0.48670  0.27604  0.32323  1.0000
  C   C384      1.0  0.46235  0.29282  0.33599  1.0000
  S   S102      1.0  0.49055  0.36499  0.30139  1.0000
  C   C385      1.0  0.48696  0.27664  0.29061  1.0000
  H   H455      1.0  0.44474  0.26647  0.46625  1.0000
  Fe  Fe54      1.0  0.49075  0.37767  0.06634  1.0000
  H   H456      1.0  0.27389  0.36748  0.05001  1.0000
  H   H457      1.0  0.44172  0.28573  0.32928  1.0000
  H   H458      1.0  0.43418  0.41451  0.12213  1.0000
  H   H459      1.0  0.46789  0.38315  0.24510  1.0000
  N   N25       1.0  0.25055  0.39773  0.02094  1.0000
  C   C386      1.0  0.48519  0.24686  0.33625  1.0000
  Fe  Fe55      1.0  0.48438  0.38228  0.40936  1.0000
  C   C387      1.0  0.37460  0.45254  0.09982  1.0000
  H   H460      1.0  0.43794  0.34033  0.44311  1.0000
  H   H461      1.0  0.29534  0.38562  0.02311  1.0000
  Fe  Fe56      1.0  0.28573  0.47610  0.42893  1.0000
  H   H462      1.0  0.45259  0.46176  0.11908  1.0000
  H   H463      1.0  0.46216  0.29112  0.36053  1.0000
  C   C388      1.0  0.39227  0.42937  0.10921  1.0000
  H   H464      1.0  0.48209  0.46952  0.04134  1.0000
  C   C389      1.0  0.42032  0.43268  0.11594  1.0000
  H   H465      1.0  0.45241  0.30901  0.28271  1.0000
  H   H466      1.0  0.46645  0.23697  0.32834  1.0000
  C   C390      1.0  0.40476  0.02948  0.98509  1.0000
  C   C391      1.0  0.48570  0.36848  0.24095  1.0000
  C   C392      1.0  0.48895  0.27739  0.22808  1.0000
  C   C393      1.0  0.25108  0.41930  0.04255  1.0000
  H   H467      1.0  0.49266  0.32204  0.47353  1.0000
  Fe  Fe57      1.0  0.25465  0.00120  0.99889  1.0000
  Fe  Fe58      1.0  0.30013  0.48033  0.01346  1.0000
  S   S103      1.0  0.47984  0.06563  0.96324  1.0000
  S   S104      1.0  0.27959  0.99747  0.95629  1.0000
  H   H468      1.0  0.46423  0.22045  0.54711  1.0000
  H   H469      1.0  0.46933  0.26408  0.57122  1.0000
  Fe  Fe59      1.0  0.32583  0.01737  0.54083  1.0000
  S   S105      1.0  0.36718  0.03812  0.52732  1.0000
  H   H470      1.0  0.48321  0.33722  0.50762  1.0000
  S   S106      1.0  0.30600  0.01396  0.58620  1.0000
  S   S107      1.0  0.28402  0.02999  0.51981  1.0000
  S   S108      1.0  0.49426  0.13145  0.90368  1.0000
  C   C394      1.0  0.46286  0.26518  0.54854  1.0000
  S   S109      1.0  0.45240  0.09668  0.60624  1.0000
  H   H471      1.0  0.28749  0.14397  0.56261  1.0000
  C   C395      1.0  0.28649  0.12789  0.58147  1.0000
  H   H472      1.0  0.45060  0.01860  0.57111  1.0000
  C   C396      1.0  0.45176  0.29298  0.50244  1.0000
  C   C397      1.0  0.48501  0.18118  0.75142  1.0000
  N   N26       1.0  0.44850  0.32067  0.48586  1.0000
  C   C398      1.0  0.47571  0.33448  0.48526  1.0000
  H   H473      1.0  0.42251  0.35924  0.48755  1.0000
  C   C399      1.0  0.30407  0.09082  0.55200  1.0000
  H   H474      1.0  0.39730  0.12746  0.53349  1.0000
  H   H475      1.0  0.47378  0.16705  0.73913  1.0000
  C   C400      1.0  0.39152  0.05291  0.54984  1.0000
  C   C401      1.0  0.38707  0.05351  0.58033  1.0000
  C   C402      1.0  0.40616  0.06664  0.59716  1.0000
  C   C403      1.0  0.43023  0.07891  0.58391  1.0000
  C   C404      1.0  0.43519  0.07753  0.55353  1.0000
  C   C405      1.0  0.41586  0.06470  0.53662  1.0000
  H   H476      1.0  0.36887  0.04400  0.59093  1.0000
  H   H477      1.0  0.40218  0.06747  0.62065  1.0000
  H   H478      1.0  0.45360  0.08681  0.54299  1.0000
  H   H479      1.0  0.41968  0.06416  0.51308  1.0000
  H   H480      1.0  0.33334  0.13260  0.62191  1.0000
  C   C406      1.0  0.33740  0.11808  0.57748  1.0000
  H   H481      1.0  0.28306  0.08139  0.55367  1.0000
  C   C407      1.0  0.44446  0.05455  0.96127  1.0000
  C   C408      1.0  0.42815  0.06042  0.93627  1.0000
  H   H482      1.0  0.41268  0.14829  0.57780  1.0000
  H   H483      1.0  0.44955  0.18690  0.83507  1.0000
  S   S110      1.0  0.35363  0.02315  0.95739  1.0000
  C   C409      1.0  0.30740  0.08501  0.60443  1.0000
  H   H484      1.0  0.28778  0.13876  0.60206  1.0000
  N   N27       1.0  0.30943  0.10562  0.57860  1.0000
  Fe  Fe60      1.0  0.49560  0.11622  0.59919  1.0000
  H   H485      1.0  0.32547  0.06899  0.60411  1.0000
  H   H486      1.0  0.45164  0.22222  0.49487  1.0000
  H   H487      1.0  0.43214  0.34369  0.52270  1.0000
  C   C410      1.0  0.38849  0.03532  0.96005  1.0000
  C   C411      1.0  0.42626  0.33869  0.50038  1.0000
  H   H488      1.0  0.35162  0.10761  0.53273  1.0000
  H   H489      1.0  0.30380  0.10519  0.53170  1.0000
  C   C412      1.0  0.45338  0.99692  0.56570  1.0000
  C   C413      1.0  0.34657  0.13118  0.60216  1.0000
  C   C414      1.0  0.45871  0.29107  0.53265  1.0000
  C   C415      1.0  0.44900  0.26733  0.48927  1.0000
  H   H490      1.0  0.28741  0.07378  0.60479  1.0000
  C   C416      1.0  0.45989  0.24050  0.53501  1.0000
  H   H491      1.0  0.38049  0.15090  0.62160  1.0000
  H   H492      1.0  0.43688  0.07231  0.91735  1.0000
  H   H493      1.0  0.46176  0.30957  0.54402  1.0000
  C   C417      1.0  0.35629  0.11757  0.55238  1.0000
  C   C418      1.0  0.39149  0.14082  0.57737  1.0000
  C   C419      1.0  0.40048  0.05078  0.93567  1.0000
  H   H494      1.0  0.40574  0.32841  0.50255  1.0000
  C   C420      1.0  0.38281  0.12897  0.55244  1.0000
  H   H495      1.0  0.46551  0.23636  0.82946  1.0000
  C   C421      1.0  0.37336  0.14205  0.60213  1.0000
  H   H496      1.0  0.49343  0.09961  0.76660  1.0000
  H   H497      1.0  0.40938  0.99391  0.55945  1.0000
  C   C422      1.0  0.45285  0.24158  0.50551  1.0000
  H   H498      1.0  0.46637  0.16648  0.79203  1.0000
  H   H499      1.0  0.32036  0.07339  0.54885  1.0000
  H   H500      1.0  0.30746  0.09481  0.62575  1.0000
  Fe  Fe61      1.0  0.26358  0.02308  0.56505  1.0000
  H   H501      1.0  0.38822  0.05545  0.91614  1.0000
  H   H502      1.0  0.26509  0.11915  0.58191  1.0000
  Fe  Fe62      1.0  0.27949  0.98404  0.51587  1.0000
  S   S111      1.0  0.26922  0.46932  0.47599  1.0000
  C   C423      1.0  0.47066  0.18064  0.84428  1.0000
  C   C424      1.0  0.48090  0.18115  0.78202  1.0000
  H   H503      1.0  0.46829  0.18174  0.86864  1.0000
  H   H504      1.0  0.47601  0.15819  0.84055  1.0000
  H   H505      1.0  0.48202  0.22811  0.86437  1.0000
  C   C425      1.0  0.49620  0.19866  0.79881  1.0000
  N   N28       1.0  0.49294  0.19881  0.83131  1.0000
  C   C426      1.0  0.48535  0.22763  0.83999  1.0000
  C   C427      1.0  0.42985  0.98246  0.55928  1.0000
  C   C428      1.0  0.48048  0.98373  0.56480  1.0000
  H   H506      1.0  0.25596  0.39658  0.97375  1.0000
  S   S112      1.0  0.45384  0.76603  0.35262  1.0000
  H   H507      1.0  0.31507  0.86495  0.45250  1.0000
  S   S113      1.0  0.27689  0.52285  0.42695  1.0000
  C   C429      1.0  0.35460  0.90537  0.20472  1.0000
  Fe  Fe63      1.0  0.27314  0.53513  0.03746  1.0000
  S   S114      1.0  0.28543  0.56634  0.07074  1.0000
  C   C430      1.0  0.43916  0.91600  0.28936  1.0000
  H   H508      1.0  0.30435  0.55453  0.36480  1.0000
  S   S115      1.0  0.30359  0.92745  0.07434  1.0000
  C   C431      1.0  0.34306  0.65160  0.99693  1.0000
  Fe  Fe64      1.0  0.30980  0.84268  0.28724  1.0000
  S   S116      1.0  0.31744  0.88853  0.28256  1.0000
  S   S117      1.0  0.34520  0.80939  0.27809  1.0000
  H   H509      1.0  0.32280  0.88788  0.03059  1.0000
  C   C432      1.0  0.37155  0.81338  0.04298  1.0000
  Fe  Fe65      1.0  0.28931  0.89197  0.32350  1.0000
  S   S118      1.0  0.30950  0.91101  0.36186  1.0000
  H   H510      1.0  0.33733  0.85326  0.38171  1.0000
  S   S119      1.0  0.28380  0.84574  0.32906  1.0000
  H   H511      1.0  0.26687  0.75146  0.38039  1.0000
  S   S120      1.0  0.29664  0.65578  0.44800  1.0000
  C   C433      1.0  0.28822  0.54326  0.27099  1.0000
  H   H512      1.0  0.36150  0.71336  0.43508  1.0000
  S   S121      1.0  0.27204  0.74972  0.20664  1.0000
  H   H513      1.0  0.35565  0.91905  0.18395  1.0000
  C   C434      1.0  0.38527  0.71100  0.00029  1.0000
  H   H514      1.0  0.39935  0.77934  0.02864  1.0000
  Fe  Fe66      1.0  0.43486  0.76408  0.19679  1.0000
  S   S122      1.0  0.41643  0.80799  0.19290  1.0000
  S   S123      1.0  0.40640  0.72743  0.20357  1.0000
  S   S124      1.0  0.25063  0.67040  0.23160  1.0000
  C   C435      1.0  0.41884  0.91875  0.31228  1.0000
  Fe  Fe67      1.0  0.45201  0.81764  0.22122  1.0000
  S   S125      1.0  0.43803  0.84705  0.25659  1.0000
  C   C436      1.0  0.36454  0.68953  0.12095  1.0000
  S   S126      1.0  0.46910  0.77291  0.22733  1.0000
  Fe  Fe68      1.0  0.46807  0.83722  0.42768  1.0000
  C   C437      1.0  0.45991  0.61264  0.46452  1.0000
  S   S127      1.0  0.27932  0.66849  0.37915  1.0000
  Fe  Fe69      1.0  0.30879  0.68472  0.41010  1.0000
  S   S128      1.0  0.30792  0.72991  0.42020  1.0000
  Fe  Fe70      1.0  0.31479  0.63714  0.36727  1.0000
  S   S129      1.0  0.30279  0.60518  0.40431  1.0000
  S   S130      1.0  0.33289  0.62743  0.32063  1.0000
  Fe  Fe71      1.0  0.26819  0.63773  0.41723  1.0000
  Fe  Fe72      1.0  0.33235  0.62736  0.43187  1.0000
  H   H515      1.0  0.27162  0.89289  0.46228  1.0000
  S   S131      1.0  0.34575  0.65741  0.39494  1.0000
  Fe  Fe73      1.0  0.31234  0.59819  0.08314  1.0000
  S   S132      1.0  0.31171  0.63521  0.10761  1.0000
  S   S133      1.0  0.35445  0.59493  0.05754  1.0000
  Fe  Fe74      1.0  0.27667  0.60412  0.14396  1.0000
  S   S134      1.0  0.28092  0.60664  0.19523  1.0000
  Fe  Fe75      1.0  0.26376  0.64830  0.07578  1.0000
  H   H516      1.0  0.33717  0.49073  0.45937  1.0000
  S   S135      1.0  0.29705  0.56175  0.12563  1.0000
  S   S136      1.0  0.27241  0.61629  0.04692  1.0000
  H   H517      1.0  0.39809  0.91002  0.41350  1.0000
  C   C438      1.0  0.45580  0.90968  0.34781  1.0000
  H   H518      1.0  0.45693  0.70102  0.00688  1.0000
  C   C439      1.0  0.42888  0.73400  0.42563  1.0000
  H   H519      1.0  0.36228  0.66787  0.11711  1.0000
  C   C440      1.0  0.27008  0.75231  0.35668  1.0000
  C   C441      1.0  0.31763  0.62241  0.28591  1.0000
  C   C442      1.0  0.33493  0.62373  0.25996  1.0000
  C   C443      1.0  0.32411  0.61916  0.23221  1.0000
  C   C444      1.0  0.29583  0.61246  0.22992  1.0000
  C   C445      1.0  0.27876  0.61053  0.25601  1.0000
  C   C446      1.0  0.28947  0.61568  0.28361  1.0000
  H   H520      1.0  0.35687  0.62840  0.26125  1.0000
  H   H521      1.0  0.33764  0.62072  0.21253  1.0000
  H   H522      1.0  0.25683  0.60553  0.25478  1.0000
  H   H523      1.0  0.27592  0.61419  0.30316  1.0000
  C   C447      1.0  0.44029  0.57662  0.09881  1.0000
  C   C448      1.0  0.43839  0.58337  0.06859  1.0000
  C   C449      1.0  0.41185  0.58986  0.05641  1.0000
  C   C450      1.0  0.38721  0.59059  0.07449  1.0000
  C   C451      1.0  0.38923  0.58582  0.10502  1.0000
  C   C452      1.0  0.41578  0.57816  0.11714  1.0000
  H   H524      1.0  0.32437  0.50482  0.35586  1.0000
  H   H525      1.0  0.37023  0.58675  0.11908  1.0000
  H   H526      1.0  0.41731  0.57324  0.14062  1.0000
  H   H527      1.0  0.35391  0.72310  0.26799  1.0000
  C   C453      1.0  0.26831  0.54287  0.24906  1.0000
  H   H528      1.0  0.27919  0.97007  0.11372  1.0000
  C   C454      1.0  0.42643  0.91498  0.34227  1.0000
  Fe  Fe76      1.0  0.27763  0.89370  0.25634  1.0000
  C   C455      1.0  0.45233  0.84151  0.29198  1.0000
  H   H529      1.0  0.49544  0.83404  0.27611  1.0000
  H   H530      1.0  0.29683  0.88081  0.17463  1.0000
  C   C456      1.0  0.47525  0.83915  0.34859  1.0000
  H   H531      1.0  0.33057  0.80729  0.15930  1.0000
  H   H532      1.0  0.30427  0.69293  0.00082  1.0000
  H   H533      1.0  0.41804  0.67460  0.16865  1.0000
  N   N29       1.0  0.34633  0.67710  0.01285  1.0000
  H   H534      1.0  0.41736  0.86823  0.19499  1.0000
  H   H535      1.0  0.42738  0.69976  0.07708  1.0000
  H   H536      1.0  0.43277  0.91749  0.26667  1.0000
  C   C457      1.0  0.30922  0.74257  0.20580  1.0000
  C   C458      1.0  0.32666  0.76505  0.20623  1.0000
  C   C459      1.0  0.35634  0.76059  0.20588  1.0000
  C   C460      1.0  0.36900  0.73358  0.20461  1.0000
  C   C461      1.0  0.35154  0.71092  0.20438  1.0000
  C   C462      1.0  0.32172  0.71537  0.20498  1.0000
  H   H537      1.0  0.31711  0.78598  0.20792  1.0000
  H   H538      1.0  0.36928  0.77809  0.20724  1.0000
  H   H539      1.0  0.36102  0.68989  0.20335  1.0000
  H   H540      1.0  0.30848  0.69781  0.20449  1.0000
  C   C463      1.0  0.29447  0.92748  0.39314  1.0000
  C   C464      1.0  0.34213  0.82612  0.15631  1.0000
  H   H541      1.0  0.32545  0.48827  0.09501  1.0000
  C   C465      1.0  0.27289  0.95495  0.44331  1.0000
  H   H542      1.0  0.33513  0.92911  0.41280  1.0000
  C   C466      1.0  0.30196  0.94824  0.43974  1.0000
  C   C467      1.0  0.35346  0.81906  0.98516  1.0000
  C   C468      1.0  0.43781  0.78877  0.08357  1.0000
  S   S137      1.0  0.32319  0.95177  0.99266  1.0000
  H   H543      1.0  0.43226  0.84540  0.36469  1.0000
  C   C469      1.0  0.29435  0.92691  0.11309  1.0000
  S   S138      1.0  0.42558  0.82160  0.44294  1.0000
  H   H544      1.0  0.46348  0.51007  0.43241  1.0000
  C   C470      1.0  0.28224  0.92416  0.17540  1.0000
  C   C471      1.0  0.44487  0.81670  0.08287  1.0000
  C   C472      1.0  0.41377  0.88608  0.98261  1.0000
  C   C473      1.0  0.26509  0.59870  0.10490  1.0000
  H   H545      1.0  0.37774  0.87344  0.25035  1.0000
  H   H546      1.0  0.35115  0.56452  0.44658  1.0000
  C   C474      1.0  0.26106  0.63166  0.11686  1.0000
  C   C475      1.0  0.25467  0.94798  0.42153  1.0000
  H   H547      1.0  0.26760  0.61362  0.10462  1.0000
  H   H548      1.0  0.34747  0.85856  0.23734  1.0000
  H   H549      1.0  0.44285  0.65449  0.02699  1.0000
  H   H550      1.0  0.31889  0.79547  0.45458  1.0000
  H   H551      1.0  0.26750  0.76870  0.44660  1.0000
  C   C476      1.0  0.34092  0.83764  0.00549  1.0000
  H   H552      1.0  0.46664  0.84955  0.05854  1.0000
  C   C477      1.0  0.42408  0.77879  0.33147  1.0000
  C   C478      1.0  0.39986  0.79102  0.34569  1.0000
  C   C479      1.0  0.37605  0.80156  0.32950  1.0000
  C   C480      1.0  0.37574  0.79903  0.29906  1.0000
  C   C481      1.0  0.39957  0.78597  0.28507  1.0000
  C   C482      1.0  0.42376  0.77640  0.30104  1.0000
  H   H553      1.0  0.39993  0.79303  0.36917  1.0000
  H   H554      1.0  0.35788  0.81146  0.34048  1.0000
  H   H555      1.0  0.39964  0.78381  0.26157  1.0000
  H   H556      1.0  0.44226  0.76739  0.28974  1.0000
  C   C483      1.0  0.36994  0.86267  0.23165  1.0000
  H   H557      1.0  0.33200  0.90053  0.20873  1.0000
  H   H558      1.0  0.33849  0.53440  0.43186  1.0000
  N   N30       1.0  0.43425  0.67684  0.27514  1.0000
  C   C484      1.0  0.45460  0.65292  0.26931  1.0000
  C   C485      1.0  0.40848  0.67440  0.25813  1.0000
  C   C486      1.0  0.44752  0.70290  0.26363  1.0000
  C   C487      1.0  0.42674  0.67612  0.30704  1.0000
  C   C488      1.0  0.43257  0.69796  0.32502  1.0000
  C   C489      1.0  0.41387  0.65255  0.32126  1.0000
  C   C490      1.0  0.42621  0.69596  0.35531  1.0000
  H   H559      1.0  0.36711  0.53743  0.05154  1.0000
  C   C491      1.0  0.41415  0.67230  0.36862  1.0000
  H   H560      1.0  0.44530  0.63239  0.27448  1.0000
  H   H561      1.0  0.46179  0.65349  0.24572  1.0000
  H   H562      1.0  0.47380  0.65331  0.28269  1.0000
  H   H563      1.0  0.39759  0.65496  0.26443  1.0000
  H   H564      1.0  0.41365  0.67422  0.23408  1.0000
  H   H565      1.0  0.39300  0.69244  0.26118  1.0000
  H   H566      1.0  0.46778  0.70563  0.27454  1.0000
  H   H567      1.0  0.45290  0.70280  0.23960  1.0000
  H   H568      1.0  0.43296  0.72179  0.26632  1.0000
  H   H569      1.0  0.44220  0.71681  0.31634  1.0000
  H   H570      1.0  0.40848  0.63521  0.30909  1.0000
  H   H571      1.0  0.43076  0.71295  0.36847  1.0000
  H   H572      1.0  0.34080  0.53180  0.29761  1.0000
  S   S139      1.0  0.25886  0.69080  0.05016  1.0000
  C   C492      1.0  0.29317  0.90039  0.16163  1.0000
  C   C493      1.0  0.29723  0.83897  0.42125  1.0000
  N   N31       1.0  0.36679  0.50497  0.08708  1.0000
  C   C494      1.0  0.29909  0.90181  0.13082  1.0000
  H   H573      1.0  0.38205  0.52920  0.12076  1.0000
  C   C495      1.0  0.36193  0.52349  0.11161  1.0000
  H   H574      1.0  0.41209  0.84950  0.31451  1.0000
  H   H575      1.0  0.47895  0.75202  0.44848  1.0000
  H   H576      1.0  0.40002  0.53110  0.06920  1.0000
  S   S140      1.0  0.49267  0.81029  0.46151  1.0000
  H   H577      1.0  0.34293  0.84782  0.05166  1.0000
  C   C496      1.0  0.43463  0.84531  0.31707  1.0000
  C   C497      1.0  0.28947  0.55196  0.34698  1.0000
  N   N32       1.0  0.31829  0.71771  0.29857  1.0000
  C   C498      1.0  0.30488  0.69912  0.27919  1.0000
  C   C499      1.0  0.33789  0.73559  0.28071  1.0000
  C   C500      1.0  0.33578  0.69960  0.31961  1.0000
  C   C501      1.0  0.29600  0.73564  0.31289  1.0000
  C   C502      1.0  0.29168  0.73538  0.34395  1.0000
  H   H578      1.0  0.40949  0.67078  0.39213  1.0000
  C   C503      1.0  0.30811  0.50511  0.33873  1.0000
  H   H579      1.0  0.27301  0.55186  0.22694  1.0000
  H   H580      1.0  0.28905  0.49652  0.35030  1.0000
  H   H581      1.0  0.29288  0.71098  0.26136  1.0000
  H   H582      1.0  0.32084  0.68496  0.26815  1.0000
  H   H583      1.0  0.28972  0.68558  0.29200  1.0000
  H   H584      1.0  0.48559  0.74341  0.41064  1.0000
  H   H585      1.0  0.26857  0.96771  0.16777  1.0000
  H   H586      1.0  0.32676  0.75026  0.26448  1.0000
  H   H587      1.0  0.32249  0.68496  0.33320  1.0000
  H   H588      1.0  0.35210  0.68626  0.30799  1.0000
  H   H589      1.0  0.34730  0.71213  0.33441  1.0000
  H   H590      1.0  0.30467  0.72220  0.35889  1.0000
  C   C504      1.0  0.32652  0.69950  0.99976  1.0000
  C   C505      1.0  0.38315  0.79540  0.02239  1.0000
  H   H591      1.0  0.30497  0.78580  0.40293  1.0000
  H   H592      1.0  0.34466  0.54485  0.33306  1.0000
  N   N33       1.0  0.41859  0.68351  0.12162  1.0000
  S   S141      1.0  0.46334  0.76966  0.15641  1.0000
  H   H593      1.0  0.43922  0.75195  0.41565  1.0000
  H   H594      1.0  0.33199  0.70474  0.97609  1.0000
  C   C506      1.0  0.39147  0.70063  0.12372  1.0000
  C   C507      1.0  0.29698  0.73362  0.45711  1.0000
  C   C508      1.0  0.39147  0.72927  0.12957  1.0000
  Fe  Fe77      1.0  0.44705  0.81434  0.15496  1.0000
  C   C509      1.0  0.36621  0.74583  0.13228  1.0000
  C   C510      1.0  0.34018  0.73427  0.12972  1.0000
  H   H595      1.0  0.34105  0.82391  0.45859  1.0000
  H   H596      1.0  0.45597  0.61289  0.41745  1.0000
  C   C511      1.0  0.41400  0.71683  0.99893  1.0000
  C   C512      1.0  0.33713  0.67148  0.04408  1.0000
  H   H597      1.0  0.30778  0.55280  0.26436  1.0000
  C   C513      1.0  0.39740  0.90887  0.03574  1.0000
  H   H598      1.0  0.47902  0.66732  0.42509  1.0000
  H   H599      1.0  0.43085  0.92448  0.40190  1.0000
  S   S142      1.0  0.43472  0.83730  0.11213  1.0000
  H   H600      1.0  0.38378  0.78479  0.97729  1.0000
  H   H601      1.0  0.41101  0.73878  0.13340  1.0000
  H   H602      1.0  0.32579  0.51803  0.06964  1.0000
  H   H603      1.0  0.36690  0.76736  0.13783  1.0000
  H   H604      1.0  0.32057  0.74680  0.13311  1.0000
  N   N34       1.0  0.47542  0.70856  0.44148  1.0000
  H   H605      1.0  0.29599  0.86254  0.03670  1.0000
  H   H606      1.0  0.43971  0.70258  0.15580  1.0000
  C   C514      1.0  0.39936  0.73483  0.42393  1.0000
  H   H607      1.0  0.28321  0.57321  0.33691  1.0000
  H   H608      1.0  0.34920  0.51344  0.13005  1.0000
  S   S143      1.0  0.47320  0.56541  0.11330  1.0000
  C   C515      1.0  0.25649  0.77127  0.30853  1.0000
  C   C516      1.0  0.44412  0.71056  0.43973  1.0000
  H   H609      1.0  0.43828  0.66934  0.46169  1.0000
  H   H610      1.0  0.36576  0.82987  0.39595  1.0000
  H   H611      1.0  0.36043  0.91780  0.22305  1.0000
  H   H612      1.0  0.40655  0.90330  0.18165  1.0000
  H   H613      1.0  0.38183  0.89424  0.14394  1.0000
  H   H614      1.0  0.42055  0.73712  0.99007  1.0000
  H   H615      1.0  0.41035  0.59340  0.03275  1.0000
  N   N35       1.0  0.37300  0.87935  0.20304  1.0000
  C   C517      1.0  0.39850  0.92626  0.00971  1.0000
  H   H616      1.0  0.41072  0.89507  0.21993  1.0000
  H   H617      1.0  0.48165  0.69570  0.39733  1.0000
  H   H618      1.0  0.38233  0.84219  0.23157  1.0000
  C   C518      1.0  0.46967  0.81160  0.03578  1.0000
  H   H619      1.0  0.34934  0.74874  0.29489  1.0000
  S   S144      1.0  0.27414  0.92393  0.21437  1.0000
  H   H620      1.0  0.35082  0.85726  0.41740  1.0000
  C   C519      1.0  0.29633  0.86024  0.44142  1.0000
  H   H621      1.0  0.35452  0.79485  0.43919  1.0000
  C   C520      1.0  0.40308  0.88685  0.19959  1.0000
  H   H622      1.0  0.32051  0.64588  0.99732  1.0000
  C   C521      1.0  0.41318  0.48264  0.10491  1.0000
  H   H623      1.0  0.43588  0.64218  0.11200  1.0000
  N   N36       1.0  0.31991  0.86022  0.99545  1.0000
  Fe  Fe78      1.0  0.29523  0.95848  0.03361  1.0000
  C   C522      1.0  0.48383  0.69825  0.47178  1.0000
  H   H624      1.0  0.29062  0.89263  0.01152  1.0000
  H   H625      1.0  0.25113  0.92933  0.37993  1.0000
  H   H626      1.0  0.35492  0.63283  0.00703  1.0000
  C   C523      1.0  0.36484  0.86439  0.17759  1.0000
  C   C524      1.0  0.37121  0.87504  0.14833  1.0000
  C   C525      1.0  0.33850  0.49858  0.07703  1.0000
  H   H627      1.0  0.34412  0.82588  0.10912  1.0000
  H   H628      1.0  0.40490  0.65394  0.09226  1.0000
  C   C526      1.0  0.32124  0.80036  0.39456  1.0000
  C   C527      1.0  0.46762  0.91001  0.29556  1.0000
  H   H629      1.0  0.39258  0.94817  0.01175  1.0000
  N   N37       1.0  0.30226  0.53364  0.32454  1.0000
  S   S145      1.0  0.46414  0.87435  0.45517  1.0000
  H   H630      1.0  0.36975  0.86946  0.10198  1.0000
  C   C528      1.0  0.40784  0.65070  0.35159  1.0000
  H   H631      1.0  0.34322  0.83025  0.20217  1.0000
  C   C529      1.0  0.46066  0.82813  0.05888  1.0000
  H   H632      1.0  0.41885  0.84676  0.00850  1.0000
  C   C530      1.0  0.34949  0.83970  0.18085  1.0000
  H   H633      1.0  0.27019  0.81981  0.39098  1.0000
  C   C531      1.0  0.36406  0.86111  0.12400  1.0000
  H   H634      1.0  0.32605  0.71881  0.01195  1.0000
  C   C532      1.0  0.43568  0.53357  0.46137  1.0000
  H   H635      1.0  0.39805  0.63242  0.36186  1.0000
  H   H636      1.0  0.45728  0.58232  0.05439  1.0000
  C   C533      1.0  0.44462  0.61332  0.43853  1.0000
  S   S146      1.0  0.30990  0.52569  0.00540  1.0000
  H   H637      1.0  0.27013  0.54341  0.35787  1.0000
  H   H638      1.0  0.46376  0.90608  0.36977  1.0000
  C   C534      1.0  0.33935  0.70622  0.12401  1.0000
  C   C535      1.0  0.42805  0.68804  0.45133  1.0000
  C   C536      1.0  0.43264  0.68193  0.15033  1.0000
  C   C537      1.0  0.34968  0.83661  0.12799  1.0000
  H   H639      1.0  0.40512  0.86715  0.05572  1.0000
  H   H640      1.0  0.31624  0.95406  0.45591  1.0000
  C   C538      1.0  0.32996  0.54468  0.31454  1.0000
  C   C539      1.0  0.41471  0.61440  0.43955  1.0000
  H   H641      1.0  0.30726  0.88323  0.12059  1.0000
  C   C540      1.0  0.41296  0.86897  0.00878  1.0000
  N   N38       1.0  0.40429  0.91660  0.36613  1.0000
  H   H642      1.0  0.31594  0.49016  0.32226  1.0000
  C   C541      1.0  0.38427  0.71265  0.43629  1.0000
  C   C542      1.0  0.27633  0.75457  0.46396  1.0000
  H   H643      1.0  0.36606  0.89653  0.38027  1.0000
  C   C543      1.0  0.44596  0.84323  0.34540  1.0000
  H   H644      1.0  0.37458  0.94775  0.38359  1.0000
  C   C544      1.0  0.42664  0.67034  0.01986  1.0000
  H   H645      1.0  0.42549  0.77997  0.10207  1.0000
  H   H646      1.0  0.45207  0.66752  0.15046  1.0000
  H   H647      1.0  0.37984  0.95132  0.34461  1.0000
  H   H648      1.0  0.48313  0.90667  0.27780  1.0000
  C   C545      1.0  0.44193  0.51359  0.44097  1.0000
  C   C546      1.0  0.44662  0.77232  0.06023  1.0000
  H   H649      1.0  0.40237  0.64258  0.13108  1.0000
  C   C547      1.0  0.39979  0.61439  0.46667  1.0000
  C   C548      1.0  0.29651  0.84843  0.98030  1.0000
  C   C549      1.0  0.40794  0.53792  0.47275  1.0000
  H   H650      1.0  0.33825  0.69030  0.05678  1.0000
  C   C550      1.0  0.38205  0.89695  0.36170  1.0000
  H   H651      1.0  0.44101  0.75082  0.06059  1.0000
  C   C551      1.0  0.38140  0.52058  0.06217  1.0000
  C   C552      1.0  0.27712  0.94915  0.15761  1.0000
  C   C553      1.0  0.27159  0.83513  0.40700  1.0000
  C   C554      1.0  0.33508  0.80863  0.44308  1.0000
  H   H652      1.0  0.38818  0.75279  0.41289  1.0000
  C   C555      1.0  0.48834  0.73578  0.43414  1.0000
  C   C556      1.0  0.39092  0.94542  0.36550  1.0000
  H   H653      1.0  0.36977  0.90286  0.34162  1.0000
  H   H654      1.0  0.42216  0.50290  0.10386  1.0000
  H   H655      1.0  0.31526  0.80933  0.37230  1.0000
  H   H656      1.0  0.40324  0.61465  0.41942  1.0000
  C   C557      1.0  0.41534  0.90944  0.39607  1.0000
  H   H657      1.0  0.37047  0.72764  0.99230  1.0000
  H   H658      1.0  0.39137  0.87530  0.35971  1.0000
  H   H659      1.0  0.45784  0.68391  0.09582  1.0000
  H   H660      1.0  0.37919  0.81137  0.06528  1.0000
  H   H661      1.0  0.42572  0.88789  0.39785  1.0000
  H   H662      1.0  0.48309  0.82023  0.01824  1.0000
  C   C558      1.0  0.26536  0.93432  0.39658  1.0000
  H   H663      1.0  0.39701  0.92314  0.30631  1.0000
  C   C559      1.0  0.47595  0.90720  0.32468  1.0000
  C   C560      1.0  0.42032  0.49849  0.43120  1.0000
  S   S147      1.0  0.49082  0.63671  0.07637  1.0000
  C   C561      1.0  0.35071  0.83429  0.03480  1.0000
  C   C562      1.0  0.31263  0.93440  0.41498  1.0000
  H   H664      1.0  0.31896  0.69716  0.12274  1.0000
  H   H665      1.0  0.35025  0.54342  0.10399  1.0000
  S   S148      1.0  0.48117  0.82818  0.18242  1.0000
  S   S149      1.0  0.27134  0.84739  0.25873  1.0000
  N   N39       1.0  0.32416  0.82251  0.41520  1.0000
  C   C563      1.0  0.39851  0.68934  0.45000  1.0000
  C   C564      1.0  0.28306  0.95055  0.12679  1.0000
  C   C565      1.0  0.37425  0.79834  0.99350  1.0000
  S   S150      1.0  0.47291  0.76306  0.00695  1.0000
  H   H666      1.0  0.34138  0.78739  0.39146  1.0000
  C   C566      1.0  0.34548  0.84152  0.40201  1.0000
  H   H667      1.0  0.27969  0.75563  0.27174  1.0000
  C   C567      1.0  0.28221  0.53267  0.30042  1.0000
  H   H668      1.0  0.28651  0.83171  0.99457  1.0000
  H   H669      1.0  0.31486  0.66505  0.04605  1.0000
  C   C568      1.0  0.43767  0.69673  0.09875  1.0000
  C   C569      1.0  0.25267  0.77033  0.33903  1.0000
  H   H670      1.0  0.35019  0.65414  0.05531  1.0000
  C   C570      1.0  0.46238  0.78381  0.03615  1.0000
  C   C571      1.0  0.30685  0.87632  0.01971  1.0000
  C   C572      1.0  0.41511  0.65438  0.11385  1.0000
  C   C573      1.0  0.40508  0.88039  0.03536  1.0000
  H   H671      1.0  0.44429  0.71735  0.10472  1.0000
  H   H672      1.0  0.39097  0.91765  0.05645  1.0000
  C   C574      1.0  0.48150  0.83640  0.29531  1.0000
  H   H673      1.0  0.34050  0.48515  0.05808  1.0000
  Fe  Fe79      1.0  0.25859  0.51595  0.47343  1.0000
  C   C575      1.0  0.39800  0.66435  0.02153  1.0000
  H   H674      1.0  0.32728  0.56677  0.30533  1.0000
  C   C576      1.0  0.27766  0.75415  0.29555  1.0000
  C   C577      1.0  0.37643  0.68432  0.01136  1.0000
  H   H675      1.0  0.31832  0.55130  0.46072  1.0000
  H   H676      1.0  0.40703  0.96101  0.36780  1.0000
  H   H677      1.0  0.49800  0.90165  0.32940  1.0000
  H   H678      1.0  0.38888  0.50654  0.04484  1.0000
  C   C578      1.0  0.34018  0.54503  0.45260  1.0000
  S   S151      1.0  0.36225  0.61399  0.46923  1.0000
  H   H679      1.0  0.39280  0.64380  0.03061  1.0000
  C   C579      1.0  0.43463  0.69651  0.00850  1.0000
  C   C580      1.0  0.25531  0.52147  0.30624  1.0000
  H   H680      1.0  0.26195  0.73713  0.00794  1.0000
  C   C581      1.0  0.48723  0.68849  0.42032  1.0000
  H   H681      1.0  0.48942  0.49665  0.01389  1.0000
  C   C582      1.0  0.27142  0.87646  0.44714  1.0000
  S   S152      1.0  0.49087  0.84104  0.38306  1.0000
  H   H682      1.0  0.38655  0.67210  0.45941  1.0000
  C   C583      1.0  0.39244  0.50318  0.44195  1.0000
  S   S153      1.0  0.26535  0.48934  0.04759  1.0000
  S   S154      1.0  0.49754  0.61104  0.46191  1.0000
  H   H683      1.0  0.24907  0.51339  0.32814  1.0000
  H   H684      1.0  0.45237  0.54596  0.46826  1.0000
  C   C584      1.0  0.38554  0.52222  0.46394  1.0000
  H   H685      1.0  0.35157  0.88990  0.98521  1.0000
  H   H686      1.0  0.49466  0.77730  0.09097  1.0000
  C   C585      1.0  0.49295  0.83597  0.32339  1.0000
  H   H687      1.0  0.37633  0.49200  0.43255  1.0000
  C   C586      1.0  0.33429  0.88017  0.97445  1.0000
  Fe  Fe80      1.0  0.49660  0.78263  0.18638  1.0000
  S   S155      1.0  0.24965  0.90126  0.29732  1.0000
  S   S156      1.0  0.25534  0.95463  0.00918  1.0000
  S   S157      1.0  0.27008  0.48280  0.97566  1.0000
  H   H688      1.0  0.42510  0.48314  0.41505  1.0000
  C   C587      1.0  0.40734  0.91541  0.98233  1.0000
  Fe  Fe81      1.0  0.42331  0.85657  0.47334  1.0000
  C   C588      1.0  0.24875  0.72241  0.99897  1.0000
  H   H689      1.0  0.26824  0.75159  0.61594  1.0000
  N   N40       1.0  0.35585  0.52696  0.47501  1.0000
  S   S158      1.0  0.26404  0.54949  0.64599  1.0000
  C   C589      1.0  0.44712  0.65371  0.77260  1.0000
  H   H690      1.0  0.47155  0.60420  0.59366  1.0000
  S   S159      1.0  0.45736  0.65259  0.68607  1.0000
  H   H691      1.0  0.40803  0.97670  0.93743  1.0000
  Fe  Fe82      1.0  0.29684  0.62557  0.71265  1.0000
  S   S160      1.0  0.30965  0.57967  0.71040  1.0000
  S   S161      1.0  0.32443  0.66267  0.71266  1.0000
  S   S162      1.0  0.27926  0.55961  0.92846  1.0000
  H   H692      1.0  0.31311  0.63576  0.86344  1.0000
  H   H693      1.0  0.40447  0.55402  0.48805  1.0000
  C   C590      1.0  0.38519  0.94177  0.56892  1.0000
  S   S163      1.0  0.25970  0.62535  0.68262  1.0000
  H   H694      1.0  0.37742  0.94161  0.51040  1.0000
  C   C591      1.0  0.33085  0.71061  0.81442  1.0000
  S   S164      1.0  0.47337  0.73240  0.67244  1.0000
  S   S165      1.0  0.26964  0.91872  0.93820  1.0000
  H   H695      1.0  0.38389  0.96951  0.96729  1.0000
  H   H696      1.0  0.30477  0.64674  0.81044  1.0000
  C   C592      1.0  0.26157  0.52423  0.56247  1.0000
  H   H697      1.0  0.27373  0.94054  0.79402  1.0000
  Fe  Fe83      1.0  0.34088  0.78015  0.77231  1.0000
  S   S166      1.0  0.30229  0.77026  0.74893  1.0000
  S   S167      1.0  0.38213  0.75679  0.75866  1.0000
  Fe  Fe84      1.0  0.30913  0.82935  0.80172  1.0000
  S   S168      1.0  0.26789  0.82119  0.78136  1.0000
  S   S169      1.0  0.32175  0.87034  0.81961  1.0000
  Fe  Fe85      1.0  0.27834  0.77460  0.79228  1.0000
  Fe  Fe86      1.0  0.29433  0.81652  0.73963  1.0000
  S   S170      1.0  0.28046  0.83456  0.69443  1.0000
  S   S171      1.0  0.31823  0.78334  0.81624  1.0000
  S   S172      1.0  0.33469  0.82600  0.75913  1.0000
  Fe  Fe87      1.0  0.45523  0.82670  0.91741  1.0000
  S   S173      1.0  0.46263  0.78000  0.92265  1.0000
  H   H698      1.0  0.35977  0.56276  0.50058  1.0000
  H   H699      1.0  0.33153  0.54218  0.51252  1.0000
  H   H700      1.0  0.39010  0.72281  0.59106  1.0000
  H   H701      1.0  0.32038  0.50320  0.49148  1.0000
  S   S174      1.0  0.26321  0.73874  0.55214  1.0000
  H   H702      1.0  0.36309  0.61591  0.69759  1.0000
  H   H703      1.0  0.29546  0.72612  0.85486  1.0000
  H   H704      1.0  0.35418  0.75896  0.57254  1.0000
  H   H705      1.0  0.27214  0.77959  0.67540  1.0000
  C   C593      1.0  0.38553  0.80790  0.59046  1.0000
  S   S175      1.0  0.26136  0.87624  0.54359  1.0000
  H   H706      1.0  0.38137  0.69570  0.63866  1.0000
  H   H707      1.0  0.36718  0.70261  0.71404  1.0000
  H   H708      1.0  0.38863  0.97491  0.51908  1.0000
  C   C594      1.0  0.27705  0.73807  0.51572  1.0000
  C   C595      1.0  0.35950  0.82320  0.59178  1.0000
  H   H709      1.0  0.31062  0.76916  0.60127  1.0000
  H   H710      1.0  0.41435  0.61209  0.61704  1.0000
  C   C596      1.0  0.38861  0.80551  0.69858  1.0000
  S   S176      1.0  0.41382  0.85112  0.90754  1.0000
  H   H711      1.0  0.41921  0.69950  0.70313  1.0000
  Fe  Fe88      1.0  0.30116  0.96871  0.57840  1.0000
  H   H712      1.0  0.38666  0.55089  0.80385  1.0000
  S   S177      1.0  0.30015  0.78758  0.90482  1.0000
  H   H713      1.0  0.25868  0.62661  0.49614  1.0000
  C   C597      1.0  0.48757  0.79150  0.79465  1.0000
  H   H714      1.0  0.27744  0.59833  0.87756  1.0000
  C   C598      1.0  0.30835  0.71549  0.47974  1.0000
  H   H715      1.0  0.28340  0.65767  0.52402  1.0000
  H   H716      1.0  0.25449  0.50622  0.55247  1.0000
  H   H717      1.0  0.47820  0.71412  0.76922  1.0000
  C   C599      1.0  0.25567  0.92828  0.79976  1.0000
  H   H718      1.0  0.45523  0.93093  0.95561  1.0000
  H   H719      1.0  0.37643  0.96361  0.57096  1.0000
  C   C600      1.0  0.27936  0.57092  0.58912  1.0000
  Fe  Fe89      1.0  0.44973  0.79860  0.47969  1.0000
  S   S178      1.0  0.25823  0.97175  0.47455  1.0000
  C   C601      1.0  0.46072  0.94127  0.55117  1.0000
  C   C602      1.0  0.35919  0.81762  0.64507  1.0000
  H   H720      1.0  0.31007  0.77934  0.67422  1.0000
  C   C603      1.0  0.25944  0.93660  0.73436  1.0000
  N   N41       1.0  0.25900  0.90836  0.74997  1.0000
  S   S179      1.0  0.25483  0.80658  0.59156  1.0000
  H   H721      1.0  0.39381  0.89846  0.53747  1.0000
  S   S180      1.0  0.32278  0.97188  0.53332  1.0000
  C   C604      1.0  0.35024  0.87963  0.49768  1.0000
  C   C605      1.0  0.33159  0.90321  0.49971  1.0000
  C   C606      1.0  0.30494  0.90145  0.51400  1.0000
  C   C607      1.0  0.29585  0.87587  0.52627  1.0000
  C   C608      1.0  0.31427  0.85175  0.52426  1.0000
  C   C609      1.0  0.34167  0.85370  0.51031  1.0000
  H   H722      1.0  0.28735  0.63433  0.91104  1.0000
  H   H723      1.0  0.29113  0.92023  0.51525  1.0000
  H   H724      1.0  0.30750  0.83179  0.53360  1.0000
  H   H725      1.0  0.35586  0.83522  0.50900  1.0000
  C   C610      1.0  0.38253  0.83297  0.90668  1.0000
  C   C611      1.0  0.38300  0.80375  0.90956  1.0000
  C   C612      1.0  0.35761  0.79010  0.90838  1.0000
  C   C613      1.0  0.33159  0.80556  0.90453  1.0000
  C   C614      1.0  0.33119  0.83467  0.90214  1.0000
  C   C615      1.0  0.35659  0.84833  0.90276  1.0000
  H   H726      1.0  0.40281  0.79160  0.91258  1.0000
  Fe  Fe90      1.0  0.48675  0.84638  0.48996  1.0000
  H   H727      1.0  0.31118  0.84653  0.90044  1.0000
  H   H728      1.0  0.35607  0.87091  0.90057  1.0000
  C   C616      1.0  0.41025  0.74083  0.77994  1.0000
  C   C617      1.0  0.43583  0.73311  0.76521  1.0000
  C   C618      1.0  0.45857  0.71953  0.78062  1.0000
  C   C619      1.0  0.45588  0.71236  0.81071  1.0000
  C   C620      1.0  0.43031  0.72030  0.82571  1.0000
  C   C621      1.0  0.40770  0.73487  0.81048  1.0000
  H   H729      1.0  0.43833  0.73783  0.74171  1.0000
  H   H730      1.0  0.29947  0.89438  0.73108  1.0000
  H   H731      1.0  0.42800  0.71501  0.84915  1.0000
  H   H732      1.0  0.38829  0.74098  0.82227  1.0000
  C   C622      1.0  0.31017  0.91021  0.63590  1.0000
  C   C623      1.0  0.28532  0.89759  0.62997  1.0000
  C   C624      1.0  0.27674  0.87420  0.64792  1.0000
  C   C625      1.0  0.29272  0.86341  0.67208  1.0000
  C   C626      1.0  0.31772  0.87583  0.67782  1.0000
  S   S181      1.0  0.38302  0.88462  0.47784  1.0000
  C   C627      1.0  0.45739  0.62194  0.81417  1.0000
  H   H733      1.0  0.40369  0.61398  0.51376  1.0000
  H   H734      1.0  0.37685  0.75621  0.67854  1.0000
  C   C628      1.0  0.36549  0.58785  0.78365  1.0000
  C   C629      1.0  0.28421  0.90808  0.90392  1.0000
  C   C630      1.0  0.30999  0.91700  0.89144  1.0000
  C   C631      1.0  0.32112  0.90613  0.86499  1.0000
  C   C632      1.0  0.30674  0.88610  0.85116  1.0000
  C   C633      1.0  0.28058  0.87853  0.86283  1.0000
  C   C634      1.0  0.26940  0.88919  0.88916  1.0000
  H   H735      1.0  0.32153  0.93181  0.90235  1.0000
  H   H736      1.0  0.34135  0.91251  0.85582  1.0000
  H   H737      1.0  0.26955  0.86403  0.85129  1.0000
  S   S182      1.0  0.44533  0.83282  0.51089  1.0000
  C   C635      1.0  0.28656  0.54789  0.82847  1.0000
  C   C636      1.0  0.28219  0.55421  0.89014  1.0000
  C   C637      1.0  0.28063  0.57767  0.86965  1.0000
  C   C638      1.0  0.28298  0.57460  0.83903  1.0000
  H   H738      1.0  0.47085  0.58562  0.77255  1.0000
  H   H739      1.0  0.28187  0.59286  0.82364  1.0000
  H   H740      1.0  0.44157  0.65682  0.74910  1.0000
  H   H741      1.0  0.41980  0.87614  0.96258  1.0000
  H   H742      1.0  0.47069  0.62568  0.56010  1.0000
  H   H743      1.0  0.32581  0.83955  0.61984  1.0000
  C   C639      1.0  0.26865  0.73913  0.63738  1.0000
  H   H744      1.0  0.47750  0.63257  0.81557  1.0000
  N   N42       1.0  0.40107  0.79275  0.67184  1.0000
  H   H745      1.0  0.29029  0.78892  0.64176  1.0000
  N   N43       1.0  0.44721  0.62383  0.78358  1.0000
  H   H746      1.0  0.43378  0.82201  0.66407  1.0000
  H   H747      1.0  0.40960  0.75098  0.65773  1.0000
  H   H748      1.0  0.43220  0.73616  0.56217  1.0000
  H   H749      1.0  0.45650  0.61263  0.51170  1.0000
  S   S183      1.0  0.43825  0.75701  0.50090  1.0000
  C   C640      1.0  0.42059  0.65599  0.69427  1.0000
  C   C641      1.0  0.40467  0.63235  0.69338  1.0000
  C   C642      1.0  0.37517  0.63420  0.69873  1.0000
  C   C643      1.0  0.36148  0.65955  0.70594  1.0000
  C   C644      1.0  0.37754  0.68303  0.70783  1.0000
  C   C645      1.0  0.40699  0.68136  0.70168  1.0000
  H   H750      1.0  0.41518  0.61251  0.68827  1.0000
  C   C646      1.0  0.29154  0.77424  0.66170  1.0000
  C   C647      1.0  0.35257  0.66590  0.82964  1.0000
  C   C648      1.0  0.29847  0.71778  0.50897  1.0000
  S   S184      1.0  0.27045  0.61938  0.75444  1.0000
  H   H751      1.0  0.34755  0.82182  0.66532  1.0000
  H   H752      1.0  0.30863  0.73034  0.69794  1.0000
  H   H753      1.0  0.25303  0.50747  0.60701  1.0000
  C   C649      1.0  0.29488  0.70561  0.86631  1.0000
  C   C650      1.0  0.41538  0.58400  0.79476  1.0000
  C   C651      1.0  0.26554  0.65737  0.54076  1.0000
  C   C652      1.0  0.46246  0.75117  0.52912  1.0000
  C   C653      1.0  0.38525  0.68733  0.53503  1.0000
  H   H754      1.0  0.35162  0.67141  0.56314  1.0000
  S   S185      1.0  0.48652  0.77875  0.73705  1.0000
  H   H755      1.0  0.47015  0.70841  0.48873  1.0000
  H   H756      1.0  0.39567  0.80408  0.56918  1.0000
  H   H757      1.0  0.34949  0.83149  0.57170  1.0000
  N   N44       1.0  0.44288  0.64092  0.59481  1.0000
  Fe  Fe91      1.0  0.27754  0.52877  0.96972  1.0000
  Fe  Fe92      1.0  0.48338  0.78811  0.96456  1.0000
  C   C654      1.0  0.45726  0.61781  0.57901  1.0000
  C   C655      1.0  0.42280  0.65708  0.57488  1.0000
  H   H758      1.0  0.36652  0.92960  0.56497  1.0000
  C   C656      1.0  0.43304  0.67276  0.54949  1.0000
  C   C657      1.0  0.27129  0.54680  0.54457  1.0000
  C   C658      1.0  0.41447  0.68780  0.53011  1.0000
  H   H759      1.0  0.30738  0.70374  0.52634  1.0000
  H   H760      1.0  0.34164  0.72194  0.83084  1.0000
  H   H761      1.0  0.39351  0.93390  0.59071  1.0000
  C   C659      1.0  0.38770  0.92607  0.93418  1.0000
  C   C660      1.0  0.27975  0.70423  0.89337  1.0000
  H   H762      1.0  0.28715  0.68028  0.80140  1.0000
  H   H763      1.0  0.34468  0.71066  0.79401  1.0000
  N   N45       1.0  0.40743  0.93942  0.54509  1.0000
  H   H764      1.0  0.31940  0.67005  0.78196  1.0000
  H   H765      1.0  0.44164  0.60431  0.57036  1.0000
  H   H766      1.0  0.46567  0.73611  0.60332  1.0000
  H   H767      1.0  0.45554  0.67352  0.54436  1.0000
  C   C661      1.0  0.38633  0.80293  0.64458  1.0000
  H   H768      1.0  0.42274  0.70013  0.51121  1.0000
  H   H769      1.0  0.24963  0.77217  0.49803  1.0000
  H   H770      1.0  0.28891  0.58717  0.54455  1.0000
  H   H771      1.0  0.40992  0.75352  0.69687  1.0000
  H   H772      1.0  0.36711  0.52908  0.52022  1.0000
  H   H773      1.0  0.26537  0.67740  0.55171  1.0000
  H   H774      1.0  0.36597  0.92991  0.94394  1.0000
  C   C662      1.0  0.38896  0.57228  0.79502  1.0000
  H   H775      1.0  0.44482  0.61762  0.63720  1.0000
  C   C663      1.0  0.32640  0.89904  0.65976  1.0000
  H   H776      1.0  0.35047  0.64302  0.83377  1.0000
  S   S186      1.0  0.47332  0.83433  0.96042  1.0000
  H   H777      1.0  0.42777  0.90552  0.52167  1.0000
  H   H778      1.0  0.46080  0.60900  0.74151  1.0000
  H   H779      1.0  0.27295  0.95068  0.74517  1.0000
  H   H780      1.0  0.26880  0.71677  0.63243  1.0000
  C   C664      1.0  0.41351  0.90910  0.54128  1.0000
  H   H781      1.0  0.26544  0.67786  0.93043  1.0000
  C   C665      1.0  0.39277  0.65686  0.57920  1.0000
  H   H782      1.0  0.44140  0.90689  0.93204  1.0000
  C   C666      1.0  0.46462  0.65920  0.60431  1.0000
  N   N46       1.0  0.41237  0.82966  0.81744  1.0000
  C   C667      1.0  0.40147  0.81587  0.79238  1.0000
  C   C668      1.0  0.42087  0.80693  0.83992  1.0000
  C   C669      1.0  0.38875  0.84727  0.82994  1.0000
  C   C670      1.0  0.43615  0.84763  0.80888  1.0000
  C   C671      1.0  0.45155  0.85926  0.83069  1.0000
  C   C672      1.0  0.44382  0.85534  0.77895  1.0000
  C   C673      1.0  0.47420  0.87608  0.82318  1.0000
  C   C674      1.0  0.46658  0.87213  0.77166  1.0000
  C   C675      1.0  0.48186  0.88232  0.79373  1.0000
  H   H783      1.0  0.41854  0.80271  0.78151  1.0000
  H   H784      1.0  0.38438  0.80172  0.79978  1.0000
  H   H785      1.0  0.39193  0.83133  0.77573  1.0000
  H   H786      1.0  0.40274  0.79398  0.84705  1.0000
  H   H787      1.0  0.42835  0.81479  0.86035  1.0000
  H   H788      1.0  0.43781  0.79239  0.83112  1.0000
  H   H789      1.0  0.37034  0.83480  0.83744  1.0000
  H   H790      1.0  0.39511  0.85790  0.84926  1.0000
  H   H791      1.0  0.38111  0.86406  0.81348  1.0000
  H   H792      1.0  0.44596  0.85574  0.85379  1.0000
  H   H793      1.0  0.43311  0.84799  0.76075  1.0000
  H   H794      1.0  0.36642  0.66841  0.80939  1.0000
  H   H795      1.0  0.47240  0.87723  0.74872  1.0000
  H   H796      1.0  0.44171  0.63243  0.82930  1.0000
  N   N47       1.0  0.29334  0.74444  0.65487  1.0000
  Fe  Fe93      1.0  0.28293  0.95131  0.96807  1.0000
  C   C676      1.0  0.47255  0.74212  0.58097  1.0000
  H   H797      1.0  0.44386  0.78761  0.65269  1.0000
  C   C677      1.0  0.31995  0.73812  0.63768  1.0000
  C   C678      1.0  0.34071  0.71705  0.64722  1.0000
  C   C679      1.0  0.32563  0.75311  0.61024  1.0000
  C   C680      1.0  0.36582  0.71183  0.63070  1.0000
  C   C681      1.0  0.35057  0.74745  0.59362  1.0000
  C   C682      1.0  0.37077  0.72706  0.60397  1.0000
  H   H798      1.0  0.32485  0.69971  0.47475  1.0000
  C   C683      1.0  0.49021  0.75885  0.52342  1.0000
  C   C684      1.0  0.30841  0.66906  0.80409  1.0000
  H   H799      1.0  0.28607  0.58904  0.59915  1.0000
  H   H800      1.0  0.37103  0.69902  0.51981  1.0000
  H   H801      1.0  0.26826  0.93559  0.71134  1.0000
  N   N48       1.0  0.32474  0.68186  0.82624  1.0000
  C   C685      1.0  0.48415  0.95601  0.55745  1.0000
  C   C686      1.0  0.28582  0.52754  0.87957  1.0000
  Fe  Fe94      1.0  0.28036  0.57372  0.75054  1.0000
  Fe  Fe95      1.0  0.27076  0.57877  0.68276  1.0000
  C   C687      1.0  0.39932  0.76203  0.67635  1.0000
  H   H802      1.0  0.48922  0.61677  0.76402  1.0000
  H   H803      1.0  0.47896  0.64789  0.62075  1.0000
  C   C688      1.0  0.28804  0.52444  0.84894  1.0000
  C   C689      1.0  0.41507  0.61387  0.49268  1.0000
  H   H804      1.0  0.25389  0.89052  0.70829  1.0000
  H   H805      1.0  0.35808  0.76748  0.91059  1.0000
  H   H806      1.0  0.41846  0.78523  0.61408  1.0000
  H   H807      1.0  0.35462  0.48455  0.49395  1.0000
  C   C690      1.0  0.26909  0.54854  0.60701  1.0000
  H   H808      1.0  0.34578  0.90855  0.66435  1.0000
  C   C691      1.0  0.40560  0.96365  0.95855  1.0000
  C   C692      1.0  0.44498  0.61317  0.49161  1.0000
  H   H809      1.0  0.28704  0.50929  0.89499  1.0000
  C   C693      1.0  0.28071  0.56987  0.55814  1.0000
  H   H810      1.0  0.38883  0.93893  0.91284  1.0000
  H   H811      1.0  0.35061  0.65454  0.97354  1.0000
  H   H812      1.0  0.44253  0.79333  0.69057  1.0000
  C   C694      1.0  0.42896  0.62831  0.62193  1.0000
  H   H813      1.0  0.35016  0.62699  0.76251  1.0000
  H   H814      1.0  0.40157  0.79952  0.71827  1.0000
  C   C695      1.0  0.46784  0.60802  0.76471  1.0000
  C   C696      1.0  0.45375  0.74194  0.55776  1.0000
  S   S187      1.0  0.32239  0.93954  0.61419  1.0000
  H   H815      1.0  0.47897  0.66674  0.58595  1.0000
  C   C697      1.0  0.43149  0.79928  0.66957  1.0000
  H   H816      1.0  0.34758  0.82073  0.96241  1.0000
  C   C698      1.0  0.37442  0.67181  0.55946  1.0000
  C   C699      1.0  0.41904  0.61190  0.78327  1.0000
  H   H817      1.0  0.38731  0.82877  0.69561  1.0000
  H   H818      1.0  0.38289  0.64521  0.59757  1.0000
  H   H819      1.0  0.34512  0.57851  0.78353  1.0000
  H   H820      1.0  0.46853  0.66206  0.77371  1.0000
  S   S188      1.0  0.48262  0.69099  0.82944  1.0000
  C   C700      1.0  0.39861  0.79749  0.61641  1.0000
  C   C701      1.0  0.35371  0.54075  0.50331  1.0000
  H   H821      1.0  0.46522  0.92000  0.54525  1.0000
  H   H822      1.0  0.44140  0.94302  0.92040  1.0000
  H   H823      1.0  0.29087  0.50367  0.84106  1.0000
  H   H824      1.0  0.30364  0.83938  0.95928  1.0000
  C   C702      1.0  0.43270  0.95405  0.55223  1.0000
  C   C703      1.0  0.27720  0.67868  0.90948  1.0000
  H   H825      1.0  0.25223  0.94329  0.84336  1.0000
  S   S189      1.0  0.27112  0.54786  0.50534  1.0000
  H   H826      1.0  0.27086  0.63958  0.55707  1.0000
  H   H827      1.0  0.27092  0.73346  0.69602  1.0000
  C   C704      1.0  0.26070  0.52505  0.59344  1.0000
  C   C705      1.0  0.28860  0.89663  0.75290  1.0000
  C   C706      1.0  0.36836  0.61520  0.77198  1.0000
  C   C707      1.0  0.29080  0.72745  0.68338  1.0000
  N   N49       1.0  0.40960  0.93320  0.95442  1.0000
  H   H828      1.0  0.33040  0.86753  0.69608  1.0000
  H   H829      1.0  0.41711  0.64466  0.63436  1.0000
  H   H830      1.0  0.46184  0.60005  0.82313  1.0000
  H   H831      1.0  0.31118  0.72303  0.80795  1.0000
  C   C708      1.0  0.30829  0.68118  0.85469  1.0000
  H   H832      1.0  0.36710  0.79821  0.70460  1.0000
  H   H833      1.0  0.33788  0.70420  0.66734  1.0000
  C   C709      1.0  0.30452  0.65535  0.87131  1.0000
  H   H834      1.0  0.29014  0.70476  0.68007  1.0000
  S   S190      1.0  0.25708  0.97743  0.56072  1.0000
  H   H835      1.0  0.43303  0.57095  0.80349  1.0000
  C   C710      1.0  0.39467  0.62718  0.77168  1.0000
  C   C711      1.0  0.26625  0.75664  0.49318  1.0000
  H   H836      1.0  0.27289  0.90561  0.61136  1.0000
  C   C712      1.0  0.34621  0.82776  0.61898  1.0000
  H   H837      1.0  0.39548  0.64827  0.76182  1.0000
  S   S191      1.0  0.28866  0.54257  0.79013  1.0000
  S   S192      1.0  0.25387  0.73390  0.80219  1.0000
  H   H838      1.0  0.45459  0.67772  0.61489  1.0000
  C   C713      1.0  0.28948  0.65425  0.89845  1.0000
  H   H839      1.0  0.26983  0.72321  0.90185  1.0000
  H   H840      1.0  0.43223  0.66703  0.78589  1.0000
  H   H841      1.0  0.36425  0.67329  0.84813  1.0000
  H   H842      1.0  0.34382  0.86992  0.95507  1.0000
  Fe  Fe96      1.0  0.25501  0.80273  0.89259  1.0000
  H   H843      1.0  0.24940  0.88238  0.89846  1.0000
  C   C714      1.0  0.34159  0.50018  0.48016  1.0000
  Fe  Fe97      1.0  0.48767  0.68769  0.68438  1.0000
  C   C715      1.0  0.39591  0.95254  0.51721  1.0000
  H   H844      1.0  0.42315  0.89814  0.56119  1.0000
  C   C716      1.0  0.43808  0.92824  0.94007  1.0000
  H   H845      1.0  0.41218  0.95180  0.49890  1.0000
  H   H846      1.0  0.30163  0.90978  0.76552  1.0000
  H   H847      1.0  0.47142  0.80725  0.78864  1.0000
  H   H848      1.0  0.28915  0.87561  0.76487  1.0000
  H   H849      1.0  0.39011  0.90377  0.92887  1.0000
  H   H850      1.0  0.25265  0.67976  0.48894  1.0000
  H   H851      1.0  0.25752  0.86450  0.64309  1.0000
  H   H852      1.0  0.33774  0.92321  0.49008  1.0000
  H   H853      1.0  0.31923  0.89720  0.96569  1.0000
  S   S193      1.0  0.49635  0.83387  0.89217  1.0000
  H   H854      1.0  0.49745  0.76476  0.50129  1.0000
  C   C717      1.0  0.49644  0.78766  0.82386  1.0000
  H   H855      1.0  0.48571  0.88446  0.84039  1.0000
  H   H856      1.0  0.48725  0.80087  0.84036  1.0000
  H   H857      1.0  0.48275  0.67520  0.47589  1.0000
  H   H858      1.0  0.24829  0.74483  0.64920  1.0000
  H   H859      1.0  0.27956  0.86478  0.97403  1.0000
  H   H860      1.0  0.42140  0.97049  0.97368  1.0000
  H   H861      1.0  0.61039  0.11058  0.98140  1.0000
  C   C718      1.0  0.63628  0.41864  0.45635  1.0000
  C   C719      1.0  0.51836  0.44975  0.00039  1.0000
  H   H862      1.0  0.50917  0.22122  0.44567  1.0000
  H   H863      1.0  0.53246  0.27509  0.32518  1.0000
  H   H864      1.0  0.65273  0.15697  0.99602  1.0000
  H   H865      1.0  0.55652  0.10132  0.05833  1.0000
  Fe  Fe98      1.0  0.51773  0.32528  0.40788  1.0000
  S   S194      1.0  0.52355  0.36341  0.43260  1.0000
  H   H866      1.0  0.51213  0.46249  0.97999  1.0000
  Fe  Fe99      1.0  0.54868  0.37954  0.39230  1.0000
  S   S195      1.0  0.59078  0.40130  0.38548  1.0000
  S   S196      1.0  0.54544  0.33997  0.36865  1.0000
  Fe  Fe100     1.0  0.55567  0.37338  0.07331  1.0000
  S   S197      1.0  0.55439  0.32949  0.09387  1.0000
  S   S198      1.0  0.59512  0.39848  0.07775  1.0000
  Fe  Fe101     1.0  0.52383  0.32114  0.05891  1.0000
  S   S199      1.0  0.52846  0.27637  0.04211  1.0000
  Fe  Fe102     1.0  0.51659  0.34452  0.12133  1.0000
  S   S200      1.0  0.52176  0.32909  0.17029  1.0000
  S   S201      1.0  0.52782  0.36458  0.03617  1.0000
  S   S202      1.0  0.51903  0.38871  0.10215  1.0000
  C   C720      1.0  0.61069  0.19796  0.98371  1.0000
  H   H867      1.0  0.62269  0.36806  0.27354  1.0000
  H   H868      1.0  0.61999  0.20092  0.00529  1.0000
  C   C721      1.0  0.52707  0.25595  0.01061  1.0000
  S   S203      1.0  0.69092  0.44748  0.98830  1.0000
  N   N50       1.0  0.59053  0.38159  0.17735  1.0000
  H   H869      1.0  0.57775  0.18331  0.02678  1.0000
  H   H870      1.0  0.53037  0.21676  0.03690  1.0000
  H   H871      1.0  0.62859  0.36489  0.22023  1.0000
  C   C722      1.0  0.56804  0.11477  0.04256  1.0000
  C   C723      1.0  0.60878  0.37411  0.22874  1.0000
  C   C724      1.0  0.65485  0.03676  0.98471  1.0000
  C   C725      1.0  0.51460  0.34170  0.20604  1.0000
  C   C726      1.0  0.53072  0.33004  0.22986  1.0000
  C   C727      1.0  0.52441  0.33751  0.25899  1.0000
  C   C728      1.0  0.61539  0.39697  0.16588  1.0000
  H   H872      1.0  0.63562  0.38789  0.17514  1.0000
  H   H873      1.0  0.54789  0.31465  0.22586  1.0000
  H   H874      1.0  0.53697  0.32816  0.27687  1.0000
  C   C729      1.0  0.66541  0.43258  0.01375  1.0000
  C   C730      1.0  0.64206  0.42022  0.00279  1.0000
  C   C731      1.0  0.62075  0.40901  0.02198  1.0000
  C   C732      1.0  0.62216  0.41065  0.05243  1.0000
  C   C733      1.0  0.64544  0.42314  0.06340  1.0000
  C   C734      1.0  0.66708  0.43376  0.04426  1.0000
  H   H875      1.0  0.51734  0.43693  0.05945  1.0000
  H   H876      1.0  0.60317  0.39928  0.01315  1.0000
  H   H877      1.0  0.64690  0.42440  0.08691  1.0000
  H   H878      1.0  0.64761  0.02473  0.00428  1.0000
  C   C735      1.0  0.61716  0.41223  0.40846  1.0000
  C   C736      1.0  0.61471  0.40961  0.43925  1.0000
  C   C737      1.0  0.58442  0.10322  0.01990  1.0000
  C   C738      1.0  0.66056  0.43040  0.44298  1.0000
  C   C739      1.0  0.66304  0.43306  0.41220  1.0000
  C   C740      1.0  0.64143  0.42411  0.39512  1.0000
  H   H879      1.0  0.59624  0.40052  0.44988  1.0000
  H   H880      1.0  0.56942  0.39137  0.13637  1.0000
  S   S204      1.0  0.70787  0.01297  0.99845  1.0000
  H   H881      1.0  0.61293  0.41932  0.17109  1.0000
  H   H882      1.0  0.61576  0.34221  0.17982  1.0000
  H   H883      1.0  0.53845  0.40496  0.26335  1.0000
  C   C741      1.0  0.72835  0.33631  0.46449  1.0000
  H   H884      1.0  0.57817  0.33910  0.18103  1.0000
  H   H885      1.0  0.53645  0.43502  0.99444  1.0000
  C   C742      1.0  0.52879  0.22645  0.01477  1.0000
  S   S205      1.0  0.50997  0.40144  0.37115  1.0000
  C   C743      1.0  0.56117  0.39518  0.22296  1.0000
  H   H886      1.0  0.68501  0.44285  0.05311  1.0000
  C   C744      1.0  0.60562  0.37576  0.25928  1.0000
  H   H887      1.0  0.57783  0.38805  0.29535  1.0000
  C   C745      1.0  0.52470  0.26801  0.98176  1.0000
  C   C746      1.0  0.56611  0.14365  0.04462  1.0000
  C   C747      1.0  0.59879  0.12051  0.99912  1.0000
  C   C748      1.0  0.50825  0.26009  0.24439  1.0000
  H   H888      1.0  0.54640  0.38173  0.16671  1.0000
  C   C749      1.0  0.52800  0.20934  0.99073  1.0000
  C   C750      1.0  0.58055  0.16114  0.02404  1.0000
  H   H889      1.0  0.64357  0.42628  0.37132  1.0000
  N   N51       1.0  0.61192  0.16791  0.97751  1.0000
  H   H890      1.0  0.72222  0.32133  0.44869  1.0000
  S   S206      1.0  0.51489  0.27922  0.42591  1.0000
  C   C751      1.0  0.58668  0.38385  0.20958  1.0000
  H   H891      1.0  0.56103  0.41585  0.16358  1.0000
  H   H892      1.0  0.57966  0.45130  0.00617  1.0000
  C   C752      1.0  0.55830  0.39679  0.25351  1.0000
  H   H893      1.0  0.52428  0.24733  0.23298  1.0000
  C   C753      1.0  0.52077  0.26031  0.46099  1.0000
  H   H894      1.0  0.54193  0.46227  0.06748  1.0000
  C   C754      1.0  0.50743  0.25974  0.27517  1.0000
  H   H895      1.0  0.52335  0.29055  0.97798  1.0000
  H   H896      1.0  0.58555  0.08077  0.01803  1.0000
  H   H897      1.0  0.55302  0.15262  0.06206  1.0000
  N   N52       1.0  0.52536  0.46783  0.02387  1.0000
  Fe  Fe103     1.0  0.72863  0.46233  0.45386  1.0000
  H   H898      1.0  0.61810  0.39649  0.14143  1.0000
  C   C755      1.0  0.51312  0.28737  0.33260  1.0000
  C   C756      1.0  0.50145  0.35644  0.26485  1.0000
  C   C757      1.0  0.59550  0.35174  0.17106  1.0000
  C   C758      1.0  0.56569  0.39323  0.16046  1.0000
  N   N53       1.0  0.73478  0.36387  0.44970  1.0000
  H   H899      1.0  0.54282  0.40239  0.21048  1.0000
  H   H900      1.0  0.61749  0.48020  0.98629  1.0000
  C   C759      1.0  0.58041  0.38707  0.27163  1.0000
  S   S207      1.0  0.68754  0.44038  0.46574  1.0000
  H   H901      1.0  0.59628  0.34896  0.14691  1.0000
  H   H902      1.0  0.68157  0.44197  0.40150  1.0000
  Fe  Fe104     1.0  0.73491  0.46380  0.99425  1.0000
  C   C760      1.0  0.59736  0.15003  0.00053  1.0000
  H   H903      1.0  0.52330  0.24647  0.28674  1.0000
  C   C761      1.0  0.51584  0.23153  0.46436  1.0000
  H   H904      1.0  0.51376  0.28733  0.35708  1.0000
  H   H905      1.0  0.69071  0.37854  0.44764  1.0000
  H   H906      1.0  0.51493  0.30934  0.32336  1.0000
  H   H907      1.0  0.64057  0.41905  0.97926  1.0000
  Fe  Fe105     1.0  0.50595  0.36129  0.34914  1.0000
  H   H908      1.0  0.74054  0.33175  0.40197  1.0000
  H   H909      1.0  0.71402  0.39581  0.42115  1.0000
  H   H910      1.0  0.60131  0.48141  0.43881  1.0000
  H   H911      1.0  0.55254  0.43440  0.04443  1.0000
  H   H912      1.0  0.50042  0.43648  0.00737  1.0000
  C   C762      1.0  0.53478  0.44967  0.04989  1.0000
  C   C763      1.0  0.68391  0.03498  0.97635  1.0000
  H   H913      1.0  0.50442  0.23342  0.33086  1.0000
  H   H914      1.0  0.52887  0.18680  0.99456  1.0000
  C   C764      1.0  0.57536  0.47373  0.00439  1.0000
  H   H915      1.0  0.70368  0.36113  0.41623  1.0000
  C   C765      1.0  0.70981  0.37522  0.43290  1.0000
  H   H916      1.0  0.58848  0.20734  0.98372  1.0000
  C   C766      1.0  0.73879  0.38318  0.47311  1.0000
  H   H917      1.0  0.74290  0.40460  0.46352  1.0000
  H   H918      1.0  0.61273  0.05456  0.97455  1.0000
  C   C767      1.0  0.64231  0.15819  0.97439  1.0000
  H   H919      1.0  0.52234  0.26066  0.93563  1.0000
  C   C768      1.0  0.51595  0.21577  0.78306  1.0000
  S   S208      1.0  0.72958  0.06161  0.56027  1.0000
  Fe  Fe106     1.0  0.56028  0.10789  0.58747  1.0000
  S   S209      1.0  0.56776  0.15024  0.60268  1.0000
  S   S210      1.0  0.59379  0.07265  0.57711  1.0000
  Fe  Fe107     1.0  0.52977  0.16636  0.57618  1.0000
  H   H920      1.0  0.66335  0.01063  0.92108  1.0000
  Fe  Fe108     1.0  0.53721  0.13974  0.64089  1.0000
  S   S211      1.0  0.55156  0.14799  0.68752  1.0000
  H   H921      1.0  0.60773  0.17973  0.93108  1.0000
  H   H922      1.0  0.53572  0.22811  0.74096  1.0000
  Fe  Fe109     1.0  0.57181  0.10207  0.91876  1.0000
  S   S212      1.0  0.56126  0.14017  0.88805  1.0000
  S   S213      1.0  0.62010  0.09158  0.92045  1.0000
  H   H923      1.0  0.51830  0.18752  0.86925  1.0000
  C   C769      1.0  0.61989  0.00367  0.91812  1.0000
  Fe  Fe110     1.0  0.52734  0.11576  0.87042  1.0000
  H   H924      1.0  0.60081  0.13075  0.65357  1.0000
  H   H925      1.0  0.53448  0.29481  0.48340  1.0000
  S   S214      1.0  0.53963  0.07665  0.89902  1.0000
  H   H926      1.0  0.71876  0.07646  0.64312  1.0000
  H   H927      1.0  0.70508  0.99183  0.93845  1.0000
  C   C770      1.0  0.52577  0.22143  0.96190  1.0000
  C   C771      1.0  0.54168  0.13665  0.72474  1.0000
  C   C772      1.0  0.55683  0.14566  0.74809  1.0000
  C   C773      1.0  0.54923  0.13824  0.77791  1.0000
  C   C774      1.0  0.59830  0.16590  0.94904  1.0000
  H   H928      1.0  0.57435  0.15886  0.74309  1.0000
  H   H929      1.0  0.56098  0.14564  0.79542  1.0000
  S   S215      1.0  0.54162  0.11687  0.95483  1.0000
  H   H930      1.0  0.68032  0.08000  0.91483  1.0000
  C   C775      1.0  0.64854  0.99456  0.92009  1.0000
  H   H931      1.0  0.62427  0.03711  0.64414  1.0000
  H   H932      1.0  0.64526  0.13715  0.96548  1.0000
  S   S216      1.0  0.52377  0.12420  0.55854  1.0000
  S   S217      1.0  0.53043  0.21080  0.55237  1.0000
  H   H933      1.0  0.71324  0.02996  0.62521  1.0000
  C   C776      1.0  0.69169  0.06428  0.56353  1.0000
  C   C777      1.0  0.67520  0.04123  0.56198  1.0000
  C   C778      1.0  0.64534  0.04434  0.56588  1.0000
  C   C779      1.0  0.63149  0.07047  0.57121  1.0000
  C   C780      1.0  0.64797  0.09360  0.57218  1.0000
  C   C781      1.0  0.67782  0.09045  0.56855  1.0000
  H   H934      1.0  0.68545  0.02100  0.55809  1.0000
  H   H935      1.0  0.63286  0.02632  0.56489  1.0000
  H   H936      1.0  0.63777  0.11398  0.57549  1.0000
  H   H937      1.0  0.69029  0.10848  0.56956  1.0000
  H   H938      1.0  0.71513  0.04973  0.94427  1.0000
  C   C782      1.0  0.69288  0.05065  0.95094  1.0000
  C   C783      1.0  0.67306  0.06789  0.93433  1.0000
  C   C784      1.0  0.64398  0.06953  0.94261  1.0000
  H   H939      1.0  0.62255  0.21072  0.96656  1.0000
  H   H940      1.0  0.49868  0.99516  0.56953  1.0000
  C   C785      1.0  0.52620  0.12168  0.78496  1.0000
  C   C786      1.0  0.51898  0.11968  0.73177  1.0000
  H   H941      1.0  0.53929  0.26775  0.53174  1.0000
  C   C787      1.0  0.51935  0.21585  0.49174  1.0000
  H   H942      1.0  0.66593  0.01060  0.62648  1.0000
  H   H943      1.0  0.70532  0.99004  0.89882  1.0000
  Fe  Fe111     1.0  0.52926  0.15357  0.92327  1.0000
  C   C788      1.0  0.63498  0.05376  0.96792  1.0000
  H   H944      1.0  0.50702  0.11253  0.71427  1.0000
  H   H945      1.0  0.63417  0.41631  0.48014  1.0000
  S   S218      1.0  0.53142  0.09679  0.62662  1.0000
  C   C789      1.0  0.52004  0.21542  0.75249  1.0000
  C   C790      1.0  0.52015  0.18879  0.84472  1.0000
  H   H946      1.0  0.65427  0.17237  0.95872  1.0000
  S   S219      1.0  0.52521  0.20098  0.93036  1.0000
  C   C791      1.0  0.53274  0.25747  0.51297  1.0000
  C   C792      1.0  0.50460  0.19815  0.73671  1.0000
  H   H947      1.0  0.67780  0.10393  0.66241  1.0000
  C   C793      1.0  0.52757  0.22877  0.51644  1.0000
  H   H948      1.0  0.71029  0.33827  0.48086  1.0000
  H   H949      1.0  0.71945  0.38572  0.48772  1.0000
  S   S220      1.0  0.51427  0.11284  0.82221  1.0000
  N   N54       1.0  0.62191  0.09082  0.66616  1.0000
  C   C794      1.0  0.59466  0.07695  0.66609  1.0000
  C   C795      1.0  0.62572  0.09865  0.69665  1.0000
  C   C796      1.0  0.61903  0.11670  0.64644  1.0000
  C   C797      1.0  0.64678  0.07320  0.65609  1.0000
  C   C798      1.0  0.64443  0.04623  0.64565  1.0000
  C   C799      1.0  0.67441  0.08339  0.65548  1.0000
  C   C800      1.0  0.66833  0.03064  0.63537  1.0000
  C   C801      1.0  0.69807  0.06778  0.64470  1.0000
  C   C802      1.0  0.69503  0.04147  0.63467  1.0000
  H   H950      1.0  0.59505  0.05740  0.68078  1.0000
  H   H951      1.0  0.57646  0.09073  0.67399  1.0000
  H   H952      1.0  0.58953  0.07196  0.64341  1.0000
  H   H953      1.0  0.62918  0.07971  0.71198  1.0000
  H   H954      1.0  0.60668  0.11100  0.70512  1.0000
  H   H955      1.0  0.64391  0.11197  0.69813  1.0000
  H   H956      1.0  0.63806  0.12917  0.64581  1.0000
  H   H957      1.0  0.61544  0.11160  0.62346  1.0000
  C   C803      1.0  0.51129  0.11240  0.76159  1.0000
  H   H958      1.0  0.57522  0.17198  0.95085  1.0000
  C   C804      1.0  0.52969  0.27303  0.48551  1.0000
  H   H959      1.0  0.50848  0.19717  0.71313  1.0000
  H   H960      1.0  0.52886  0.22907  0.79438  1.0000
  C   C805      1.0  0.52414  0.25090  0.95770  1.0000
  H   H961      1.0  0.52708  0.16757  0.83780  1.0000
  H   H962      1.0  0.74708  0.32659  0.47637  1.0000
  H   H963      1.0  0.50229  0.24220  0.83384  1.0000
  H   H964      1.0  0.53757  0.20273  0.83837  1.0000
  H   H965      1.0  0.51530  0.19385  0.49384  1.0000
  H   H966      1.0  0.61369  0.02589  0.91741  1.0000
  H   H967      1.0  0.57695  0.99159  0.91643  1.0000
  Fe  Fe112     1.0  0.50832  0.09373  0.93310  1.0000
  H   H968      1.0  0.60040  0.14429  0.94163  1.0000
  S   S221      1.0  0.49977  0.15911  0.61569  1.0000
  C   C806      1.0  0.59914  0.98437  0.91750  1.0000
  C   C807      1.0  0.54838  0.48589  0.01291  1.0000
  H   H969      1.0  0.70249  0.51493  0.03425  1.0000
  Fe  Fe113     1.0  0.55952  0.73496  0.34783  1.0000
  S   S222      1.0  0.57358  0.73537  0.30072  1.0000
  S   S223      1.0  0.73979  0.89545  0.28439  1.0000
  Fe  Fe114     1.0  0.55148  0.77786  0.29748  1.0000
  S   S224      1.0  0.57744  0.81450  0.28023  1.0000
  Fe  Fe115     1.0  0.53170  0.71817  0.29249  1.0000
  C   C808      1.0  0.59760  0.73440  0.46302  1.0000
  S   S225      1.0  0.53745  0.77747  0.34492  1.0000
  H   H970      1.0  0.55212  0.65366  0.32441  1.0000
  C   C809      1.0  0.66302  0.89842  0.43350  1.0000
  H   H971      1.0  0.61442  0.77897  0.31949  1.0000
  H   H972      1.0  0.59941  0.81256  0.45509  1.0000
  C   C810      1.0  0.61468  0.49595  0.42500  1.0000
  C   C811      1.0  0.59715  0.49014  0.99290  1.0000
  H   H973      1.0  0.50955  0.72569  0.22938  1.0000
  S   S226      1.0  0.70727  0.82011  0.31317  1.0000
  S   S227      1.0  0.69802  0.63172  0.23090  1.0000
  H   H974      1.0  0.62025  0.54026  0.06922  1.0000
  Fe  Fe116     1.0  0.68591  0.67647  0.21651  1.0000
  S   S228      1.0  0.64169  0.69345  0.22937  1.0000
  S   S229      1.0  0.71846  0.69245  0.24392  1.0000
  C   C812      1.0  0.67101  0.64203  0.44408  1.0000
  C   C813      1.0  0.67558  0.54976  0.06989  1.0000
  H   H975      1.0  0.56302  0.79415  0.43307  1.0000
  S   S230      1.0  0.54373  0.77536  0.17209  1.0000
  H   H976      1.0  0.72245  0.76525  0.23887  1.0000
  C   C814      1.0  0.64070  0.88401  0.44678  1.0000
  H   H977      1.0  0.69478  0.55936  0.05983  1.0000
  Fe  Fe117     1.0  0.52165  0.65244  0.10626  1.0000
  S   S231      1.0  0.53426  0.61010  0.12667  1.0000
  H   H978      1.0  0.60208  0.54914  0.46953  1.0000
  Fe  Fe118     1.0  0.52752  0.63271  0.04403  1.0000
  H   H979      1.0  0.51245  0.75305  0.11717  1.0000
  H   H980      1.0  0.56312  0.55442  0.99501  1.0000
  Fe  Fe119     1.0  0.56741  0.60849  0.09028  1.0000
  S   S232      1.0  0.55742  0.65263  0.07226  1.0000
  H   H981      1.0  0.67782  0.64882  0.98028  1.0000
  H   H982      1.0  0.66969  0.85740  0.27553  1.0000
  H   H983      1.0  0.59363  0.64529  0.40702  1.0000
  H   H984      1.0  0.63607  0.78079  0.21434  1.0000
  S   S233      1.0  0.71361  0.66927  0.09392  1.0000
  C   C815      1.0  0.50855  0.68555  0.17082  1.0000
  H   H985      1.0  0.66495  0.78169  0.33144  1.0000
  H   H986      1.0  0.66492  0.66232  0.43348  1.0000
  C   C816      1.0  0.64378  0.81235  0.44524  1.0000
  H   H987      1.0  0.51055  0.64049  0.17429  1.0000
  C   C817      1.0  0.63757  0.61401  0.10221  1.0000
  C   C818      1.0  0.65895  0.61001  0.12280  1.0000
  C   C819      1.0  0.68163  0.62761  0.12133  1.0000
  C   C820      1.0  0.68433  0.64794  0.09802  1.0000
  C   C821      1.0  0.66251  0.65235  0.07774  1.0000
  C   C822      1.0  0.63912  0.63549  0.07985  1.0000
  H   H988      1.0  0.65784  0.59354  0.14025  1.0000
  H   H989      1.0  0.69665  0.62579  0.13869  1.0000
  H   H990      1.0  0.66375  0.66889  0.06041  1.0000
  H   H991      1.0  0.62267  0.63869  0.06389  1.0000
  C   C823      1.0  0.54469  0.51560  0.00954  1.0000
  H   H992      1.0  0.51569  0.83358  0.32536  1.0000
  C   C824      1.0  0.69904  0.63079  0.44058  1.0000
  C   C825      1.0  0.59459  0.64951  0.38327  1.0000
  C   C826      1.0  0.74208  0.71470  0.46195  1.0000
  C   C827      1.0  0.68184  0.54564  0.38874  1.0000
  C   C828      1.0  0.66623  0.82982  0.21043  1.0000
  H   H993      1.0  0.60240  0.50403  0.40546  1.0000
  H   H994      1.0  0.59583  0.66749  0.29892  1.0000
  H   H995      1.0  0.62815  0.58213  0.04393  1.0000
  H   H996      1.0  0.64580  0.78840  0.25074  1.0000
  C   C829      1.0  0.72202  0.84146  0.19367  1.0000
  C   C830      1.0  0.74318  0.64839  0.00906  1.0000
  C   C831      1.0  0.64107  0.50743  0.46648  1.0000
  C   C832      1.0  0.57154  0.75361  0.18860  1.0000
  C   C833      1.0  0.59764  0.74936  0.17302  1.0000
  C   C834      1.0  0.61964  0.73125  0.18504  1.0000
  C   C835      1.0  0.61542  0.71667  0.21241  1.0000
  C   C836      1.0  0.58962  0.72128  0.22798  1.0000
  C   C837      1.0  0.56832  0.74040  0.21670  1.0000
  H   H997      1.0  0.60094  0.76017  0.15165  1.0000
  H   H998      1.0  0.63964  0.72846  0.17304  1.0000
  H   H999      1.0  0.58604  0.70995  0.24897  1.0000
  H   H1000     1.0  0.54957  0.74524  0.22997  1.0000
  C   C838      1.0  0.51047  0.70715  0.21735  1.0000
  H   H1001     1.0  0.62410  0.51092  0.04667  1.0000
  C   C839      1.0  0.71548  0.81397  0.20230  1.0000
  H   H1002     1.0  0.73264  0.79793  0.20218  1.0000
  H   H1003     1.0  0.54094  0.82407  0.09893  1.0000
  C   C840      1.0  0.61593  0.68916  0.00554  1.0000
  C   C841      1.0  0.59722  0.53294  0.45450  1.0000
  Fe  Fe120     1.0  0.74182  0.84892  0.29517  1.0000
  H   H1004     1.0  0.55059  0.64226  0.37838  1.0000
  N   N55       1.0  0.62349  0.51921  0.44174  1.0000
  H   H1005     1.0  0.64759  0.75335  0.24041  1.0000
  S   S234      1.0  0.51028  0.76111  0.28406  1.0000
  C   C842      1.0  0.59553  0.67870  0.98872  1.0000
  H   H1006     1.0  0.51165  0.73429  0.43727  1.0000
  C   C843      1.0  0.51594  0.68112  0.23216  1.0000
  C   C844      1.0  0.56899  0.70687  0.42199  1.0000
  C   C845      1.0  0.70654  0.60450  0.45437  1.0000
  H   H1007     1.0  0.67242  0.49467  0.02785  1.0000
  H   H1008     1.0  0.71488  0.75552  0.43242  1.0000
  H   H1009     1.0  0.54709  0.82203  0.99031  1.0000
  H   H1010     1.0  0.73884  0.69868  0.44611  1.0000
  H   H1011     1.0  0.64427  0.82693  0.21673  1.0000
  C   C846      1.0  0.58998  0.72486  0.41248  1.0000
  C   C847      1.0  0.63524  0.52298  0.06222  1.0000
  H   H1012     1.0  0.66128  0.56697  0.07784  1.0000
  H   H1013     1.0  0.69364  0.72571  0.43156  1.0000
  H   H1014     1.0  0.74350  0.77594  0.33194  1.0000
  C   C848      1.0  0.60449  0.73855  0.43289  1.0000
  C   C849      1.0  0.59641  0.66217  0.32242  1.0000
  H   H1015     1.0  0.68219  0.53667  0.08996  1.0000
  C   C850      1.0  0.66688  0.54535  0.99313  1.0000
  H   H1016     1.0  0.62073  0.75257  0.42535  1.0000
  C   C851      1.0  0.61306  0.81666  0.29074  1.0000
  C   C852      1.0  0.62889  0.83887  0.27870  1.0000
  C   C853      1.0  0.65772  0.84037  0.28528  1.0000
  C   C854      1.0  0.67094  0.81977  0.30430  1.0000
  C   C855      1.0  0.65501  0.79776  0.31668  1.0000
  C   C856      1.0  0.62628  0.79618  0.30997  1.0000
  H   H1017     1.0  0.61890  0.85481  0.26380  1.0000
  H   H1018     1.0  0.68864  0.58815  0.37316  1.0000
  N   N56       1.0  0.57694  0.82662  0.40104  1.0000
  C   C857      1.0  0.56254  0.80043  0.40911  1.0000
  C   C858      1.0  0.56306  0.84924  0.41809  1.0000
  C   C859      1.0  0.57226  0.83432  0.36928  1.0000
  C   C860      1.0  0.60733  0.82254  0.40816  1.0000
  C   C861      1.0  0.57727  0.71552  0.47264  1.0000
  C   C862      1.0  0.62973  0.82567  0.38658  1.0000
  H   H1019     1.0  0.55801  0.69629  0.40606  1.0000
  H   H1020     1.0  0.68989  0.60426  0.01181  1.0000
  H   H1021     1.0  0.51791  0.63652  0.22825  1.0000
  S   S235      1.0  0.72351  0.65035  0.41839  1.0000
  H   H1022     1.0  0.53970  0.80261  0.40345  1.0000
  H   H1023     1.0  0.57268  0.78281  0.39715  1.0000
  H   H1024     1.0  0.56286  0.84391  0.44229  1.0000
  H   H1025     1.0  0.54038  0.85349  0.41239  1.0000
  H   H1026     1.0  0.58120  0.81772  0.35509  1.0000
  H   H1027     1.0  0.54926  0.83709  0.36456  1.0000
  H   H1028     1.0  0.58160  0.85441  0.36176  1.0000
  C   C863      1.0  0.70806  0.61491  0.01965  1.0000
  H   H1029     1.0  0.51662  0.74749  0.05216  1.0000
  H   H1030     1.0  0.72477  0.59890  0.02657  1.0000
  H   H1031     1.0  0.56358  0.60726  0.99110  1.0000
  H   H1032     1.0  0.62986  0.63724  0.46544  1.0000
  N   N57       1.0  0.64808  0.67214  0.32216  1.0000
  C   C864      1.0  0.67268  0.67219  0.34151  1.0000
  C   C865      1.0  0.65605  0.65253  0.29907  1.0000
  C   C866      1.0  0.64356  0.70080  0.30794  1.0000
  C   C867      1.0  0.62164  0.66381  0.33804  1.0000
  C   C868      1.0  0.61992  0.65741  0.36906  1.0000
  H   H1033     1.0  0.66869  0.68752  0.35860  1.0000
  H   H1034     1.0  0.67794  0.65106  0.35243  1.0000
  H   H1035     1.0  0.65907  0.63063  0.30878  1.0000
  H   H1036     1.0  0.67633  0.65784  0.28731  1.0000
  H   H1037     1.0  0.63995  0.65308  0.28186  1.0000
  H   H1038     1.0  0.63637  0.71604  0.32443  1.0000
  H   H1039     1.0  0.66324  0.70818  0.29650  1.0000
  H   H1040     1.0  0.62726  0.70200  0.29088  1.0000
  H   H1041     1.0  0.63765  0.65899  0.38299  1.0000
  N   N58       1.0  0.60155  0.63382  0.19385  1.0000
  C   C869      1.0  0.58441  0.61190  0.18326  1.0000
  C   C870      1.0  0.62751  0.61945  0.20653  1.0000
  C   C871      1.0  0.58518  0.64763  0.21784  1.0000
  C   C872      1.0  0.60757  0.65491  0.16933  1.0000
  C   C873      1.0  0.58517  0.66759  0.15218  1.0000
  C   C874      1.0  0.63522  0.66388  0.16207  1.0000
  C   C875      1.0  0.59010  0.68744  0.12891  1.0000
  C   C876      1.0  0.63996  0.68384  0.13873  1.0000
  C   C877      1.0  0.61751  0.69547  0.12207  1.0000
  H   H1042     1.0  0.56230  0.61984  0.17902  1.0000
  H   H1043     1.0  0.59400  0.60380  0.16258  1.0000
  H   H1044     1.0  0.58257  0.59375  0.19971  1.0000
  H   H1045     1.0  0.64104  0.60919  0.18935  1.0000
  H   H1046     1.0  0.62238  0.60309  0.22417  1.0000
  H   H1047     1.0  0.64025  0.63438  0.21703  1.0000
  H   H1048     1.0  0.57415  0.63250  0.23323  1.0000
  H   H1049     1.0  0.59884  0.65906  0.23140  1.0000
  H   H1050     1.0  0.56918  0.66376  0.20921  1.0000
  H   H1051     1.0  0.56352  0.66248  0.15687  1.0000
  H   H1052     1.0  0.65358  0.65584  0.17403  1.0000
  H   H1053     1.0  0.57240  0.69666  0.11641  1.0000
  H   H1054     1.0  0.66129  0.69034  0.13360  1.0000
  H   H1055     1.0  0.62141  0.71090  0.10409  1.0000
  N   N59       1.0  0.53926  0.77037  0.08185  1.0000
  C   C878      1.0  0.53606  0.74511  0.06548  1.0000
  C   C879      1.0  0.56539  0.76563  0.09897  1.0000
  C   C880      1.0  0.51460  0.77270  0.10282  1.0000
  C   C881      1.0  0.54096  0.79654  0.06267  1.0000
  C   C882      1.0  0.54281  0.79694  0.03138  1.0000
  C   C883      1.0  0.54188  0.82270  0.07529  1.0000
  C   C884      1.0  0.54555  0.82201  0.01409  1.0000
  C   C885      1.0  0.54414  0.84764  0.05772  1.0000
  C   C886      1.0  0.54604  0.84728  0.02717  1.0000
  H   H1056     1.0  0.55476  0.74063  0.05064  1.0000
  H   H1057     1.0  0.70054  0.53709  0.37711  1.0000
  C   C887      1.0  0.50743  0.70940  0.18675  1.0000
  S   S236      1.0  0.73877  0.50948  0.98079  1.0000
  H   H1058     1.0  0.56851  0.78334  0.11275  1.0000
  C   C888      1.0  0.68626  0.58988  0.47191  1.0000
  H   H1059     1.0  0.51071  0.68582  0.42112  1.0000
  C   C889      1.0  0.63200  0.59411  0.99812  1.0000
  C   C890      1.0  0.72370  0.74373  0.35757  1.0000
  H   H1060     1.0  0.54184  0.77827  0.01967  1.0000
  H   H1061     1.0  0.54451  0.86736  0.06789  1.0000
  H   H1062     1.0  0.63929  0.50899  0.08242  1.0000
  H   H1063     1.0  0.54770  0.68693  0.45939  1.0000
  H   H1064     1.0  0.54789  0.86661  0.01349  1.0000
  H   H1065     1.0  0.70147  0.91784  0.43924  1.0000
  H   H1066     1.0  0.68223  0.73779  0.20373  1.0000
  H   H1067     1.0  0.68745  0.66606  0.01199  1.0000
  H   H1068     1.0  0.68726  0.81401  0.42958  1.0000
  S   S237      1.0  0.51931  0.71388  0.34072  1.0000
  H   H1069     1.0  0.71676  0.71011  0.01215  1.0000
  S   S238      1.0  0.52617  0.67839  0.26921  1.0000
  H   H1070     1.0  0.58333  0.54287  0.43697  1.0000
  H   H1071     1.0  0.70929  0.75847  0.36848  1.0000
  C   C891      1.0  0.67306  0.85721  0.20177  1.0000
  H   H1072     1.0  0.50240  0.49748  0.05086  1.0000
  C   C892      1.0  0.56315  0.70167  0.45211  1.0000
  C   C893      1.0  0.65561  0.55145  0.02153  1.0000
  C   C894      1.0  0.72279  0.71513  0.36501  1.0000
  N   N60       1.0  0.66195  0.53335  0.04856  1.0000
  H   H1073     1.0  0.67379  0.76698  0.17781  1.0000
  H   H1074     1.0  0.70093  0.62495  0.04020  1.0000
  H   H1075     1.0  0.73957  0.94259  0.14880  1.0000
  C   C895      1.0  0.63776  0.57629  0.02316  1.0000
  C   C896      1.0  0.74121  0.69633  0.35075  1.0000
  N   N61       1.0  0.71900  0.63545  0.99673  1.0000
  C   C897      1.0  0.68741  0.80736  0.21137  1.0000
  C   C898      1.0  0.63687  0.70522  0.99180  1.0000
  C   C899      1.0  0.64052  0.53841  0.42235  1.0000
  C   C900      1.0  0.63443  0.56787  0.41964  1.0000
  C   C901      1.0  0.66492  0.52789  0.40649  1.0000
  C   C902      1.0  0.65157  0.58541  0.40186  1.0000
  H   H1076     1.0  0.56434  0.74682  0.11472  1.0000
  C   C903      1.0  0.67519  0.57436  0.38647  1.0000
  S   S239      1.0  0.73708  0.63787  0.30494  1.0000
  H   H1077     1.0  0.73961  0.61844  0.11693  1.0000
  H   H1078     1.0  0.61704  0.57802  0.43168  1.0000
  H   H1079     1.0  0.64697  0.60782  0.40068  1.0000
  H   H1080     1.0  0.58456  0.76308  0.08425  1.0000
  H   H1081     1.0  0.63296  0.48269  0.41696  1.0000
  S   S240      1.0  0.59839  0.72992  0.37510  1.0000
  H   H1082     1.0  0.69219  0.67810  0.32866  1.0000
  S   S241      1.0  0.61045  0.59041  0.10353  1.0000
  Fe  Fe121     1.0  0.73250  0.64793  0.25571  1.0000
  C   C904      1.0  0.65140  0.77521  0.23212  1.0000
  S   S242      1.0  0.71377  0.67655  0.17537  1.0000
  Fe  Fe122     1.0  0.72879  0.63214  0.19175  1.0000
  H   H1083     1.0  0.66372  0.90315  0.40982  1.0000
  C   C905      1.0  0.70088  0.86303  0.19355  1.0000
  H   H1084     1.0  0.70956  0.75930  0.18908  1.0000
  C   C906      1.0  0.65819  0.82241  0.39434  1.0000
  H   H1085     1.0  0.60929  0.53180  0.97983  1.0000
  H   H1086     1.0  0.67157  0.50587  0.40823  1.0000
  S   S243      1.0  0.54010  0.58822  0.05943  1.0000
  S   S244      1.0  0.51806  0.65049  0.99822  1.0000
  H   H1087     1.0  0.58446  0.51773  0.46809  1.0000
  C   C907      1.0  0.74323  0.75358  0.33602  1.0000
  H   H1088     1.0  0.61531  0.68504  0.02929  1.0000
  C   C908      1.0  0.57119  0.65432  0.33685  1.0000
  H   H1089     1.0  0.69857  0.78358  0.26363  1.0000
  Fe  Fe123     1.0  0.50585  0.59416  0.09449  1.0000
  H   H1090     1.0  0.73970  0.61580  0.36517  1.0000
  S   S245      1.0  0.72946  0.50906  0.44474  1.0000
  C   C909      1.0  0.57028  0.64795  0.36721  1.0000
  H   H1091     1.0  0.74369  0.84632  0.18758  1.0000
  H   H1092     1.0  0.70613  0.88439  0.18729  1.0000
  H   H1093     1.0  0.68569  0.49538  0.06391  1.0000
  H   H1094     1.0  0.53380  0.72606  0.08072  1.0000
  H   H1095     1.0  0.57377  0.86914  0.41351  1.0000
  S   S246      1.0  0.73265  0.58792  0.17411  1.0000
  H   H1096     1.0  0.65671  0.87412  0.20181  1.0000
  N   N62       1.0  0.68127  0.77828  0.22153  1.0000
  H   H1097     1.0  0.72782  0.59521  0.45122  1.0000
  H   H1098     1.0  0.67988  0.52654  0.98945  1.0000
  C   C910      1.0  0.61530  0.81550  0.43765  1.0000
  C   C911      1.0  0.68698  0.75982  0.19698  1.0000
  C   C912      1.0  0.69983  0.76835  0.24623  1.0000
  C   C913      1.0  0.73730  0.57720  0.13745  1.0000
  H   H1099     1.0  0.62590  0.83063  0.36347  1.0000
  H   H1100     1.0  0.67484  0.82505  0.37739  1.0000
  C   C914      1.0  0.68449  0.90684  0.45059  1.0000
  H   H1101     1.0  0.73064  0.84679  0.99946  1.0000
  H   H1102     1.0  0.50558  0.72981  0.17527  1.0000
  C   C915      1.0  0.59266  0.51914  0.98940  1.0000
  H   H1103     1.0  0.69368  0.74790  0.25677  1.0000
  C   C916      1.0  0.66520  0.81599  0.42363  1.0000
  H   H1104     1.0  0.70808  0.70739  0.38205  1.0000
  H   H1105     1.0  0.51619  0.78947  0.11812  1.0000
  H   H1106     1.0  0.73523  0.53320  0.15037  1.0000
  H   H1107     1.0  0.65264  0.71361  0.00491  1.0000
  C   C917      1.0  0.74319  0.73134  0.97918  1.0000
  C   C918      1.0  0.51088  0.65914  0.18610  1.0000
  H   H1108     1.0  0.52501  0.52687  0.01543  1.0000
  H   H1109     1.0  0.68129  0.75504  0.45172  1.0000
  C   C919      1.0  0.68144  0.50857  0.04321  1.0000
  H   H1110     1.0  0.62405  0.87763  0.43349  1.0000
  C   C920      1.0  0.51467  0.65692  0.21675  1.0000
  C   C921      1.0  0.73675  0.71958  0.00761  1.0000
  H   H1111     1.0  0.57890  0.66658  0.99940  1.0000
  H   H1112     1.0  0.74178  0.88093  0.00561  1.0000
  C   C922      1.0  0.70050  0.74175  0.44588  1.0000
  H   H1113     1.0  0.73685  0.65842  0.02990  1.0000
  C   C923      1.0  0.65100  0.62778  0.46224  1.0000
  Fe  Fe124     1.0  0.49838  0.75714  0.33229  1.0000
  H   H1114     1.0  0.61813  0.61286  0.99998  1.0000
  H   H1115     1.0  0.74080  0.67403  0.35679  1.0000
  C   C924      1.0  0.69581  0.65733  0.99115  1.0000
  S   S247      1.0  0.50805  0.68966  0.13194  1.0000
  C   C925      1.0  0.56659  0.53184  0.99788  1.0000
  C   C926      1.0  0.74470  0.60349  0.32055  1.0000
  C   C927      1.0  0.74129  0.59653  0.11360  1.0000
  C   C928      1.0  0.74446  0.59855  0.35137  1.0000
  C   C929      1.0  0.73855  0.54854  0.13216  1.0000
  H   H1116     1.0  0.66055  0.49557  0.45867  1.0000
  N   N63       1.0  0.71463  0.72811  0.47223  1.0000
  H   H1117     1.0  0.70291  0.67560  0.97707  1.0000
  H   H1118     1.0  0.72683  0.57844  0.98445  1.0000
  C   C930      1.0  0.74467  0.53967  0.10350  1.0000
  H   H1119     1.0  0.71811  0.94648  0.47048  1.0000
  H   H1120     1.0  0.73979  0.89922  0.46670  1.0000
  H   H1121     1.0  0.64913  0.80749  0.46812  1.0000
  C   C931      1.0  0.74776  0.58791  0.08535  1.0000
  H   H1122     1.0  0.74562  0.51766  0.09962  1.0000
  Fe  Fe125     1.0  0.74762  0.69128  0.20393  1.0000
  C   C932      1.0  0.49878  0.48375  0.03283  1.0000
  C   C933      1.0  0.74818  0.86117  0.99515  1.0000
  Fe  Fe126     1.0  0.54978  0.70107  0.69336  1.0000
  C   C934      1.0  0.63485  0.56147  0.84589  1.0000
  S   S248      1.0  0.59472  0.69505  0.71017  1.0000
  C   C935      1.0  0.68418  0.90111  0.48166  1.0000
  S   S249      1.0  0.53947  0.74659  0.68197  1.0000
  S   S250      1.0  0.52728  0.68750  0.65459  1.0000
  H   H1123     1.0  0.64811  0.52437  0.47953  1.0000
  H   H1124     1.0  0.70928  0.58920  0.77087  1.0000
  H   H1125     1.0  0.74378  0.96497  0.66826  1.0000
  S   S251      1.0  0.70464  0.62497  0.66585  1.0000
  H   H1126     1.0  0.67961  0.59803  0.61651  1.0000
  H   H1127     1.0  0.63634  0.82172  0.92372  1.0000
  C   C936      1.0  0.66122  0.56344  0.96825  1.0000
  S   S252      1.0  0.72525  0.79935  0.54773  1.0000
  H   H1128     1.0  0.68538  0.95497  0.97108  1.0000
  C   C937      1.0  0.61671  0.70087  0.94340  1.0000
  H   H1129     1.0  0.63662  0.74604  0.90898  1.0000
  C   C938      1.0  0.66804  0.71769  0.49786  1.0000
  S   S253      1.0  0.54357  0.87051  0.94564  1.0000
  S   S254      1.0  0.52701  0.79071  0.94361  1.0000
  C   C939      1.0  0.70769  0.97754  0.92021  1.0000
  Fe  Fe127     1.0  0.74426  0.60947  0.69042  1.0000
  H   H1130     1.0  0.69683  0.55665  0.80652  1.0000
  Fe  Fe128     1.0  0.54696  0.61624  0.56228  1.0000
  S   S255      1.0  0.52806  0.60893  0.60880  1.0000
  Fe  Fe129     1.0  0.59168  0.60518  0.51328  1.0000
  Fe  Fe130     1.0  0.52841  0.61648  0.49817  1.0000
  S   S256      1.0  0.58855  0.63465  0.54965  1.0000
  S   S257      1.0  0.52107  0.64722  0.53285  1.0000
  Fe  Fe131     1.0  0.52810  0.67679  0.81436  1.0000
  Fe  Fe132     1.0  0.59246  0.68917  0.80929  1.0000
  S   S258      1.0  0.60593  0.64396  0.80665  1.0000
  S   S259      1.0  0.62269  0.72344  0.81626  1.0000
  Fe  Fe133     1.0  0.56976  0.64244  0.77556  1.0000
  S   S260      1.0  0.57991  0.61642  0.73566  1.0000
  Fe  Fe134     1.0  0.57330  0.63603  0.84297  1.0000
  S   S261      1.0  0.58401  0.60876  0.88430  1.0000
  S   S262      1.0  0.55811  0.68871  0.77621  1.0000
  S   S263      1.0  0.56158  0.68127  0.84726  1.0000
  Fe  Fe135     1.0  0.68142  0.80821  0.56730  1.0000
  S   S264      1.0  0.68869  0.77862  0.60747  1.0000
  S   S265      1.0  0.64592  0.80171  0.53580  1.0000
  S   S266      1.0  0.69510  0.84518  0.58961  1.0000
  Fe  Fe136     1.0  0.70276  0.82743  0.91499  1.0000
  S   S267      1.0  0.67804  0.86031  0.94041  1.0000
  S   S268      1.0  0.68237  0.79186  0.89701  1.0000
  C   C940      1.0  0.70744  0.80520  0.72523  1.0000
  C   C941      1.0  0.70781  0.80217  0.75651  1.0000
  H   H1131     1.0  0.51068  0.66437  0.93706  1.0000
  H   H1132     1.0  0.72122  0.78575  0.76713  1.0000
  Fe  Fe137     1.0  0.71964  0.76568  0.91609  1.0000
  C   C942      1.0  0.65728  0.96561  0.92104  1.0000
  C   C943      1.0  0.56448  0.61876  0.91602  1.0000
  C   C944      1.0  0.57191  0.60689  0.94399  1.0000
  H   H1133     1.0  0.61284  0.88326  0.76356  1.0000
  C   C945      1.0  0.71019  0.94082  0.49331  1.0000
  C   C946      1.0  0.52781  0.64833  0.93912  1.0000
  C   C947      1.0  0.54209  0.63915  0.91370  1.0000
  H   H1134     1.0  0.58871  0.59059  0.94580  1.0000
  C   C948      1.0  0.72721  0.73031  0.70035  1.0000
  C   C949      1.0  0.54342  0.61283  0.64332  1.0000
  C   C950      1.0  0.57269  0.60946  0.64738  1.0000
  C   C951      1.0  0.58342  0.61064  0.67579  1.0000
  C   C952      1.0  0.56540  0.61717  0.70003  1.0000
  C   C953      1.0  0.53620  0.62087  0.69582  1.0000
  C   C954      1.0  0.52534  0.61780  0.66785  1.0000
  H   H1135     1.0  0.58689  0.60484  0.62896  1.0000
  H   H1136     1.0  0.60589  0.60657  0.67903  1.0000
  C   C955      1.0  0.73429  0.89520  0.49043  1.0000
  C   C956      1.0  0.53561  0.63703  0.96708  1.0000
  H   H1137     1.0  0.58761  0.72674  0.87864  1.0000
  C   C957      1.0  0.65753  0.67102  0.51691  1.0000
  C   C958      1.0  0.63746  0.71098  0.96120  1.0000
  H   H1138     1.0  0.66035  0.71557  0.90325  1.0000
  C   C959      1.0  0.55624  0.84430  0.52237  1.0000
  C   C960      1.0  0.56416  0.81856  0.51089  1.0000
  C   C961      1.0  0.59140  0.80562  0.51586  1.0000
  C   C962      1.0  0.61110  0.81805  0.53245  1.0000
  C   C963      1.0  0.60304  0.84349  0.54446  1.0000
  C   C964      1.0  0.57586  0.85658  0.53927  1.0000
  H   H1139     1.0  0.54928  0.80858  0.49821  1.0000
  H   H1140     1.0  0.59717  0.78579  0.50676  1.0000
  H   H1141     1.0  0.61788  0.85337  0.55728  1.0000
  H   H1142     1.0  0.65428  0.72364  0.95212  1.0000
  C   C965      1.0  0.58075  0.86451  0.94675  1.0000
  C   C966      1.0  0.59523  0.84140  0.93468  1.0000
  C   C967      1.0  0.58840  0.72098  0.90278  1.0000
  C   C968      1.0  0.64065  0.85987  0.94461  1.0000
  C   C969      1.0  0.74382  0.71628  0.67862  1.0000
  H   H1143     1.0  0.72379  0.66994  0.48682  1.0000
  H   H1144     1.0  0.70170  0.76273  0.49878  1.0000
  S   S269      1.0  0.51126  0.69740  0.72385  1.0000
  H   H1145     1.0  0.69070  0.63915  0.51202  1.0000
  C   C970      1.0  0.71842  0.72900  0.79328  1.0000
  C   C971      1.0  0.70385  0.70669  0.78386  1.0000
  C   C972      1.0  0.67469  0.70415  0.79121  1.0000
  C   C973      1.0  0.65981  0.72401  0.80793  1.0000
  C   C974      1.0  0.67461  0.74582  0.81785  1.0000
  C   C975      1.0  0.70372  0.74806  0.81084  1.0000
  H   H1146     1.0  0.71503  0.69147  0.77057  1.0000
  H   H1147     1.0  0.66372  0.68700  0.78380  1.0000
  H   H1148     1.0  0.66358  0.76128  0.83093  1.0000
  H   H1149     1.0  0.71490  0.76473  0.81880  1.0000
  H   H1150     1.0  0.69213  0.56933  0.48197  1.0000
  C   C976      1.0  0.69092  0.82046  0.77370  1.0000
  H   H1151     1.0  0.50578  0.70305  0.47660  1.0000
  H   H1152     1.0  0.73218  0.93913  0.76967  1.0000
  H   H1153     1.0  0.66136  0.85637  0.77188  1.0000
  H   H1154     1.0  0.73039  0.74006  0.51284  1.0000
  S   S270      1.0  0.56903  0.63447  0.48060  1.0000
  C   C977      1.0  0.63557  0.94659  0.92012  1.0000
  Fe  Fe138     1.0  0.49999  0.74241  0.70969  1.0000
  H   H1155     1.0  0.62935  0.49265  0.48171  1.0000
  H   H1156     1.0  0.58336  0.82553  0.92605  1.0000
  H   H1157     1.0  0.52975  0.76682  0.54188  1.0000
  C   C978      1.0  0.72405  0.59179  0.53830  1.0000
  N   N64       1.0  0.70729  0.91025  0.49912  1.0000
  H   H1158     1.0  0.64014  0.66845  0.90268  1.0000
  H   H1159     1.0  0.72660  0.92923  0.63808  1.0000
  Fe  Fe139     1.0  0.70473  0.81508  0.62903  1.0000
  S   S271      1.0  0.52260  0.86224  0.51559  1.0000
  H   H1160     1.0  0.67780  0.54825  0.85663  1.0000
  C   C979      1.0  0.60696  0.95585  0.91853  1.0000
  C   C980      1.0  0.62425  0.67379  0.69845  1.0000
  C   C981      1.0  0.62507  0.66152  0.67157  1.0000
  C   C982      1.0  0.64967  0.64603  0.66239  1.0000
  C   C983      1.0  0.67386  0.64323  0.67961  1.0000
  C   C984      1.0  0.67313  0.65559  0.70651  1.0000
  C   C985      1.0  0.64833  0.67073  0.71589  1.0000
  H   H1161     1.0  0.60657  0.66364  0.65813  1.0000
  H   H1162     1.0  0.64980  0.63597  0.64194  1.0000
  H   H1163     1.0  0.69179  0.65417  0.71969  1.0000
  H   H1164     1.0  0.64788  0.68056  0.73652  1.0000
  S   S272      1.0  0.72982  0.83694  0.87438  1.0000
  S   S273      1.0  0.53844  0.63033  0.81217  1.0000
  S   S274      1.0  0.68886  0.81849  0.81306  1.0000
  C   C986      1.0  0.68998  0.82641  0.71105  1.0000
  Fe  Fe140     1.0  0.56305  0.66262  0.51762  1.0000
  N   N65       1.0  0.59116  0.81727  0.84135  1.0000
  C   C987      1.0  0.59525  0.78716  0.83605  1.0000
  C   C988      1.0  0.61680  0.82503  0.85600  1.0000
  C   C989      1.0  0.56670  0.82144  0.86231  1.0000
  C   C990      1.0  0.58562  0.83355  0.81307  1.0000
  C   C991      1.0  0.60412  0.85362  0.80022  1.0000
  C   C992      1.0  0.56130  0.82896  0.79706  1.0000
  C   C993      1.0  0.59831  0.86823  0.77315  1.0000
  C   C994      1.0  0.55541  0.84401  0.77038  1.0000
  C   C995      1.0  0.57399  0.86349  0.75832  1.0000
  H   H1165     1.0  0.61347  0.78324  0.82036  1.0000
  H   H1166     1.0  0.59956  0.77399  0.85669  1.0000
  H   H1167     1.0  0.57631  0.77886  0.82690  1.0000
  H   H1168     1.0  0.63639  0.82099  0.84228  1.0000
  H   H1169     1.0  0.62002  0.81238  0.87717  1.0000
  H   H1170     1.0  0.61523  0.84740  0.86122  1.0000
  H   H1171     1.0  0.54642  0.81608  0.85335  1.0000
  H   H1172     1.0  0.56922  0.80776  0.88296  1.0000
  H   H1173     1.0  0.56396  0.84357  0.86833  1.0000
  H   H1174     1.0  0.62338  0.85819  0.81052  1.0000
  H   H1175     1.0  0.54666  0.81348  0.80500  1.0000
  C   C996      1.0  0.70353  0.67933  0.49388  1.0000
  H   H1176     1.0  0.53649  0.84015  0.75889  1.0000
  H   H1177     1.0  0.64059  0.92433  0.92092  1.0000
  N   N66       1.0  0.60753  0.77505  0.73210  1.0000
  C   C997      1.0  0.58872  0.75635  0.75007  1.0000
  C   C998      1.0  0.62369  0.75790  0.71066  1.0000
  C   C999      1.0  0.62775  0.78552  0.75222  1.0000
  C   C1000     1.0  0.59205  0.79877  0.71588  1.0000
  C   C1001     1.0  0.60720  0.81864  0.69801  1.0000
  C   C1002     1.0  0.56193  0.80203  0.71586  1.0000
  C   C1003     1.0  0.59314  0.83995  0.68059  1.0000
  C   C1004     1.0  0.54803  0.82326  0.69816  1.0000
  C   C1005     1.0  0.56359  0.84212  0.68045  1.0000
  H   H1178     1.0  0.60091  0.73818  0.76107  1.0000
  H   H1179     1.0  0.57683  0.76752  0.76766  1.0000
  H   H1180     1.0  0.57359  0.74679  0.73624  1.0000
  H   H1181     1.0  0.63403  0.73866  0.72181  1.0000
  H   H1182     1.0  0.64064  0.76950  0.69845  1.0000
  H   H1183     1.0  0.60937  0.75099  0.69408  1.0000
  H   H1184     1.0  0.64538  0.79592  0.74010  1.0000
  H   H1185     1.0  0.61697  0.80078  0.76678  1.0000
  H   H1186     1.0  0.63802  0.76820  0.76649  1.0000
  H   H1187     1.0  0.63013  0.81731  0.69671  1.0000
  H   H1188     1.0  0.54853  0.78811  0.72890  1.0000
  H   H1189     1.0  0.60537  0.85439  0.66659  1.0000
  H   H1190     1.0  0.52501  0.82463  0.69787  1.0000
  H   H1191     1.0  0.55275  0.85820  0.66632  1.0000
  H   H1192     1.0  0.50533  0.94590  0.55636  1.0000
  C   C1006     1.0  0.72099  0.74982  0.49220  1.0000
  H   H1193     1.0  0.54583  0.73424  0.81550  1.0000
  H   H1194     1.0  0.67781  0.92225  0.95698  1.0000
  S   S275      1.0  0.68588  0.83083  0.67228  1.0000
  H   H1195     1.0  0.72158  0.88090  0.65962  1.0000
  H   H1196     1.0  0.68961  0.95285  0.49711  1.0000
  C   C1007     1.0  0.49891  0.77426  0.77319  1.0000
  H   H1197     1.0  0.73688  0.74048  0.71752  1.0000
  H   H1198     1.0  0.68568  0.74227  0.71758  1.0000
  H   H1199     1.0  0.73564  0.66282  0.94426  1.0000
  Fe  Fe141     1.0  0.73980  0.83330  0.57356  1.0000
  H   H1200     1.0  0.71774  0.53749  0.56008  1.0000
  H   H1201     1.0  0.72049  0.79114  0.71216  1.0000
  C   C1008     1.0  0.69559  0.70822  0.48793  1.0000
  N   N67       1.0  0.61619  0.70692  0.91103  1.0000
  N   N68       1.0  0.66865  0.57716  0.75707  1.0000
  N   N69       1.0  0.68730  0.95509  0.92375  1.0000
  C   C1009     1.0  0.62012  0.68035  0.89620  1.0000
  C   C1010     1.0  0.73080  0.88276  0.76677  1.0000
  C   C1011     1.0  0.66138  0.88583  0.49445  1.0000
  H   H1202     1.0  0.73223  0.54218  0.59502  1.0000
  H   H1203     1.0  0.59077  0.94080  0.91838  1.0000
  C   C1012     1.0  0.69117  0.59732  0.75728  1.0000
  C   C1013     1.0  0.68110  0.55057  0.74613  1.0000
  H   H1204     1.0  0.70018  0.60232  0.73470  1.0000
  H   H1205     1.0  0.60237  0.66642  0.90145  1.0000
  H   H1206     1.0  0.66505  0.53448  0.74710  1.0000
  H   H1207     1.0  0.68920  0.55348  0.72291  1.0000
  H   H1208     1.0  0.69938  0.54172  0.75922  1.0000
  H   H1209     1.0  0.61193  0.58416  0.77862  1.0000
  N   N70       1.0  0.60330  0.72284  0.59201  1.0000
  C   C1014     1.0  0.58187  0.70169  0.59004  1.0000
  C   C1015     1.0  0.60107  0.73308  0.62195  1.0000
  C   C1016     1.0  0.59582  0.74671  0.57034  1.0000
  C   C1017     1.0  0.63265  0.71105  0.58666  1.0000
  C   C1018     1.0  0.65458  0.72842  0.57607  1.0000
  C   C1019     1.0  0.64070  0.68236  0.59365  1.0000
  C   C1020     1.0  0.68248  0.71765  0.57175  1.0000
  C   C1021     1.0  0.66876  0.67179  0.58933  1.0000
  C   C1022     1.0  0.68958  0.68942  0.57834  1.0000
  H   H1210     1.0  0.58223  0.68567  0.60895  1.0000
  H   H1211     1.0  0.55979  0.71123  0.59030  1.0000
  H   H1212     1.0  0.58490  0.69116  0.56916  1.0000
  H   H1213     1.0  0.60535  0.71580  0.63919  1.0000
  H   H1214     1.0  0.57942  0.74264  0.62672  1.0000
  H   H1215     1.0  0.61646  0.74929  0.62451  1.0000
  H   H1216     1.0  0.60140  0.74144  0.54739  1.0000
  H   H1217     1.0  0.57277  0.75291  0.57090  1.0000
  H   H1218     1.0  0.60616  0.76611  0.57463  1.0000
  H   H1219     1.0  0.65052  0.75055  0.57109  1.0000
  H   H1220     1.0  0.62563  0.66782  0.60276  1.0000
  H   H1221     1.0  0.69877  0.73140  0.56350  1.0000
  H   H1222     1.0  0.67453  0.64990  0.59491  1.0000
  H   H1223     1.0  0.71134  0.68142  0.57525  1.0000
  H   H1224     1.0  0.56967  0.87476  0.73732  1.0000
  H   H1225     1.0  0.72563  0.61484  0.60756  1.0000
  H   H1226     1.0  0.68263  0.61732  0.76615  1.0000
  H   H1227     1.0  0.71676  0.57576  0.52547  1.0000
  C   C1023     1.0  0.74072  0.58239  0.93974  1.0000
  C   C1024     1.0  0.71676  0.59248  0.56877  1.0000
  N   N71       1.0  0.69784  0.57178  0.58330  1.0000
  C   C1025     1.0  0.71213  0.54341  0.58287  1.0000
  C   C1026     1.0  0.69020  0.57685  0.61450  1.0000
  C   C1027     1.0  0.52005  0.75374  0.78073  1.0000
  C   C1028     1.0  0.65861  0.60175  0.47656  1.0000
  C   C1029     1.0  0.69514  0.93495  0.90106  1.0000
  C   C1030     1.0  0.59594  0.68431  0.95813  1.0000
  Fe  Fe142     1.0  0.73344  0.77252  0.58914  1.0000
  H   H1228     1.0  0.73150  0.86210  0.75728  1.0000
  H   H1229     1.0  0.69857  0.52707  0.59333  1.0000
  C   C1031     1.0  0.73072  0.92408  0.66116  1.0000
  H   H1230     1.0  0.62265  0.86612  0.48733  1.0000
  H   H1231     1.0  0.67533  0.56150  0.62459  1.0000
  C   C1032     1.0  0.62520  0.83925  0.93335  1.0000
  H   H1232     1.0  0.68283  0.91537  0.53960  1.0000
  C   C1033     1.0  0.55760  0.61611  0.96955  1.0000
  C   C1034     1.0  0.63995  0.87760  0.47712  1.0000
  C   C1035     1.0  0.62722  0.57630  0.79466  1.0000
  C   C1036     1.0  0.50867  0.75960  0.54644  1.0000
  C   C1037     1.0  0.72889  0.70445  0.65650  1.0000
  H   H1233     1.0  0.63746  0.89701  0.96868  1.0000
  C   C1038     1.0  0.69926  0.70639  0.65652  1.0000
  C   C1039     1.0  0.68367  0.72006  0.67829  1.0000
  Fe  Fe143     1.0  0.51422  0.73283  0.64609  1.0000
  H   H1234     1.0  0.72600  0.94867  0.50779  1.0000
  C   C1040     1.0  0.51708  0.76655  0.83159  1.0000
  C   C1041     1.0  0.69762  0.73186  0.70031  1.0000
  H   H1235     1.0  0.68825  0.69681  0.63984  1.0000
  H   H1236     1.0  0.66073  0.72092  0.67822  1.0000
  H   H1237     1.0  0.62828  0.70678  0.51881  1.0000
  H   H1238     1.0  0.56999  0.87644  0.54832  1.0000
  Fe  Fe144     1.0  0.71012  0.80098  0.85603  1.0000
  C   C1042     1.0  0.64754  0.58920  0.73557  1.0000
  H   H1239     1.0  0.74301  0.55990  0.93809  1.0000
  H   H1240     1.0  0.66021  0.86136  0.71773  1.0000
  Fe  Fe145     1.0  0.50535  0.78757  0.90102  1.0000
  H   H1241     1.0  0.65955  0.87993  0.51777  1.0000
  S   S276      1.0  0.71960  0.72846  0.95001  1.0000
  C   C1043     1.0  0.63871  0.72537  0.89923  1.0000
  S   S277      1.0  0.55162  0.58392  0.52825  1.0000
  C   C1044     1.0  0.62593  0.88162  0.95871  1.0000
  C   C1045     1.0  0.67363  0.84478  0.72832  1.0000
  H   H1242     1.0  0.68968  0.94403  0.87868  1.0000
  H   H1243     1.0  0.64281  0.65669  0.52735  1.0000
  C   C1046     1.0  0.59623  0.88427  0.95921  1.0000
  S   S278      1.0  0.57048  0.70811  0.51027  1.0000
  H   H1244     1.0  0.53543  0.64775  0.89233  1.0000
  C   C1047     1.0  0.65658  0.57173  0.78731  1.0000
  H   H1245     1.0  0.63819  0.60988  0.74195  1.0000
  S   S279      1.0  0.73789  0.80104  0.93637  1.0000
  C   C1048     1.0  0.67407  0.84180  0.75916  1.0000
  C   C1049     1.0  0.72791  0.89690  0.67330  1.0000
  H   H1246     1.0  0.73524  0.87778  0.79052  1.0000
  C   C1050     1.0  0.61669  0.57131  0.82357  1.0000
  S   S280      1.0  0.63428  0.58367  0.50053  1.0000
  C   C1051     1.0  0.72852  0.62290  0.96895  1.0000
  H   H1247     1.0  0.73393  0.86787  0.70998  1.0000
  C   C1052     1.0  0.67439  0.56116  0.81052  1.0000
  H   H1248     1.0  0.63005  0.57508  0.73337  1.0000
  H   H1249     1.0  0.65723  0.59302  0.71308  1.0000
  H   H1250     1.0  0.70275  0.88189  0.53762  1.0000
  C   C1053     1.0  0.66365  0.55619  0.83934  1.0000
  H   H1251     1.0  0.70920  0.57478  0.62848  1.0000
  S   S281      1.0  0.52914  0.76162  0.86783  1.0000
  C   C1054     1.0  0.73622  0.64027  0.94366  1.0000
  H   H1252     1.0  0.57955  0.67587  0.94606  1.0000
  Fe  Fe146     1.0  0.51535  0.83647  0.93613  1.0000
  C   C1055     1.0  0.73470  0.88972  0.70258  1.0000
  H   H1253     1.0  0.59430  0.57561  0.82883  1.0000
  H   H1254     1.0  0.71344  0.93236  0.95630  1.0000
  H   H1255     1.0  0.65526  0.55867  0.57873  1.0000
  H   H1256     1.0  0.52188  0.62505  0.71428  1.0000
  H   H1257     1.0  0.57032  0.70744  0.90788  1.0000
  C   C1056     1.0  0.69108  0.94056  0.95332  1.0000
  H   H1258     1.0  0.70867  0.89203  0.76528  1.0000
  H   H1259     1.0  0.66067  0.73946  0.49486  1.0000
  C   C1057     1.0  0.68471  0.66122  0.50844  1.0000
  C   C1058     1.0  0.64929  0.69920  0.51179  1.0000
  H   H1260     1.0  0.62648  0.55810  0.86829  1.0000
  S   S282      1.0  0.74503  0.77015  0.87331  1.0000
  H   H1261     1.0  0.73644  0.76449  0.48188  1.0000
  C   C1059     1.0  0.74198  0.61088  0.52398  1.0000
  C   C1060     1.0  0.70288  0.90470  0.53142  1.0000
  H   H1262     1.0  0.63763  0.72970  0.87494  1.0000
  S   S283      1.0  0.52229  0.75691  0.60360  1.0000
  H   H1263     1.0  0.58376  0.74042  0.91446  1.0000
  H   H1264     1.0  0.62103  0.68416  0.87173  1.0000
  C   C1061     1.0  0.74661  0.93741  0.70785  1.0000
  C   C1062     1.0  0.72912  0.61314  0.58419  1.0000
  H   H1265     1.0  0.67438  0.56456  0.54483  1.0000
  C   C1063     1.0  0.74347  0.90995  0.72110  1.0000
  H   H1266     1.0  0.66092  0.59388  0.56445  1.0000
  C   C1064     1.0  0.67102  0.57229  0.56720  1.0000
  C   C1065     1.0  0.64390  0.58780  0.97075  1.0000
  C   C1066     1.0  0.52937  0.75008  0.80978  1.0000
  H   H1267     1.0  0.50272  0.61937  0.66512  1.0000
  H   H1268     1.0  0.63929  0.60157  0.95131  1.0000
  H   H1269     1.0  0.68467  0.91487  0.90529  1.0000
  H   H1270     1.0  0.52890  0.74054  0.76412  1.0000
  H   H1271     1.0  0.71823  0.92884  0.90068  1.0000
  H   H1272     1.0  0.67007  0.55832  0.94681  1.0000
  H   H1273     1.0  0.72055  0.91218  0.54380  1.0000
  H   H1274     1.0  0.60857  0.74511  0.47884  1.0000
  H   H1275     1.0  0.73955  0.69369  0.63882  1.0000
  H   H1276     1.0  0.73109  0.51662  0.83529  1.0000
  H   H1277     1.0  0.49944  0.89536  0.78801  1.0000
  C   C1067     1.0  0.73140  0.59346  0.96630  1.0000
  C   C1068     1.0  0.74717  0.63208  0.56970  1.0000
  H   H1278     1.0  0.73342  0.87219  0.49520  1.0000
  C   C1069     1.0  0.74031  0.94421  0.67830  1.0000
  H   H1279     1.0  0.73009  0.96879  0.92098  1.0000
  H   H1280     1.0  0.74666  0.50671  0.88676  1.0000
  H   H1281     1.0  0.58522  0.90189  0.96915  1.0000
  C   C1070     1.0  0.74511  0.62895  0.91713  1.0000
  C   C1071     1.0  0.74739  0.60006  0.91519  1.0000
  H   H1282     1.0  0.74760  0.89037  0.88160  1.0000
  C   C1072     1.0  0.49971  0.75191  0.57526  1.0000
  H   H1283     1.0  0.74776  0.60928  0.50083  1.0000
  H   H1284     1.0  0.87457  0.45431  0.99545  1.0000
  Fe  Fe147     1.0  0.79436  0.45443  0.45137  1.0000
  H   H1285     1.0  0.98781  0.32025  0.01706  1.0000
  C   C1073     1.0  0.90244  0.02487  0.98262  1.0000
  H   H1286     1.0  0.96906  0.25859  0.16269  1.0000
  Fe  Fe148     1.0  0.79797  0.45596  0.00966  1.0000
  S   S284      1.0  0.83104  0.42395  0.03053  1.0000
  S   S285      1.0  0.79232  0.00051  0.01915  1.0000
  H   H1287     1.0  0.86013  0.32946  0.00866  1.0000
  S   S286      1.0  0.94790  0.40561  0.38740  1.0000
  Fe  Fe149     1.0  0.81821  0.99476  0.97672  1.0000
  H   H1288     1.0  0.90292  0.45346  0.06701  1.0000
  H   H1289     1.0  0.98629  0.36317  0.27128  1.0000
  S   S287      1.0  0.96711  0.41057  0.02575  1.0000
  H   H1290     1.0  0.85128  0.44657  0.40437  1.0000
  H   H1291     1.0  0.78793  0.38791  0.44958  1.0000
  S   S288      1.0  0.99667  0.36359  0.16293  1.0000
  S   S289      1.0  0.98726  0.34436  0.08255  1.0000
  C   C1074     1.0  0.89688  0.47214  0.07808  1.0000
  H   H1292     1.0  0.97905  0.29568  0.25065  1.0000
  H   H1293     1.0  0.82765  0.38112  0.41535  1.0000
  C   C1075     1.0  0.96520  0.32808  0.01507  1.0000
  N   N72       1.0  0.95695  0.33213  0.98391  1.0000
  C   C1076     1.0  0.86890  0.42074  0.02867  1.0000
  C   C1077     1.0  0.88312  0.39974  0.04683  1.0000
  C   C1078     1.0  0.91305  0.39618  0.04615  1.0000
  C   C1079     1.0  0.92924  0.41348  0.02702  1.0000
  C   C1080     1.0  0.91505  0.43435  0.00868  1.0000
  C   C1081     1.0  0.88511  0.43814  0.00964  1.0000
  H   H1294     1.0  0.87083  0.38610  0.06159  1.0000
  H   H1295     1.0  0.92351  0.38004  0.06042  1.0000
  H   H1296     1.0  0.89976  0.01777  0.46040  1.0000
  H   H1297     1.0  0.78462  0.98787  0.42685  1.0000
  C   C1082     1.0  0.86352  0.41787  0.44082  1.0000
  C   C1083     1.0  0.88508  0.39872  0.45173  1.0000
  C   C1084     1.0  0.91081  0.39409  0.43547  1.0000
  C   C1085     1.0  0.91523  0.40859  0.40806  1.0000
  C   C1086     1.0  0.89337  0.42727  0.39695  1.0000
  C   C1087     1.0  0.86772  0.43198  0.41321  1.0000
  H   H1298     1.0  0.98740  0.24682  0.13040  1.0000
  H   H1299     1.0  0.89639  0.43830  0.37560  1.0000
  H   H1300     1.0  0.90892  0.30921  0.00855  1.0000
  H   H1301     1.0  0.98040  0.47285  0.05430  1.0000
  H   H1302     1.0  0.88199  0.38753  0.47299  1.0000
  H   H1303     1.0  0.92737  0.37960  0.44429  1.0000
  H   H1304     1.0  0.94203  0.02779  0.00427  1.0000
  C   C1088     1.0  0.80845  0.37043  0.41264  1.0000
  C   C1089     1.0  0.95224  0.44836  0.09983  1.0000
  S   S290      1.0  0.98939  0.33128  0.37301  1.0000
  H   H1305     1.0  0.95253  0.31254  0.02814  1.0000
  Fe  Fe150     1.0  0.75373  0.99474  0.99226  1.0000
  N   N73       1.0  0.94799  0.47813  0.08855  1.0000
  C   C1090     1.0  0.86812  0.48101  0.07867  1.0000
  C   C1091     1.0  0.99591  0.28467  0.23847  1.0000
  H   H1306     1.0  0.86283  0.01813  0.46941  1.0000
  H   H1307     1.0  0.92759  0.43713  0.47292  1.0000
  S   S291      1.0  0.83175  0.42340  0.46242  1.0000
  H   H1308     1.0  0.93701  0.47587  0.39269  1.0000
  C   C1092     1.0  0.99382  0.28206  0.20825  1.0000
  C   C1093     1.0  0.98973  0.24932  0.15434  1.0000
  H   H1309     1.0  0.97472  0.29098  0.19804  1.0000
  H   H1310     1.0  0.78149  0.32581  0.36809  1.0000
  C   C1094     1.0  0.87970  0.00892  0.45456  1.0000
  C   C1095     1.0  0.78247  0.33931  0.38608  1.0000
  C   C1096     1.0  0.78526  0.37415  0.43229  1.0000
  H   H1311     1.0  0.89326  0.14293  0.46016  1.0000
  C   C1097     1.0  0.99172  0.36367  0.22368  1.0000
  H   H1312     1.0  0.93840  0.98570  0.45368  1.0000
  Fe  Fe151     1.0  0.98742  0.37498  0.38909  1.0000
  C   C1098     1.0  0.92729  0.34414  0.98264  1.0000
  H   H1313     1.0  0.99304  0.22808  0.16568  1.0000
  H   H1314     1.0  0.97102  0.37390  0.21976  1.0000
  H   H1315     1.0  0.87484  0.01670  0.43157  1.0000
  H   H1316     1.0  0.85292  0.46914  0.06822  1.0000
  H   H1317     1.0  0.89350  0.01118  0.99996  1.0000
  C   C1099     1.0  0.87026  0.36687  0.98281  1.0000
  H   H1318     1.0  0.92728  0.44785  0.99372  1.0000
  H   H1319     1.0  0.94282  0.43379  0.08555  1.0000
  H   H1320     1.0  0.94537  0.46852  0.04311  1.0000
  H   H1321     1.0  0.82518  0.35036  0.37448  1.0000
  H   H1322     1.0  0.98670  0.30491  0.15152  1.0000
  C   C1100     1.0  0.80708  0.35309  0.38960  1.0000
  H   H1323     1.0  0.97814  0.37081  0.97784  1.0000
  C   C1101     1.0  0.75978  0.36048  0.42933  1.0000
  H   H1324     1.0  0.94275  0.44488  0.12246  1.0000
  C   C1102     1.0  0.93005  0.03420  0.98491  1.0000
  C   C1103     1.0  0.75914  0.34288  0.40561  1.0000
  H   H1325     1.0  0.97513  0.44135  0.10065  1.0000
  C   C1104     1.0  0.90487  0.32941  0.99691  1.0000
  H   H1326     1.0  0.88226  0.98295  0.05591  1.0000
  C   C1105     1.0  0.95786  0.48075  0.05722  1.0000
  S   S292      1.0  0.76076  0.45185  0.41802  1.0000
  C   C1106     1.0  0.87684  0.34074  0.99706  1.0000
  H   H1327     1.0  0.96222  0.34820  0.02585  1.0000
  S   S293      1.0  0.75744  0.46552  0.03667  1.0000
  H   H1328     1.0  0.94648  0.28885  0.98328  1.0000
  H   H1329     1.0  0.84864  0.37599  0.98364  1.0000
  N   N74       1.0  0.94687  0.16185  0.76078  1.0000
  S   S294      1.0  0.77910  0.99267  0.94973  1.0000
  H   H1330     1.0  0.93530  0.38388  0.95733  1.0000
  S   S295      1.0  0.85234  0.02090  0.95244  1.0000
  Fe  Fe152     1.0  0.82809  0.01814  0.54095  1.0000
  S   S296      1.0  0.87179  0.03527  0.52876  1.0000
  H   H1331     1.0  0.97431  0.12424  0.67053  1.0000
  S   S297      1.0  0.80052  0.02238  0.58175  1.0000
  S   S298      1.0  0.79103  0.02508  0.51062  1.0000
  C   C1107     1.0  0.92397  0.45701  0.48283  1.0000
  H   H1332     1.0  0.95037  0.20570  0.49407  1.0000
  S   S299      1.0  0.95294  0.09941  0.60788  1.0000
  C   C1108     1.0  0.88655  0.03330  0.95784  1.0000
  H   H1333     1.0  0.98065  0.13707  0.52307  1.0000
  H   H1334     1.0  0.97421  0.18483  0.56762  1.0000
  H   H1335     1.0  0.96315  0.12642  0.78813  1.0000
  H   H1336     1.0  0.95285  0.15638  0.80793  1.0000
  H   H1337     1.0  0.97579  0.18980  0.77736  1.0000
  H   H1338     1.0  0.86512  0.11571  0.49786  1.0000
  H   H1339     1.0  0.93127  0.99897  0.93022  1.0000
  H   H1340     1.0  0.90379  0.12728  0.75374  1.0000
  H   H1341     1.0  0.98187  0.00453  0.93308  1.0000
  C   C1109     1.0  0.95938  0.30461  0.97082  1.0000
  C   C1110     1.0  0.89450  0.05218  0.55150  1.0000
  C   C1111     1.0  0.88621  0.05904  0.58005  1.0000
  C   C1112     1.0  0.90451  0.07318  0.59693  1.0000
  C   C1113     1.0  0.93148  0.08046  0.58574  1.0000
  C   C1114     1.0  0.93991  0.07340  0.55726  1.0000
  C   C1115     1.0  0.92149  0.05946  0.54027  1.0000
  H   H1342     1.0  0.86555  0.05371  0.58905  1.0000
  H   H1343     1.0  0.89763  0.07858  0.61884  1.0000
  H   H1344     1.0  0.96048  0.07890  0.54822  1.0000
  H   H1345     1.0  0.92817  0.05440  0.51821  1.0000
  S   S300      1.0  0.77485  0.45118  0.96776  1.0000
  C   C1116     1.0  0.89871  0.05116  0.93553  1.0000
  C   C1117     1.0  0.92635  0.06035  0.93775  1.0000
  H   H1346     1.0  0.75659  0.37552  0.48750  1.0000
  C   C1118     1.0  0.97342  0.17702  0.75824  1.0000
  C   C1119     1.0  0.92781  0.15817  0.52164  1.0000
  C   C1120     1.0  0.89819  0.14299  0.48322  1.0000
  H   H1347     1.0  0.93535  0.07393  0.92030  1.0000
  C   C1121     1.0  0.88860  0.12758  0.53397  1.0000
  C   C1122     1.0  0.91960  0.12730  0.73596  1.0000
  H   H1348     1.0  0.90295  0.98692  0.87086  1.0000
  N   N75       1.0  0.95252  0.17316  0.52979  1.0000
  C   C1123     1.0  0.88225  0.12774  0.50436  1.0000
  C   C1124     1.0  0.94341  0.14396  0.73609  1.0000
  C   C1125     1.0  0.92068  0.15796  0.49163  1.0000
  H   H1349     1.0  0.88669  0.05787  0.91625  1.0000
  H   H1350     1.0  0.98184  0.15438  0.70956  1.0000
  C   C1126     1.0  0.91572  0.11030  0.71291  1.0000
  H   H1351     1.0  0.93247  0.09611  0.67149  1.0000
  C   C1127     1.0  0.97466  0.98568  0.92458  1.0000
  C   C1128     1.0  0.93540  0.10932  0.68939  1.0000
  C   C1129     1.0  0.95607  0.17262  0.56211  1.0000
  H   H1352     1.0  0.89741  0.09774  0.71324  1.0000
  S   S301      1.0  0.99409  0.13187  0.91152  1.0000
  C   C1130     1.0  0.94970  0.20300  0.51852  1.0000
  C   C1131     1.0  0.96299  0.14263  0.71159  1.0000
  C   C1132     1.0  0.95897  0.12536  0.68881  1.0000
  C   C1133     1.0  0.92275  0.18313  0.76186  1.0000
  H   H1353     1.0  0.97335  0.35375  0.94424  1.0000
  H   H1354     1.0  0.97934  0.16250  0.49214  1.0000
  H   H1355     1.0  0.89208  0.00069  0.90544  1.0000
  C   C1134     1.0  0.89648  0.46613  0.49181  1.0000
  H   H1356     1.0  0.92139  0.19618  0.74064  1.0000
  C   C1135     1.0  0.94720  0.14441  0.78912  1.0000
  H   H1357     1.0  0.96066  0.15092  0.57182  1.0000
  C   C1136     1.0  0.97874  0.15994  0.51661  1.0000
  H   H1358     1.0  0.92945  0.21333  0.52669  1.0000
  Fe  Fe153     1.0  0.76293  0.02577  0.55216  1.0000
  C   C1137     1.0  0.89167  0.98209  0.89235  1.0000
  H   H1359     1.0  0.92493  0.19739  0.77979  1.0000
  H   H1360     1.0  0.96745  0.21498  0.52565  1.0000
  H   H1361     1.0  0.99242  0.16222  0.75777  1.0000
  C   C1138     1.0  0.94229  0.05190  0.96247  1.0000
  H   H1362     1.0  0.97417  0.19157  0.73807  1.0000
  H   H1363     1.0  0.95231  0.30658  0.94767  1.0000
  C   C1139     1.0  0.94561  0.98246  0.92255  1.0000
  H   H1364     1.0  0.90204  0.17352  0.76604  1.0000
  H   H1365     1.0  0.92641  0.13565  0.79522  1.0000
  C   C1140     1.0  0.91105  0.14240  0.54264  1.0000
  H   H1366     1.0  0.91517  0.14057  0.56591  1.0000
  H   H1367     1.0  0.84364  0.46308  0.52305  1.0000
  C   C1141     1.0  0.89164  0.38169  0.96823  1.0000
  S   S302      1.0  0.76200  0.46071  0.48840  1.0000
  C   C1142     1.0  0.94679  0.47329  0.48651  1.0000
  H   H1368     1.0  0.87992  0.45228  0.48845  1.0000
  H   H1369     1.0  0.83866  0.47876  0.48624  1.0000
  C   C1143     1.0  0.97788  0.35017  0.96807  1.0000
  H   H1370     1.0  0.93689  0.18190  0.57356  1.0000
  H   H1371     1.0  0.87641  0.11529  0.55030  1.0000
  S   S303      1.0  0.97777  0.06187  0.96610  1.0000
  H   H1372     1.0  0.93280  0.16900  0.47439  1.0000
  C   C1144     1.0  0.91980  0.37074  0.96820  1.0000
  H   H1373     1.0  0.88640  0.40228  0.95769  1.0000
  H   H1374     1.0  0.96804  0.46607  0.47956  1.0000
  H   H1375     1.0  0.98166  0.29538  0.97072  1.0000
  H   H1376     1.0  0.99807  0.16926  0.52393  1.0000
  S   S304      1.0  0.95017  0.75807  0.34711  1.0000
  H   H1377     1.0  0.83142  0.51890  0.33530  1.0000
  C   C1145     1.0  0.91756  0.66082  0.37044  1.0000
  C   C1146     1.0  0.76434  0.82759  0.09981  1.0000
  C   C1147     1.0  0.89514  0.94959  0.41363  1.0000
  C   C1148     1.0  0.79779  0.86844  0.00004  1.0000
  S   S305      1.0  0.80913  0.92457  0.06675  1.0000
  H   H1378     1.0  0.87621  0.74609  0.46884  1.0000
  C   C1149     1.0  0.77325  0.91287  0.16312  1.0000
  S   S306      1.0  0.77959  0.84926  0.32430  1.0000
  Fe  Fe154     1.0  0.80635  0.84361  0.28300  1.0000
  S   S307      1.0  0.80861  0.88991  0.27113  1.0000
  S   S308      1.0  0.84369  0.81177  0.27575  1.0000
  Fe  Fe155     1.0  0.76937  0.88660  0.24519  1.0000
  C   C1150     1.0  0.88075  0.91235  0.06736  1.0000
  H   H1379     1.0  0.79923  0.73500  0.25464  1.0000
  H   H1380     1.0  0.83177  0.52587  0.21641  1.0000
  H   H1381     1.0  0.79933  0.52414  0.19772  1.0000
  H   H1382     1.0  0.81041  0.59792  0.18515  1.0000
  C   C1151     1.0  0.90809  0.54840  0.17610  1.0000
  S   S309      1.0  0.79830  0.64451  0.45957  1.0000
  H   H1383     1.0  0.89249  0.82846  0.39312  1.0000
  H   H1384     1.0  0.82264  0.53928  0.13635  1.0000
  S   S310      1.0  0.76645  0.73480  0.19871  1.0000
  H   H1385     1.0  0.80767  0.75533  0.99291  1.0000
  C   C1152     1.0  0.87322  0.96205  0.05790  1.0000
  C   C1153     1.0  0.96645  0.49473  0.10537  1.0000
  Fe  Fe156     1.0  0.92705  0.78811  0.18960  1.0000
  S   S311      1.0  0.91309  0.83361  0.18841  1.0000
  S   S312      1.0  0.89921  0.75225  0.18355  1.0000
  Fe  Fe157     1.0  0.94580  0.83871  0.15196  1.0000
  S   S313      1.0  0.93703  0.86315  0.10911  1.0000
  Fe  Fe158     1.0  0.94964  0.83718  0.21816  1.0000
  S   S314      1.0  0.94413  0.86932  0.25272  1.0000
  S   S315      1.0  0.95740  0.79310  0.15088  1.0000
  S   S316      1.0  0.96179  0.79063  0.22211  1.0000
  C   C1154     1.0  0.82238  0.52768  0.19425  1.0000
  N   N76       1.0  0.77547  0.84814  0.00613  1.0000
  S   S317      1.0  0.78963  0.68695  0.39975  1.0000
  Fe  Fe159     1.0  0.81715  0.68322  0.43876  1.0000
  H   H1386     1.0  0.86675  0.90884  0.04903  1.0000
  Fe  Fe160     1.0  0.82296  0.66023  0.37667  1.0000
  S   S318      1.0  0.80399  0.62029  0.39332  1.0000
  S   S319      1.0  0.84397  0.67072  0.33159  1.0000
  Fe  Fe161     1.0  0.77203  0.64674  0.41907  1.0000
  Fe  Fe162     1.0  0.83226  0.62224  0.43205  1.0000
  S   S320      1.0  0.86144  0.58443  0.44479  1.0000
  S   S321      1.0  0.85259  0.66081  0.41418  1.0000
  Fe  Fe163     1.0  0.81946  0.63494  0.09630  1.0000
  S   S322      1.0  0.84092  0.67109  0.11155  1.0000
  S   S323      1.0  0.84074  0.59704  0.07636  1.0000
  Fe  Fe164     1.0  0.81128  0.66628  0.15184  1.0000
  S   S324      1.0  0.83284  0.64930  0.19565  1.0000
  Fe  Fe165     1.0  0.80537  0.69748  0.08914  1.0000
  S   S325      1.0  0.80676  0.73337  0.05361  1.0000
  S   S326      1.0  0.78987  0.63030  0.13550  1.0000
  S   S327      1.0  0.78714  0.66115  0.07083  1.0000
  N   N77       1.0  0.82761  0.59298  0.98054  1.0000
  C   C1155     1.0  0.78172  0.73296  0.02542  1.0000
  C   C1156     1.0  0.89275  0.59479  0.15697  1.0000
  S   S328      1.0  0.99646  0.69113  0.12807  1.0000
  H   H1387     1.0  0.75047  0.71122  0.05234  1.0000
  C   C1157     1.0  0.78783  0.74546  0.99723  1.0000
  C   C1158     1.0  0.83598  0.66564  0.29449  1.0000
  C   C1159     1.0  0.82354  0.64186  0.28603  1.0000
  C   C1160     1.0  0.82139  0.63755  0.25574  1.0000
  C   C1161     1.0  0.82999  0.65768  0.23353  1.0000
  C   C1162     1.0  0.84170  0.68162  0.24245  1.0000
  C   C1163     1.0  0.84507  0.68532  0.27246  1.0000
  H   H1388     1.0  0.81654  0.62631  0.30267  1.0000
  H   H1389     1.0  0.81315  0.61841  0.24955  1.0000
  H   H1390     1.0  0.85020  0.69647  0.22628  1.0000
  H   H1391     1.0  0.85526  0.70347  0.27859  1.0000
  C   C1164     1.0  0.93699  0.58109  0.06547  1.0000
  C   C1165     1.0  0.92626  0.60478  0.07960  1.0000
  C   C1166     1.0  0.89663  0.61058  0.08264  1.0000
  C   C1167     1.0  0.87792  0.59253  0.07179  1.0000
  C   C1168     1.0  0.88887  0.56944  0.05709  1.0000
  C   C1169     1.0  0.91815  0.56378  0.05392  1.0000
  H   H1392     1.0  0.88833  0.62864  0.09376  1.0000
  H   H1393     1.0  0.87459  0.55537  0.04872  1.0000
  H   H1394     1.0  0.92619  0.54564  0.04276  1.0000
  N   N78       1.0  0.89532  0.93886  0.06185  1.0000
  C   C1170     1.0  0.78559  0.91686  0.43062  1.0000
  C   C1171     1.0  0.89766  0.58426  0.45385  1.0000
  C   C1172     1.0  0.76193  0.73494  0.32058  1.0000
  H   H1395     1.0  0.90679  0.54515  0.43429  1.0000
  C   C1173     1.0  0.95394  0.85945  0.28913  1.0000
  C   C1174     1.0  0.94932  0.87820  0.31143  1.0000
  C   C1175     1.0  0.95769  0.87039  0.34045  1.0000
  C   C1176     1.0  0.97101  0.84389  0.34702  1.0000
  H   H1396     1.0  0.93941  0.89881  0.30620  1.0000
  H   H1397     1.0  0.95451  0.88499  0.35743  1.0000
  C   C1177     1.0  0.96172  0.85050  0.08285  1.0000
  C   C1178     1.0  0.95573  0.85449  0.05302  1.0000
  C   C1179     1.0  0.97393  0.84239  0.03189  1.0000
  H   H1398     1.0  0.93662  0.86627  0.04634  1.0000
  H   H1399     1.0  0.96839  0.84462  0.00906  1.0000
  C   C1180     1.0  0.80308  0.74124  0.19305  1.0000
  C   C1181     1.0  0.81378  0.76624  0.20123  1.0000
  C   C1182     1.0  0.84321  0.77049  0.19832  1.0000
  C   C1183     1.0  0.86187  0.75009  0.18627  1.0000
  C   C1184     1.0  0.85078  0.72614  0.17657  1.0000
  C   C1185     1.0  0.82179  0.72163  0.18053  1.0000
  H   H1400     1.0  0.79953  0.78190  0.21081  1.0000
  H   H1401     1.0  0.85141  0.78913  0.20601  1.0000
  H   H1402     1.0  0.86487  0.71006  0.16742  1.0000
  H   H1403     1.0  0.81398  0.70239  0.17495  1.0000
  N   N79       1.0  0.84967  0.54882  0.36083  1.0000
  C   C1186     1.0  0.79828  0.89823  0.15401  1.0000
  C   C1187     1.0  0.91122  0.94263  0.08867  1.0000
  C   C1188     1.0  0.77245  0.84070  0.03824  1.0000
  C   C1189     1.0  0.81162  0.57680  0.19670  1.0000
  H   H1404     1.0  0.79021  0.55359  0.15250  1.0000
  C   C1190     1.0  0.96734  0.83328  0.29583  1.0000
  H   H1405     1.0  0.78503  0.89159  0.39307  1.0000
  H   H1406     1.0  0.82230  0.57863  0.21776  1.0000
  C   C1191     1.0  0.78361  0.72774  0.27198  1.0000
  C   C1192     1.0  0.79472  0.92071  0.10373  1.0000
  C   C1193     1.0  0.86445  0.58831  0.16163  1.0000
  H   H1407     1.0  0.85410  0.54229  0.31414  1.0000
  C   C1194     1.0  0.81336  0.55613  0.14983  1.0000
  H   H1408     1.0  0.84838  0.60445  0.15526  1.0000
  C   C1195     1.0  0.78515  0.91255  0.40028  1.0000
  S   S329      1.0  0.77749  0.69702  0.13030  1.0000
  C   C1196     1.0  0.93136  0.97265  0.43734  1.0000
  C   C1197     1.0  0.75593  0.72021  0.03053  1.0000
  H   H1409     1.0  0.85562  0.52658  0.47245  1.0000
  H   H1410     1.0  0.89675  0.48407  0.42777  1.0000
  C   C1198     1.0  0.87978  0.54177  0.18120  1.0000
  H   H1411     1.0  0.82799  0.74996  0.29418  1.0000
  H   H1412     1.0  0.78908  0.57210  0.20189  1.0000
  C   C1199     1.0  0.87415  0.51424  0.39842  1.0000
  C   C1200     1.0  0.89644  0.75404  0.45933  1.0000
  C   C1201     1.0  0.91497  0.93905  0.03570  1.0000
  C   C1202     1.0  0.75897  0.93116  0.14216  1.0000
  C   C1203     1.0  0.92087  0.77398  0.32738  1.0000
  C   C1204     1.0  0.89404  0.77700  0.34171  1.0000
  C   C1205     1.0  0.87036  0.78930  0.32652  1.0000
  C   C1206     1.0  0.87330  0.79895  0.29683  1.0000
  C   C1207     1.0  0.89996  0.79525  0.28242  1.0000
  C   C1208     1.0  0.92354  0.78284  0.29757  1.0000
  H   H1413     1.0  0.89151  0.76970  0.36461  1.0000
  H   H1414     1.0  0.84970  0.79051  0.33752  1.0000
  H   H1415     1.0  0.90237  0.80197  0.25929  1.0000
  H   H1416     1.0  0.94381  0.77998  0.28612  1.0000
  C   C1209     1.0  0.90741  0.51199  0.10454  1.0000
  H   H1417     1.0  0.86110  0.96012  0.03771  1.0000
  H   H1418     1.0  0.77538  0.69037  0.31999  1.0000
  H   H1419     1.0  0.90471  0.89908  0.01909  1.0000
  C   C1210     1.0  0.87854  0.52060  0.10518  1.0000
  S   S330      1.0  0.75571  0.55099  0.04313  1.0000
  H   H1420     1.0  0.86376  0.56729  0.99641  1.0000
  C   C1211     1.0  0.77693  0.77446  0.28660  1.0000
  S   S331      1.0  0.96129  0.88337  0.44728  1.0000
  C   C1212     1.0  0.81135  0.74289  0.31061  1.0000
  H   H1421     1.0  0.78573  0.58483  0.99789  1.0000
  C   C1213     1.0  0.75098  0.58109  0.30294  1.0000
  H   H1422     1.0  0.94037  0.89914  0.97969  1.0000
  C   C1214     1.0  0.76275  0.85538  0.08850  1.0000
  H   H1423     1.0  0.79162  0.78053  0.26777  1.0000
  H   H1424     1.0  0.93788  0.50173  0.34376  1.0000
  H   H1425     1.0  0.90471  0.84225  0.01718  1.0000
  H   H1426     1.0  0.81550  0.68660  0.00255  1.0000
  C   C1215     1.0  0.87358  0.52908  0.37020  1.0000
  H   H1427     1.0  0.81950  0.55450  0.32604  1.0000
  H   H1428     1.0  0.95703  0.72828  0.42616  1.0000
  H   H1429     1.0  0.93616  0.75946  0.41556  1.0000
  Fe  Fe166     1.0  0.76374  0.51026  0.02154  1.0000
  C   C1216     1.0  0.94316  0.55764  0.45557  1.0000
  H   H1430     1.0  0.84225  0.59297  0.34887  1.0000
  H   H1431     1.0  0.84437  0.83806  0.34631  1.0000
  C   C1217     1.0  0.81480  0.67157  0.98590  1.0000
  H   H1432     1.0  0.92889  0.92620  0.09155  1.0000
  H   H1433     1.0  0.95607  0.50295  0.04813  1.0000
  H   H1434     1.0  0.89082  0.77040  0.44159  1.0000
  N   N80       1.0  0.78292  0.74494  0.29784  1.0000
  N   N81       1.0  0.86118  0.80197  0.10278  1.0000
  C   C1218     1.0  0.84286  0.77877  0.11280  1.0000
  C   C1219     1.0  0.88635  0.79954  0.12144  1.0000
  C   C1220     1.0  0.84477  0.82869  0.10808  1.0000
  C   C1221     1.0  0.87050  0.80176  0.07132  1.0000
  C   C1222     1.0  0.86477  0.77984  0.05344  1.0000
  C   C1223     1.0  0.88583  0.82398  0.05759  1.0000
  H   H1435     1.0  0.76249  0.72857  0.26197  1.0000
  C   C1224     1.0  0.89342  0.82492  0.02749  1.0000
  H   H1436     1.0  0.85746  0.96207  0.07680  1.0000
  H   H1437     1.0  0.85461  0.75791  0.11241  1.0000
  H   H1438     1.0  0.83490  0.78035  0.13600  1.0000
  H   H1439     1.0  0.82388  0.77871  0.09909  1.0000
  H   H1440     1.0  0.89896  0.77940  0.11895  1.0000
  H   H1441     1.0  0.88009  0.80024  0.14524  1.0000
  H   H1442     1.0  0.90074  0.81678  0.11617  1.0000
  H   H1443     1.0  0.82692  0.83255  0.09273  1.0000
  H   H1444     1.0  0.83560  0.82873  0.13102  1.0000
  H   H1445     1.0  0.85813  0.84701  0.10538  1.0000
  H   H1446     1.0  0.85434  0.76154  0.06217  1.0000
  H   H1447     1.0  0.89205  0.84076  0.07011  1.0000
  S   S332      1.0  0.75850  0.90902  0.19996  1.0000
  C   C1225     1.0  0.80884  0.90210  0.12456  1.0000
  H   H1448     1.0  0.95225  0.77989  0.07986  1.0000
  N   N82       1.0  0.96880  0.74383  0.05693  1.0000
  C   C1226     1.0  0.95338  0.72196  0.07428  1.0000
  H   H1449     1.0  0.75167  0.60359  0.06767  1.0000
  C   C1227     1.0  0.78502  0.93538  0.37935  1.0000
  C   C1228     1.0  0.97337  0.73536  0.02632  1.0000
  S   S333      1.0  0.82422  0.94786  0.98507  1.0000
  C   C1229     1.0  0.95232  0.74154  0.00490  1.0000
  C   C1230     1.0  0.89750  0.52442  0.35091  1.0000
  C   C1231     1.0  0.92011  0.50552  0.35904  1.0000
  C   C1232     1.0  0.93730  0.68121  0.36632  1.0000
  C   C1233     1.0  0.91455  0.57485  0.16399  1.0000
  C   C1234     1.0  0.80813  0.58296  0.00479  1.0000
  C   C1235     1.0  0.74950  0.55953  0.08003  1.0000
  H   H1450     1.0  0.99308  0.89962  0.23294  1.0000
  H   H1451     1.0  0.75124  0.58466  0.27919  1.0000
  C   C1236     1.0  0.76961  0.93514  0.11277  1.0000
  H   H1452     1.0  0.85727  0.51670  0.41484  1.0000
  H   H1453     1.0  0.89210  0.80464  0.98704  1.0000
  H   H1454     1.0  0.80917  0.59458  0.02490  1.0000
  C   C1237     1.0  0.91978  0.49105  0.38668  1.0000
  H   H1455     1.0  0.93249  0.75280  0.01001  1.0000
  H   H1456     1.0  0.93966  0.62685  0.32015  1.0000
  C   C1238     1.0  0.85216  0.96867  0.45458  1.0000
  H   H1457     1.0  0.96006  0.93675  0.38053  1.0000
  N   N83       1.0  0.86712  0.86344  0.37323  1.0000
  C   C1239     1.0  0.89343  0.84472  0.37450  1.0000
  C   C1240     1.0  0.86282  0.87502  0.40265  1.0000
  C   C1241     1.0  0.84272  0.84667  0.36839  1.0000
  C   C1242     1.0  0.86893  0.88524  0.34856  1.0000
  C   C1243     1.0  0.85808  0.91328  0.35123  1.0000
  C   C1244     1.0  0.87870  0.87811  0.31996  1.0000
  C   C1245     1.0  0.85814  0.93302  0.32706  1.0000
  C   C1246     1.0  0.87880  0.89804  0.29603  1.0000
  C   C1247     1.0  0.86860  0.92546  0.29957  1.0000
  H   H1458     1.0  0.91233  0.85680  0.37733  1.0000
  H   H1459     1.0  0.89881  0.53522  0.32931  1.0000
  H   H1460     1.0  0.89753  0.83290  0.35459  1.0000
  H   H1461     1.0  0.87959  0.88939  0.40675  1.0000
  H   H1462     1.0  0.86356  0.85828  0.42094  1.0000
  H   H1463     1.0  0.84170  0.88630  0.40538  1.0000
  C   C1248     1.0  0.90240  0.96656  0.43627  1.0000
  C   C1249     1.0  0.89695  0.49555  0.40636  1.0000
  H   H1464     1.0  0.82246  0.85985  0.36897  1.0000
  H   H1465     1.0  0.84822  0.92023  0.37137  1.0000
  H   H1466     1.0  0.88560  0.85695  0.31526  1.0000
  H   H1467     1.0  0.76680  0.80803  0.99099  1.0000
  H   H1468     1.0  0.88624  0.89189  0.27443  1.0000
  H   H1469     1.0  0.86787  0.94059  0.28072  1.0000
  N   N84       1.0  0.93591  0.70576  0.25258  1.0000
  C   C1250     1.0  0.91045  0.72529  0.25462  1.0000
  C   C1251     1.0  0.95859  0.71694  0.26928  1.0000
  C   C1252     1.0  0.94597  0.70560  0.22129  1.0000
  C   C1253     1.0  0.92844  0.67730  0.26362  1.0000
  C   C1254     1.0  0.90928  0.66264  0.24813  1.0000
  C   C1255     1.0  0.93929  0.66356  0.28995  1.0000
  C   C1256     1.0  0.90122  0.63608  0.25839  1.0000
  C   C1257     1.0  0.93116  0.63689  0.30001  1.0000
  H   H1470     1.0  0.96000  0.49388  0.12917  1.0000
  H   H1471     1.0  0.90207  0.72600  0.27776  1.0000
  H   H1472     1.0  0.91518  0.74700  0.24647  1.0000
  H   H1473     1.0  0.89305  0.71938  0.24099  1.0000
  H   H1474     1.0  0.97819  0.70286  0.26909  1.0000
  H   H1475     1.0  0.95163  0.72023  0.29248  1.0000
  H   H1476     1.0  0.96474  0.73766  0.25945  1.0000
  H   H1477     1.0  0.92896  0.70158  0.20624  1.0000
  H   H1478     1.0  0.95376  0.72617  0.21278  1.0000
  H   H1479     1.0  0.96344  0.68930  0.21842  1.0000
  H   H1480     1.0  0.89980  0.67191  0.22818  1.0000
  H   H1481     1.0  0.95411  0.67298  0.30312  1.0000
  S   S334      1.0  0.76547  0.51467  0.36212  1.0000
  C   C1258     1.0  0.77003  0.80622  0.08089  1.0000
  N   N85       1.0  0.91577  0.73138  0.44813  1.0000
  C   C1259     1.0  0.90153  0.71844  0.42443  1.0000
  H   H1482     1.0  0.81186  0.75593  0.32977  1.0000
  C   C1260     1.0  0.94141  0.74432  0.43462  1.0000
  H   H1483     1.0  0.95262  0.61429  0.41722  1.0000
  H   H1484     1.0  0.80405  0.81317  0.99525  1.0000
  C   C1261     1.0  0.76656  0.86191  0.05821  1.0000
  Fe  Fe167     1.0  0.79601  0.95322  0.02600  1.0000
  H   H1485     1.0  0.94998  0.72694  0.09777  1.0000
  Fe  Fe168     1.0  0.77920  0.89544  0.31107  1.0000
  H   H1486     1.0  0.91300  0.69845  0.41901  1.0000
  H   H1487     1.0  0.87923  0.71386  0.43066  1.0000
  H   H1488     1.0  0.90035  0.73233  0.40378  1.0000
  H   H1489     1.0  0.89738  0.66386  0.35971  1.0000
  S   S335      1.0  0.80542  0.50117  0.99782  1.0000
  C   C1262     1.0  0.95169  0.77089  0.05801  1.0000
  C   C1263     1.0  0.94957  0.63294  0.40269  1.0000
  H   H1490     1.0  0.90764  0.62157  0.39305  1.0000
  S   S336      1.0  0.97353  0.57130  0.06282  1.0000
  H   H1491     1.0  0.82656  0.63714  0.01591  1.0000
  H   H1492     1.0  0.94073  0.61833  0.08853  1.0000
  Fe  Fe169     1.0  0.99114  0.79964  0.18268  1.0000
  H   H1493     1.0  0.87702  0.57912  0.33926  1.0000
  C   C1264     1.0  0.91204  0.62327  0.28435  1.0000
  H   H1494     1.0  0.89626  0.89410  0.07079  1.0000
  H   H1495     1.0  0.90549  0.60282  0.29235  1.0000
  C   C1265     1.0  0.85964  0.57755  0.35627  1.0000
  H   H1496     1.0  0.87630  0.52093  0.19058  1.0000
  H   H1497     1.0  0.92045  0.96337  0.08811  1.0000
  H   H1498     1.0  0.92517  0.53298  0.18165  1.0000
  C   C1266     1.0  0.83841  0.54075  0.33283  1.0000
  C   C1267     1.0  0.85701  0.56172  0.17419  1.0000
  C   C1268     1.0  0.94410  0.94517  0.39578  1.0000
  N   N86       1.0  0.82677  0.55549  0.17879  1.0000
  C   C1269     1.0  0.97593  0.82567  0.32451  1.0000
  S   S337      1.0  0.76870  0.83998  0.25464  1.0000
  H   H1499     1.0  0.86760  0.58450  0.37714  1.0000
  H   H1500     1.0  0.97391  0.96650  0.41911  1.0000
  C   C1270     1.0  0.85897  0.50532  0.09202  1.0000
  H   H1501     1.0  0.81589  0.57615  0.13647  1.0000
  S   S338      1.0  0.82280  0.72246  0.46181  1.0000
  H   H1502     1.0  0.75619  0.73010  0.45050  1.0000
  Fe  Fe170     1.0  0.96620  0.84220  0.42671  1.0000
  H   H1503     1.0  0.82819  0.89068  0.11801  1.0000
  H   H1504     1.0  0.97703  0.69475  0.37730  1.0000
  H   H1505     1.0  0.78018  0.78941  0.30353  1.0000
  Fe  Fe171     1.0  0.76340  0.49875  0.41050  1.0000
  H   H1506     1.0  0.83149  0.51032  0.18121  1.0000
  H   H1507     1.0  0.90998  0.92627  0.37660  1.0000
  S   S339      1.0  0.79926  0.50032  0.44145  1.0000
  H   H1508     1.0  0.85974  0.60080  0.01100  1.0000
  H   H1509     1.0  0.83145  0.55713  0.40388  1.0000
  C   C1271     1.0  0.78497  0.94403  0.44059  1.0000
  C   C1272     1.0  0.77425  0.81253  0.05060  1.0000
  H   H1510     1.0  0.86688  0.76437  0.01011  1.0000
  H   H1511     1.0  0.80755  0.56376  0.37462  1.0000
  C   C1273     1.0  0.82101  0.64314  0.99334  1.0000
  H   H1512     1.0  0.93222  0.70021  0.35260  1.0000
  Fe  Fe172     1.0  0.75865  0.66076  0.11127  1.0000
  C   C1274     1.0  0.97073  0.65276  0.39799  1.0000
  H   H1513     1.0  0.80955  0.88406  0.16973  1.0000
  H   H1514     1.0  0.93232  0.71920  0.06512  1.0000
  H   H1515     1.0  0.81694  0.52852  0.38675  1.0000
  H   H1516     1.0  0.95195  0.75653  0.45051  1.0000
  S   S340      1.0  0.98118  0.84611  0.18088  1.0000
  H   H1517     1.0  0.88601  0.62577  0.24631  1.0000
  H   H1518     1.0  0.83679  0.51266  0.09150  1.0000
  H   H1519     1.0  0.81752  0.72114  0.31858  1.0000
  H   H1520     1.0  0.97146  0.81900  0.27872  1.0000
  C   C1275     1.0  0.82551  0.54952  0.38261  1.0000
  S   S341      1.0  0.92679  0.82494  0.44849  1.0000
  H   H1521     1.0  0.79010  0.70545  0.27719  1.0000
  C   C1276     1.0  0.96325  0.67762  0.38034  1.0000
  C   C1277     1.0  0.88641  0.80364  0.01038  1.0000
  H   H1522     1.0  0.89770  0.61547  0.14775  1.0000
  C   C1278     1.0  0.91512  0.56103  0.44658  1.0000
  S   S342      1.0  0.99480  0.82226  0.46148  1.0000
  H   H1523     1.0  0.81323  0.56063  0.01208  1.0000
  S   S343      1.0  0.78548  0.93138  0.34067  1.0000
  H   H1524     1.0  0.96549  0.70129  0.07437  1.0000
  C   C1279     1.0  0.99542  0.66135  0.44137  1.0000
  C   C1280     1.0  0.78516  0.96684  0.41967  1.0000
  H   H1525     1.0  0.93646  0.58001  0.16002  1.0000
  H   H1526     1.0  0.98972  0.68419  0.43861  1.0000
  C   C1281     1.0  0.95651  0.73335  0.97607  1.0000
  H   H1527     1.0  0.84096  0.82888  0.38531  1.0000
  C   C1282     1.0  0.93808  0.91669  0.99346  1.0000
  H   H1528     1.0  0.95978  0.78667  0.04121  1.0000
  C   C1283     1.0  0.92350  0.63694  0.38895  1.0000
  H   H1529     1.0  0.86673  0.91262  0.08758  1.0000
  H   H1530     1.0  0.83691  0.97692  0.47160  1.0000
  H   H1531     1.0  0.80067  0.87401  0.97594  1.0000
  H   H1532     1.0  0.97870  0.65158  0.45589  1.0000
  S   S344      1.0  0.75654  0.94794  0.00178  1.0000
  H   H1533     1.0  0.99461  0.60788  0.43561  1.0000
  H   H1534     1.0  0.81857  0.85976  0.00846  1.0000
  C   C1284     1.0  0.91773  0.91683  0.01654  1.0000
  H   H1535     1.0  0.87159  0.54017  0.11449  1.0000
  H   H1536     1.0  0.77087  0.78451  0.08961  1.0000
  H   H1537     1.0  0.92888  0.76878  0.05424  1.0000
  S   S345      1.0  0.76411  0.64705  0.21779  1.0000
  H   H1538     1.0  0.79253  0.88857  0.01019  1.0000
  H   H1539     1.0  0.84346  0.97627  0.43289  1.0000
  C   C1285     1.0  0.87228  0.78104  0.02338  1.0000
  H   H1540     1.0  0.76079  0.63254  0.01433  1.0000
  H   H1541     1.0  0.84865  0.95396  0.32935  1.0000
  H   H1542     1.0  0.95610  0.53933  0.44973  1.0000
  C   C1286     1.0  0.98655  0.83512  0.09152  1.0000
  C   C1287     1.0  0.78546  0.96248  0.38928  1.0000
  C   C1288     1.0  0.78332  0.82365  0.98867  1.0000
  H   H1543     1.0  0.85158  0.94545  0.45713  1.0000
  H   H1544     1.0  0.99162  0.83232  0.11455  1.0000
  H   H1545     1.0  0.96608  0.51705  0.09654  1.0000
  H   H1546     1.0  0.78641  0.89897  0.44652  1.0000
  H   H1547     1.0  0.92143  0.52561  0.11393  1.0000
  C   C1289     1.0  0.95549  0.93893  0.98803  1.0000
  C   C1290     1.0  0.76082  0.70598  0.32923  1.0000
  S   S346      1.0  0.98497  0.83354  0.38183  1.0000
  N   N87       1.0  0.88125  0.97788  0.45789  1.0000
  H   H1548     1.0  0.77851  0.79481  0.03741  1.0000
  C   C1291     1.0  0.75663  0.54901  0.34692  1.0000
  H   H1549     1.0  0.75832  0.94945  0.09719  1.0000
  H   H1550     1.0  0.89732  0.94107  0.10899  1.0000
  C   C1292     1.0  0.95185  0.96192  0.41751  1.0000
  C   C1293     1.0  0.85712  0.58966  0.99079  1.0000
  C   C1294     1.0  0.75020  0.57140  0.36456  1.0000
  H   H1551     1.0  0.76197  0.53682  0.30230  1.0000
  H   H1552     1.0  0.99255  0.75588  0.09343  1.0000
  C   C1295     1.0  0.99793  0.71889  0.01753  1.0000
  C   C1296     1.0  0.75704  0.55401  0.31611  1.0000
  H   H1553     1.0  0.78543  0.98032  0.37331  1.0000
  H   H1554     1.0  0.87367  0.94397  0.41096  1.0000
  C   C1297     1.0  0.99600  0.74724  0.07138  1.0000
  H   H1555     1.0  0.93057  0.98013  0.04157  1.0000
  C   C1298     1.0  0.95421  0.57691  0.47298  1.0000
  C   C1299     1.0  0.91582  0.93917  0.39372  1.0000
  C   C1300     1.0  0.93226  0.96195  0.02877  1.0000
  C   C1301     1.0  0.95225  0.96178  0.00529  1.0000
  Fe  Fe173     1.0  0.99608  0.75686  0.32845  1.0000
  H   H1556     1.0  0.98623  0.80536  0.32933  1.0000
  H   H1557     1.0  0.74990  0.56792  0.38833  1.0000
  C   C1302     1.0  0.90890  0.60464  0.47003  1.0000
  H   H1558     1.0  0.76094  0.82261  0.12325  1.0000
  H   H1559     1.0  0.75819  0.87203  0.10324  1.0000
  H   H1560     1.0  0.76455  0.88381  0.05056  1.0000
  H   H1561     1.0  0.75489  0.77806  0.27880  1.0000
  H   H1562     1.0  0.98909  0.48679  0.10385  1.0000
  C   C1303     1.0  0.92211  0.71013  0.47266  1.0000
  H   H1563     1.0  0.75194  0.66490  0.99353  1.0000
  Fe  Fe174     1.0  0.92335  0.86477  0.47170  1.0000
  H   H1564     1.0  0.96547  0.97936  0.00057  1.0000
  C   C1304     1.0  0.91749  0.48739  0.09082  1.0000
  C   C1305     1.0  0.76882  0.74445  0.97422  1.0000
  H   H1565     1.0  0.83554  0.90795  0.57781  1.0000
  Fe  Fe175     1.0  0.99063  0.70477  0.68531  1.0000
  H   H1566     1.0  0.79456  0.71658  0.83389  1.0000
  H   H1567     1.0  0.80158  0.66877  0.91353  1.0000
  C   C1306     1.0  0.95434  0.68590  0.50865  1.0000
  S   S347      1.0  0.95891  0.67453  0.67137  1.0000
  C   C1307     1.0  0.94224  0.49885  0.49910  1.0000
  Fe  Fe176     1.0  0.80520  0.61566  0.70881  1.0000
  S   S348      1.0  0.81321  0.56925  0.71976  1.0000
  S   S349      1.0  0.83448  0.64871  0.72122  1.0000
  Fe  Fe177     1.0  0.79064  0.56455  0.67738  1.0000
  S   S350      1.0  0.80049  0.53026  0.64547  1.0000
  H   H1568     1.0  0.91301  0.72571  0.64152  1.0000
  H   H1569     1.0  0.77453  0.75310  0.95235  1.0000
  S   S351      1.0  0.78604  0.61076  0.66494  1.0000
  H   H1570     1.0  0.91574  0.76603  0.60658  1.0000
  H   H1571     1.0  0.87573  0.52504  0.55028  1.0000
  H   H1572     1.0  0.84064  0.57962  0.93741  1.0000
  S   S352      1.0  0.77006  0.91600  0.92904  1.0000
  H   H1573     1.0  0.83077  0.55199  0.96325  1.0000
  H   H1574     1.0  0.85538  0.63911  0.81932  1.0000
  C   C1308     1.0  0.94367  0.85107  0.60164  1.0000
  H   H1575     1.0  0.82964  0.69167  0.76207  1.0000
  Fe  Fe178     1.0  0.84616  0.77473  0.76746  1.0000
  S   S353      1.0  0.81014  0.76662  0.73954  1.0000
  S   S354      1.0  0.88935  0.75345  0.75772  1.0000
  Fe  Fe179     1.0  0.81251  0.82284  0.79548  1.0000
  S   S355      1.0  0.77306  0.81708  0.77025  1.0000
  S   S356      1.0  0.82850  0.85973  0.81810  1.0000
  Fe  Fe180     1.0  0.78205  0.77045  0.78028  1.0000
  Fe  Fe181     1.0  0.80301  0.81297  0.73100  1.0000
  S   S357      1.0  0.79423  0.82880  0.68366  1.0000
  S   S358      1.0  0.81920  0.77638  0.80888  1.0000
  S   S359      1.0  0.84145  0.82073  0.75511  1.0000
  Fe  Fe182     1.0  0.95009  0.84649  0.93843  1.0000
  S   S360      1.0  0.96091  0.80332  0.95827  1.0000
  C   C1309     1.0  0.80697  0.66145  0.93584  1.0000
  N   N88       1.0  0.90442  0.95625  0.90786  1.0000
  H   H1576     1.0  0.85209  0.71103  0.78299  1.0000
  H   H1577     1.0  0.86718  0.95207  0.93617  1.0000
  H   H1578     1.0  0.83883  0.92343  0.50443  1.0000
  H   H1579     1.0  0.86690  0.63245  0.66816  1.0000
  H   H1580     1.0  0.77500  0.49173  0.55323  1.0000
  C   C1310     1.0  0.83191  0.70023  0.78385  1.0000
  C   C1311     1.0  0.95594  0.93718  0.90303  1.0000
  C   C1312     1.0  0.93719  0.60085  0.47983  1.0000
  S   S361      1.0  0.76803  0.86726  0.55490  1.0000
  H   H1581     1.0  0.92382  0.79236  0.67493  1.0000
  H   H1582     1.0  0.87843  0.67957  0.74308  1.0000
  H   H1583     1.0  0.88379  0.72980  0.70040  1.0000
  H   H1584     1.0  0.85128  0.64686  0.78075  1.0000
  H   H1585     1.0  0.80194  0.65369  0.78730  1.0000
  N   N89       1.0  0.83143  0.67799  0.80819  1.0000
  H   H1586     1.0  0.84320  0.73018  0.90793  1.0000
  H   H1587     1.0  0.86435  0.73015  0.66723  1.0000
  S   S362      1.0  0.90589  0.86605  0.94620  1.0000
  H   H1588     1.0  0.92685  0.68946  0.72453  1.0000
  C   C1313     1.0  0.80406  0.66438  0.80801  1.0000
  Fe  Fe183     1.0  0.76304  0.80602  0.89400  1.0000
  S   S363      1.0  0.81104  0.79797  0.89398  1.0000
  H   H1589     1.0  0.78230  0.67520  0.66130  1.0000
  H   H1590     1.0  0.78538  0.67965  0.80907  1.0000
  C   C1314     1.0  0.85456  0.52949  0.49650  1.0000
  H   H1591     1.0  0.78645  0.87927  0.77381  1.0000
  C   C1315     1.0  0.77980  0.53610  0.54682  1.0000
  H   H1592     1.0  0.88030  0.69467  0.89275  1.0000
  H   H1593     1.0  0.91815  0.76738  0.70515  1.0000
  H   H1594     1.0  0.85729  0.83503  0.50090  1.0000
  H   H1595     1.0  0.93829  0.75141  0.64766  1.0000
  C   C1316     1.0  0.79982  0.75057  0.50811  1.0000
  C   C1317     1.0  0.78524  0.75260  0.53543  1.0000
  C   C1318     1.0  0.77768  0.72840  0.55211  1.0000
  H   H1596     1.0  0.95626  0.58713  0.65065  1.0000
  H   H1597     1.0  0.78007  0.77293  0.54360  1.0000
  H   H1598     1.0  0.78535  0.82983  0.96468  1.0000
  H   H1599     1.0  0.81188  0.61912  0.92548  1.0000
  Fe  Fe184     1.0  0.76992  0.57185  0.74232  1.0000
  H   H1600     1.0  0.89447  0.97010  0.95140  1.0000
  C   C1319     1.0  0.79014  0.55373  0.83076  1.0000
  H   H1601     1.0  0.89174  0.94549  0.49152  1.0000
  C   C1320     1.0  0.80787  0.68070  0.95718  1.0000
  C   C1321     1.0  0.85128  0.88004  0.50050  1.0000
  C   C1322     1.0  0.84389  0.85241  0.50835  1.0000
  C   C1323     1.0  0.81834  0.84743  0.52506  1.0000
  C   C1324     1.0  0.80069  0.87009  0.53441  1.0000
  C   C1325     1.0  0.80893  0.89721  0.52722  1.0000
  C   C1326     1.0  0.83362  0.90212  0.51024  1.0000
  H   H1602     1.0  0.90375  0.91185  0.90272  1.0000
  H   H1603     1.0  0.81226  0.82626  0.53047  1.0000
  H   H1604     1.0  0.79573  0.91484  0.53447  1.0000
  C   C1327     1.0  0.91480  0.50840  0.50771  1.0000
  C   C1328     1.0  0.87877  0.84618  0.93447  1.0000
  C   C1329     1.0  0.88524  0.81954  0.92462  1.0000
  C   C1330     1.0  0.86390  0.80466  0.91339  1.0000
  C   C1331     1.0  0.83597  0.81632  0.91165  1.0000
  C   C1332     1.0  0.82920  0.84239  0.92274  1.0000
  C   C1333     1.0  0.85056  0.85726  0.93426  1.0000
  H   H1605     1.0  0.90682  0.81063  0.92498  1.0000
  H   H1606     1.0  0.86915  0.78422  0.90540  1.0000
  H   H1607     1.0  0.80776  0.85156  0.92130  1.0000
  N   N90       1.0  0.86222  0.50293  0.51387  1.0000
  C   C1334     1.0  0.91483  0.73118  0.77708  1.0000
  C   C1335     1.0  0.94101  0.72529  0.76265  1.0000
  C   C1336     1.0  0.96181  0.70660  0.77558  1.0000
  C   C1337     1.0  0.95665  0.69342  0.80341  1.0000
  C   C1338     1.0  0.93051  0.69956  0.81828  1.0000
  C   C1339     1.0  0.90974  0.71862  0.80531  1.0000
  H   H1608     1.0  0.94489  0.73481  0.74092  1.0000
  H   H1609     1.0  0.98164  0.70201  0.76377  1.0000
  H   H1610     1.0  0.92646  0.68959  0.83997  1.0000
  H   H1611     1.0  0.88986  0.72329  0.81695  1.0000
  C   C1340     1.0  0.80348  0.91846  0.64214  1.0000
  C   C1341     1.0  0.78956  0.89901  0.62744  1.0000
  C   C1342     1.0  0.78716  0.87159  0.64028  1.0000
  C   C1343     1.0  0.79847  0.86334  0.66794  1.0000
  C   C1344     1.0  0.81316  0.88256  0.68217  1.0000
  S   S364      1.0  0.76262  0.61847  0.73333  1.0000
  H   H1612     1.0  0.78041  0.90508  0.60630  1.0000
  C   C1345     1.0  0.86160  0.50838  0.54558  1.0000
  H   H1613     1.0  0.82284  0.87624  0.70292  1.0000
  C   C1346     1.0  0.80073  0.70009  0.51473  1.0000
  C   C1347     1.0  0.78659  0.90444  0.89611  1.0000
  C   C1348     1.0  0.81563  0.90615  0.88959  1.0000
  C   C1349     1.0  0.82827  0.89267  0.86534  1.0000
  C   C1350     1.0  0.81193  0.87752  0.84754  1.0000
  C   C1351     1.0  0.78271  0.87763  0.85290  1.0000
  C   C1352     1.0  0.77015  0.89102  0.87707  1.0000
  H   H1614     1.0  0.82846  0.91646  0.90412  1.0000
  H   H1615     1.0  0.85092  0.89298  0.86109  1.0000
  H   H1616     1.0  0.76993  0.86695  0.83862  1.0000
  H   H1617     1.0  0.92803  0.72738  0.67671  1.0000
  C   C1353     1.0  0.76568  0.54236  0.82152  1.0000
  C   C1354     1.0  0.78347  0.53095  0.88052  1.0000
  C   C1355     1.0  0.96872  0.61004  0.77514  1.0000
  H   H1618     1.0  0.75636  0.91911  0.79383  1.0000
  S   S365      1.0  0.96896  0.83843  0.89364  1.0000
  C   C1356     1.0  0.93116  0.59482  0.73197  1.0000
  H   H1619     1.0  0.84901  0.82252  0.57468  1.0000
  C   C1357     1.0  0.78001  0.51039  0.56345  1.0000
  C   C1358     1.0  0.78655  0.50886  0.59359  1.0000
  C   C1359     1.0  0.79203  0.53308  0.60763  1.0000
  H   H1620     1.0  0.86879  0.54635  0.50030  1.0000
  C   C1360     1.0  0.89752  0.93233  0.89098  1.0000
  H   H1621     1.0  0.82669  0.82342  0.62467  1.0000
  C   C1361     1.0  0.80698  0.72432  0.49735  1.0000
  C   C1362     1.0  0.96689  0.75762  0.56992  1.0000
  H   H1622     1.0  0.89060  0.79336  0.69602  1.0000
  H   H1623     1.0  0.96688  0.71833  0.47807  1.0000
  H   H1624     1.0  0.95344  0.74017  0.57001  1.0000
  H   H1625     1.0  0.85258  0.87438  0.57078  1.0000
  H   H1626     1.0  0.85760  0.75692  0.69304  1.0000
  C   C1363     1.0  0.92446  0.66730  0.68564  1.0000
  C   C1364     1.0  0.90727  0.65126  0.66979  1.0000
  C   C1365     1.0  0.87981  0.64496  0.68051  1.0000
  C   C1366     1.0  0.86922  0.65496  0.70711  1.0000
  C   C1367     1.0  0.88631  0.67135  0.72270  1.0000
  C   C1368     1.0  0.91383  0.67723  0.71216  1.0000
  H   H1627     1.0  0.91535  0.64343  0.64920  1.0000
  C   C1369     1.0  0.83433  0.69070  0.83656  1.0000
  H   H1628     1.0  0.99387  0.80881  0.52367  1.0000
  C   C1370     1.0  0.74998  0.52564  0.84213  1.0000
  C   C1371     1.0  0.78552  0.70597  0.70824  1.0000
  H   H1629     1.0  0.97626  0.75080  0.61589  1.0000
  C   C1372     1.0  0.81329  0.71067  0.84644  1.0000
  H   H1630     1.0  0.95081  0.62613  0.77709  1.0000
  C   C1373     1.0  0.95956  0.60075  0.72343  1.0000
  C   C1374     1.0  0.98500  0.94052  0.90528  1.0000
  C   C1375     1.0  0.96783  0.59797  0.69340  1.0000
  H   H1631     1.0  0.88879  0.66092  0.51795  1.0000
  C   C1376     1.0  0.94927  0.58885  0.67347  1.0000
  C   C1377     1.0  0.92180  0.58257  0.68269  1.0000
  H   H1632     1.0  0.99180  0.69911  0.57238  1.0000
  H   H1633     1.0  0.87430  0.93197  0.88786  1.0000
  H   H1634     1.0  0.80707  0.67977  0.50714  1.0000
  Fe  Fe185     1.0  0.78407  0.94645  0.96058  1.0000
  H   H1635     1.0  0.89397  0.79428  0.56649  1.0000
  H   H1636     1.0  0.80067  0.74037  0.87854  1.0000
  H   H1637     1.0  0.89101  0.58164  0.71861  1.0000
  H   H1638     1.0  0.80367  0.57522  0.94775  1.0000
  S   S366      1.0  0.98263  0.74969  0.69665  1.0000
  Fe  Fe186     1.0  0.98301  0.79637  0.91472  1.0000
  H   H1639     1.0  0.79622  0.90119  0.74180  1.0000
  H   H1640     1.0  0.79654  0.57743  0.60123  1.0000
  C   C1378     1.0  0.88986  0.96874  0.48826  1.0000
  H   H1641     1.0  0.90732  0.57586  0.66708  1.0000
  N   N91       1.0  0.90795  0.80881  0.83096  1.0000
  C   C1379     1.0  0.90490  0.83653  0.84374  1.0000
  C   C1380     1.0  0.87957  0.79790  0.82945  1.0000
  C   C1381     1.0  0.92463  0.78947  0.85161  1.0000
  C   C1382     1.0  0.92086  0.81151  0.80079  1.0000
  C   C1383     1.0  0.94325  0.79291  0.79095  1.0000
  C   C1384     1.0  0.91001  0.83236  0.77969  1.0000
  C   C1385     1.0  0.95459  0.79576  0.76216  1.0000
  C   C1386     1.0  0.92162  0.83509  0.75097  1.0000
  C   C1387     1.0  0.94403  0.81690  0.74228  1.0000
  H   H1642     1.0  0.89747  0.83477  0.86720  1.0000
  H   H1643     1.0  0.92544  0.84674  0.84248  1.0000
  H   H1644     1.0  0.88867  0.85099  0.83269  1.0000
  H   H1645     1.0  0.86567  0.81196  0.81510  1.0000
  H   H1646     1.0  0.86841  0.79607  0.85143  1.0000
  H   H1647     1.0  0.88103  0.77696  0.82027  1.0000
  H   H1648     1.0  0.91514  0.78867  0.87436  1.0000
  H   H1649     1.0  0.92580  0.76748  0.84511  1.0000
  H   H1650     1.0  0.94647  0.79628  0.85303  1.0000
  H   H1651     1.0  0.95214  0.77561  0.80486  1.0000
  H   H1652     1.0  0.89204  0.84637  0.78510  1.0000
  H   H1653     1.0  0.80329  0.70276  0.95138  1.0000
  H   H1654     1.0  0.91300  0.85125  0.73537  1.0000
  H   H1655     1.0  0.78532  0.70442  0.63414  1.0000
  H   H1656     1.0  0.77599  0.85691  0.62884  1.0000
  C   C1388     1.0  0.89105  0.49227  0.50452  1.0000
  H   H1657     1.0  0.81841  0.49208  0.51644  1.0000
  H   H1658     1.0  0.91041  0.97677  0.49373  1.0000
  S   S367      1.0  0.75515  0.73180  0.78365  1.0000
  H   H1659     1.0  0.81430  0.71642  0.78617  1.0000
  Fe  Fe187     1.0  0.98764  0.86208  0.48380  1.0000
  H   H1660     1.0  0.96003  0.51159  0.50187  1.0000
  H   H1661     1.0  0.97152  0.78116  0.75519  1.0000
  H   H1662     1.0  0.82645  0.92485  0.68087  1.0000
  H   H1663     1.0  0.84834  0.79646  0.66625  1.0000
  H   H1664     1.0  0.80911  0.70462  0.70863  1.0000
  H   H1665     1.0  0.95024  0.91773  0.89501  1.0000
  H   H1666     1.0  0.91236  0.52871  0.51667  1.0000
  C   C1389     1.0  0.81540  0.91001  0.66946  1.0000
  C   C1390     1.0  0.93532  0.95852  0.91089  1.0000
  H   H1667     1.0  0.77823  0.72006  0.72554  1.0000
  S   S368      1.0  0.88114  0.88926  0.47756  1.0000
  H   H1668     1.0  0.93149  0.87860  0.56550  1.0000
  N   N92       1.0  0.89621  0.76041  0.66599  1.0000
  C   C1391     1.0  0.87441  0.74370  0.68217  1.0000
  C   C1392     1.0  0.91980  0.74043  0.65733  1.0000
  C   C1393     1.0  0.90757  0.77934  0.68634  1.0000
  C   C1394     1.0  0.88368  0.77738  0.64070  1.0000
  C   C1395     1.0  0.89632  0.77800  0.61179  1.0000
  C   C1396     1.0  0.85864  0.79487  0.64477  1.0000
  C   C1397     1.0  0.88398  0.79430  0.58839  1.0000
  C   C1398     1.0  0.84626  0.81080  0.62113  1.0000
  C   C1399     1.0  0.85882  0.81039  0.59298  1.0000
  C   C1400     1.0  0.78621  0.70218  0.54208  1.0000
  C   C1401     1.0  0.79182  0.55870  0.59095  1.0000
  C   C1402     1.0  0.85449  0.65652  0.80180  1.0000
  H   H1669     1.0  0.87558  0.66576  0.79921  1.0000
  C   C1403     1.0  0.89062  0.95263  0.93753  1.0000
  H   H1670     1.0  0.84537  0.87780  0.94199  1.0000
  H   H1671     1.0  0.90805  0.93339  0.86867  1.0000
  H   H1672     1.0  0.84310  0.88293  0.60754  1.0000
  C   C1404     1.0  0.85165  0.89154  0.58599  1.0000
  H   H1673     1.0  0.87352  0.92912  0.54800  1.0000
  H   H1674     1.0  0.86314  0.94495  0.59579  1.0000
  H   H1675     1.0  0.80207  0.64847  0.82687  1.0000
  H   H1676     1.0  0.89849  0.93276  0.94945  1.0000
  H   H1677     1.0  0.77028  0.93937  0.76331  1.0000
  C   C1405     1.0  0.77986  0.88712  0.75130  1.0000
  H   H1678     1.0  0.96310  0.84389  0.59034  1.0000
  N   N93       1.0  0.87986  0.90300  0.58811  1.0000
  C   C1406     1.0  0.88919  0.91326  0.55792  1.0000
  H   H1679     1.0  0.89128  0.89602  0.54271  1.0000
  H   H1680     1.0  0.89551  0.62259  0.47599  1.0000
  C   C1407     1.0  0.91279  0.84986  0.64503  1.0000
  C   C1408     1.0  0.85843  0.68491  0.85438  1.0000
  H   H1681     1.0  0.95237  0.82508  0.64095  1.0000
  H   H1682     1.0  0.86632  0.92247  0.62821  1.0000
  H   H1683     1.0  0.94058  0.73892  0.95977  1.0000
  H   H1684     1.0  0.89772  0.93576  0.61007  1.0000
  S   S369      1.0  0.79587  0.52442  0.91709  1.0000
  H   H1685     1.0  0.90977  0.92335  0.55797  1.0000
  H   H1686     1.0  0.98455  0.71214  0.94546  1.0000
  H   H1687     1.0  0.87507  0.87651  0.64347  1.0000
  N   N94       1.0  0.77519  0.71574  0.67862  1.0000
  C   C1409     1.0  0.87676  0.92750  0.60635  1.0000
  H   H1688     1.0  0.81291  0.69541  0.65926  1.0000
  C   C1410     1.0  0.89405  0.86988  0.63114  1.0000
  H   H1689     1.0  0.87900  0.69600  0.47756  1.0000
  C   C1411     1.0  0.83987  0.48327  0.50974  1.0000
  H   H1690     1.0  0.97021  0.65327  0.73424  1.0000
  H   H1691     1.0  0.77814  0.68484  0.71524  1.0000
  C   C1412     1.0  0.89972  0.88130  0.60200  1.0000
  S   S370      1.0  0.98083  0.75608  0.89311  1.0000
  C   C1413     1.0  0.92516  0.87119  0.58758  1.0000
  H   H1692     1.0  0.80249  0.56655  0.81524  1.0000
  H   H1693     1.0  0.98869  0.60313  0.68488  1.0000
  C   C1414     1.0  0.86141  0.69887  0.87994  1.0000
  C   C1415     1.0  0.84060  0.71877  0.88859  1.0000
  C   C1416     1.0  0.93268  0.66960  0.52025  1.0000
  H   H1694     1.0  0.97143  0.93848  0.97033  1.0000
  S   S371      1.0  0.80704  0.95338  0.62750  1.0000
  H   H1695     1.0  0.87238  0.59800  0.97362  1.0000
  C   C1417     1.0  0.79890  0.54809  0.86007  1.0000
  C   C1418     1.0  0.97139  0.77435  0.54396  1.0000
  C   C1419     1.0  0.75878  0.51994  0.87140  1.0000
  Fe  Fe188     1.0  0.77978  0.49755  0.95750  1.0000
  S   S372      1.0  0.94899  0.84864  0.51023  1.0000
  H   H1696     1.0  0.98508  0.61582  0.79024  1.0000
  H   H1697     1.0  0.80517  0.76941  0.49512  1.0000
  C   C1420     1.0  0.78634  0.56003  0.56067  1.0000
  H   H1698     1.0  0.86822  0.48914  0.55939  1.0000
  C   C1421     1.0  0.78413  0.74446  0.67077  1.0000
  C   C1422     1.0  0.81652  0.72446  0.87200  1.0000
  C   C1423     1.0  0.81302  0.63290  0.94306  1.0000
  H   H1699     1.0  0.80757  0.74542  0.67057  1.0000
  H   H1700     1.0  0.83263  0.53787  0.50212  1.0000
  H   H1701     1.0  0.78051  0.86896  0.73737  1.0000
  S   S373      1.0  0.95327  0.76926  0.51219  1.0000
  H   H1702     1.0  0.97508  0.68349  0.51829  1.0000
  H   H1703     1.0  0.90808  0.84185  0.66739  1.0000
  C   C1424     1.0  0.90575  0.67336  0.50863  1.0000
  S   S374      1.0  0.75649  0.73032  0.58472  1.0000
  H   H1704     1.0  0.78726  0.57980  0.54789  1.0000
  H   H1705     1.0  0.81806  0.55668  0.86679  1.0000
  S   S375      1.0  0.98918  0.56893  0.48529  1.0000
  S   S376      1.0  0.77071  0.53984  0.50910  1.0000
  H   H1706     1.0  0.99535  0.71426  0.85163  1.0000
  C   C1425     1.0  0.91270  0.58576  0.71180  1.0000
  H   H1707     1.0  0.90629  0.76432  0.47720  1.0000
  H   H1708     1.0  0.78690  0.48887  0.60626  1.0000
  H   H1709     1.0  0.87571  0.67027  0.84865  1.0000
  C   C1426     1.0  0.97947  0.76383  0.59591  1.0000
  C   C1427     1.0  0.93758  0.84045  0.63027  1.0000
  Fe  Fe189     1.0  0.79670  0.97573  0.58270  1.0000
  H   H1710     1.0  0.75461  0.95381  0.71957  1.0000
  C   C1428     1.0  0.78942  0.69687  0.65735  1.0000
  Fe  Fe190     1.0  0.95505  0.80992  0.48549  1.0000
  H   H1711     1.0  0.75239  0.90190  0.50263  1.0000
  H   H1712     1.0  0.77498  0.75971  0.68640  1.0000
  H   H1713     1.0  0.95312  0.81893  0.72008  1.0000
  N   N95       1.0  0.98011  0.60939  0.74431  1.0000
  S   S377      1.0  0.98122  0.66763  0.81929  1.0000
  S   S378      1.0  0.75736  0.97926  0.55566  1.0000
  C   C1429     1.0  0.90042  0.69338  0.48531  1.0000
  C   C1430     1.0  0.94930  0.70588  0.48521  1.0000
  S   S379      1.0  0.75031  0.80610  0.61434  1.0000
  H   H1714     1.0  0.93675  0.65428  0.53854  1.0000
  H   H1715     1.0  0.77685  0.75223  0.64846  1.0000
  H   H1716     1.0  0.78136  0.68349  0.55543  1.0000
  H   H1717     1.0  0.92261  0.59722  0.75400  1.0000
  H   H1718     1.0  0.96174  0.58925  0.78385  1.0000
  C   C1431     1.0  0.82558  0.57438  0.95609  1.0000
  S   S380      1.0  0.98943  0.86478  0.95340  1.0000
  N   N96       1.0  0.75139  0.90180  0.75188  1.0000
  H   H1719     1.0  0.76777  0.64540  0.52845  1.0000
  C   C1432     1.0  0.98923  0.79653  0.54380  1.0000
  H   H1720     1.0  0.75667  0.64731  0.58212  1.0000
  S   S381      1.0  0.75355  0.54837  0.78478  1.0000
  C   C1433     1.0  0.75247  0.92603  0.77031  1.0000
  H   H1721     1.0  0.83997  0.51562  0.55352  1.0000
  Fe  Fe191     1.0  0.76520  0.50651  0.47676  1.0000
  C   C1434     1.0  0.98883  0.63786  0.73491  1.0000
  S   S382      1.0  0.82622  0.97133  0.54336  1.0000
  H   H1722     1.0  0.94556  0.61597  0.49314  1.0000
  H   H1723     1.0  0.75420  0.70456  0.48065  1.0000
  C   C1435     1.0  0.99580  0.78717  0.59599  1.0000
  H   H1724     1.0  0.75451  0.59120  0.89469  1.0000
  C   C1436     1.0  0.99558  0.75840  0.85699  1.0000
  H   H1725     1.0  0.74939  0.86665  0.97089  1.0000
  H   H1726     1.0  0.75042  0.64270  0.89802  1.0000
  C   C1437     1.0  0.82033  0.62288  0.97215  1.0000
  H   H1727     1.0  0.87429  0.97679  0.50497  1.0000
  S   S383      1.0  0.78307  0.94804  0.47929  1.0000
  Fe  Fe192     1.0  0.78757  0.97843  0.51555  1.0000
  C   C1438     1.0  0.75342  0.63109  0.53961  1.0000
  C   C1439     1.0  0.99434  0.96484  0.91570  1.0000
  C   C1440     1.0  0.98133  0.71827  0.96790  1.0000
  S   S384      1.0  0.74821  0.56317  0.70094  1.0000
  H   H1728     1.0  0.86878  0.98034  0.88819  1.0000
