data_image0
_chemical_formula_structural       FeS2FeSHFeSFeS3HSFeS2FeS2CHCH3CH2CH2NHC2H2CH2C6H4CHCHC2H4CFeHNHC4SHC4H2C3HC2HCH4CH2CH3CH2CH4C2HSHCH2CH2C3H2C2HCH2C2HCH5C4H2C2H2C2H2CHNC9H14NCHSCHNH2CH3CH2CHCHCFeH3NCH4C4HCH6CHCFeS2FeSHFeHFeS3FeS2FeS2FeHFeS3FeS2CH3NHFeS2C2HC2SHCHC2HFe2HCH4CH2C6H4CHC6H4CHSCH6CH4CH5FeC4NCSH3CH3CHCHCHC2H2CH2C3HCH2CNCNSCHC6H2CHCHSH2CH2C2H2CH4CH2SH2SC5H2C2HCHCHSCH4CHFeCHC2HCH2CN2H2CFeS2FeS2FeSFeS3FeS2FeS2FeSFeS3FeS2FeS3C2HC3HCHC2H2CHCHC6H4C2HC2H3C6H4C2HCH2C3H4CH2CH2C4HNH2CH2CH2CSH3NC9H11CH5C2H2CH2C2H3CH2CHCHNCHCSHCNC6HC2H13CHCHCH2CH3CHCH6CNHCH2C5H5FeS2FeS2FeSFeS3HCNCSCHCFeS2H2SH4CHC2S2CH3SNH2C8HCH2C6H5C2SHCHCH2CHCH4C2H4NC9H14CFeH5CHCH3SH3CHNC2HC2H3C3HC2HCH2CHSHCFeHNHC4H2CH2SC2FeCHCHCHCH3CH2SHCHCSC2FeS2FeSFeS3HSFeSHCH2CHC4H3C8H4CHSCSHCH2C2H6CH2C2HCHSCHSCH2CSHC4HNH3C2H2C2FeC2H3NH2C2H2CH2C3HC3H3CH2S2CHCHFeS2FeS2FeHFeS3HFeS2FeS2FeSFeS3FeS2CFe2HCSHC2H2C2HCH2C6H4C6H4C6H5CHC4H3NC4H4CH8C4HC4H4CHC2HC2H2NC9H12CH2CHCHCHSH2C4H2NC3H2C2H2CH2SH4CSH2C3H2CHCNCH2CHC2H2SHCHC3H4FeS2FeS2FeSFeS3FeS2FeS2FeSFeS3FeHSHCHC2HCH2CH2C6H4C6H4C6H3C4HCHC4H5NH2C3HCH3SH3CHC2HC2HCH3CNC9H14CH3CHC2H8C3SHNCHC3H7CH2CH2CHC3NC4H4NC5HCH6CHC3HCFeS3FeHFeCS2HSH3FeS2C2HC2H3CH2CFeCH2C5HSH3C2SCSHCFeHFeHCH3CNHCH2C2HC2H2CHFeHCSH2NC2H2C2H2CH2CH3C3H3C3HC3H2SH2C2H2CHCHNH3CH2CHC2H2CH3CFeHFeS2NCHCHFeSCHCH5SHFeC3FeC2H2C2HC2HCHC3H3CHCHC2HCH4SCHCHNH2C2HCH4CH2C3H2CH2C2SCHC5SH2NHCSC2H4C2HCHCNCH2CSHCH2CH2C2HCHCHCNH2CHCH3C4HCHCSFeS2FeS2FeSFeS3FeS2FeS2FeHFeS3FeS2C2FeHCSCH3CH2C7H4C6H4C2H3C6H4C4H3C7H9C2HCH3CHCH6SHCH2NCHNC5HCHSH9FeCNCHCH2C2HC2H2C8HCHCHCH3NC2HCH2CH3CH2CNCH5CHSH3C2H4C2H2CHCFeS2FeS2FeSFeS3H2SFeS2FeS2FeSFeS3FeS2H2C6H4C4H3C3H2C2HC2H2C6H4C6H3SCH2CHNCHC2NC9HCH9C2H5CH3CHCH4C2NCH3C3H5C2HC2H4CHCH5C6HC3HC2H3NHC2HCHCH2CH3C5H9NH2CHCH2NH4NCH2C2H4C3HC3HCHC3H3NCHSHCHSFeS2H2SHSCHCH3FeCSHC2HC2H4CHC2H3C2H2CHSFeH2C2H4CFeHSFeCHCHC2NHCHSC2NC2HCH3CHC3NCHCHCH2C4HC2HSH4CH2C2HFeS2H2FeSHSFeS2FeS2FeSFeCS2FeS2FeS2HFeS2FeHCFeS2FeS2H3CNC9H2C7H4CHFeCHCHCHC2H2CH7C4H3CFeHC2H4C4H7C3H3SHCH6CH2CHC2H2NC3H2CH6C3H2C3H5C2H2CH3CHCH2C2NC8H2NCH3CH3NHCHCSH2CHC2HS2HCHSH4CHCH2SH4CH2C2H3CHFeS2FeSHFe2S3FeS2FeHFeS3H3C3FeS2FeS2H3CHC3H2C4H5C2H2CSHC6H6CH2C6H5C2HCHC2NC5H2SCH9CHCHCSH2CHC2FeH3CNCHCNHNFeHNHC2FeCH3CH2C3HC3HCH2CH2CNHCH3CHSH2CH3C3SHSHC2H4C2H3C4HC3H2SC4FeCSCFeCHCH4SCHCNFeS2FeS2FeSFeS2FeS2FeSFeS3FeS2FeS2C2H3C2H5CHCH2C2HCNC6H6C2HCHFeH2C6H4SHC2HCH2C5HCHCHSC2H3NC3H4CNC9H14CNC7HCH5CH7CH3C2H5CH3C2H2CH2C3HNC5HNH11CH3C3HSHCH10C3HCHCHC3SHFeS2HFeC2HS2FeSCFeS2FeSFeS3FeSCFeS2FeS2FeSH4FeS2H3CH2FeS2C2HCH2CHCHCH2CH2CSC4HCHC7H7CH2CH2CH3C3HCHC2HNCHCSFeH2FeHFeCH3CSFeCH2SHNSHSCH3C3SHCHNC6H8NC9H5CH2NHFeCHSFeHC2H4SH2CHFeCSCSC2SHC4H3CHC
_chemical_formula_sum              "Fe160 S320 H1440 C1200 N80"
_cell_length_a       60.7462
_cell_length_b       58.0154
_cell_length_c       62.5961
_cell_angle_alpha    91.0704
_cell_angle_beta     90.8827
_cell_angle_gamma    121.354

_space_group_name_H-M_alt    "P 1"
_space_group_IT_number       1

loop_
  _space_group_symop_operation_xyz
  'x, y, z'

loop_
  _atom_site_type_symbol
  _atom_site_label
  _atom_site_symmetry_multiplicity
  _atom_site_fract_x
  _atom_site_fract_y
  _atom_site_fract_z
  _atom_site_occupancy
  Fe  Fe1       1.0  0.33625  0.35457  0.19826  1.0000
  S   S1        1.0  0.34545  0.36410  0.16357  1.0000
  S   S2        1.0  0.31483  0.37293  0.21457  1.0000
  Fe  Fe2       1.0  0.36718  0.32603  0.20041  1.0000
  S   S3        1.0  0.37800  0.33401  0.16580  1.0000
  H   H1        1.0  0.22710  0.30639  0.23884  1.0000
  Fe  Fe3       1.0  0.38641  0.37625  0.17294  1.0000
  S   S4        1.0  0.41997  0.41500  0.15872  1.0000
  Fe  Fe4       1.0  0.33653  0.32141  0.15905  1.0000
  S   S5        1.0  0.30804  0.28746  0.13510  1.0000
  S   S6        1.0  0.37767  0.36900  0.20777  1.0000
  S   S7        1.0  0.32521  0.31117  0.19356  1.0000
  H   H2        1.0  0.99682  0.27520  0.00716  1.0000
  S   S8        1.0  0.38545  0.04063  0.19930  1.0000
  Fe  Fe5       1.0  0.00969  0.35065  0.19033  1.0000
  S   S9        1.0  0.00211  0.36914  0.16162  1.0000
  S   S10       1.0  0.05184  0.37198  0.20262  1.0000
  Fe  Fe6       1.0  0.23952  0.22799  0.01375  1.0000
  S   S11       1.0  0.20060  0.19191  0.02097  1.0000
  S   S12       1.0  0.27150  0.26240  0.03558  1.0000
  C   C1        1.0  0.05177  0.34434  0.23877  1.0000
  H   H3        1.0  0.27296  0.12452  0.00741  1.0000
  C   C2        1.0  0.99058  0.34291  0.05594  1.0000
  H   H4        1.0  0.32043  0.30008  0.01204  1.0000
  H   H5        1.0  0.38422  0.08590  0.13909  1.0000
  H   H6        1.0  0.36132  0.00514  0.10407  1.0000
  C   C3        1.0  0.35691  0.01979  0.09825  1.0000
  H   H7        1.0  0.37487  0.28422  0.15006  1.0000
  H   H8        1.0  0.30860  0.25556  0.00491  1.0000
  C   C4        1.0  0.33710  0.23379  0.14617  1.0000
  H   H9        1.0  0.08138  0.46503  0.21084  1.0000
  H   H10       1.0  0.29282  0.06996  0.06716  1.0000
  N   N1        1.0  0.34972  0.24779  0.16686  1.0000
  H   H11       1.0  0.29505  0.06242  0.02735  1.0000
  C   C5        1.0  0.45232  0.44029  0.16702  1.0000
  C   C6        1.0  0.46374  0.43938  0.18635  1.0000
  H   H12       1.0  0.04127  0.41343  0.18953  1.0000
  H   H13       1.0  0.35243  0.07458  0.11197  1.0000
  C   C7        1.0  0.46697  0.46228  0.15373  1.0000
  H   H14       1.0  0.45287  0.42274  0.19683  1.0000
  H   H15       1.0  0.45846  0.46332  0.13874  1.0000
  C   C8        1.0  0.29834  0.28109  0.10729  1.0000
  C   C9        1.0  0.31050  0.30060  0.09178  1.0000
  C   C10       1.0  0.30200  0.29445  0.07007  1.0000
  C   C11       1.0  0.28113  0.26879  0.06341  1.0000
  C   C12       1.0  0.26887  0.24934  0.07895  1.0000
  C   C13       1.0  0.27745  0.25546  0.10065  1.0000
  H   H16       1.0  0.32655  0.32042  0.09646  1.0000
  H   H17       1.0  0.31169  0.30977  0.05833  1.0000
  H   H18       1.0  0.25280  0.22954  0.07426  1.0000
  H   H19       1.0  0.26770  0.24015  0.11239  1.0000
  C   C14       1.0  0.38294  0.05561  0.22362  1.0000
  H   H20       1.0  0.27602  0.03361  0.06784  1.0000
  C   C15       1.0  0.34804  0.01841  0.14561  1.0000
  H   H21       1.0  0.35107  0.06548  0.14746  1.0000
  C   C16       1.0  0.39157  0.08337  0.22446  1.0000
  C   C17       1.0  0.33001  0.30640  0.99634  1.0000
  H   H22       1.0  0.35310  0.01940  0.16288  1.0000
  H   H23       1.0  0.39948  0.09512  0.21036  1.0000
  H   H24       1.0  0.14347  0.34173  0.22397  1.0000
  H   H25       1.0  0.33732  0.24810  0.13436  1.0000
  C   C18       1.0  0.12694  0.28920  0.21724  1.0000
  Fe  Fe7       1.0  0.37095  0.99592  0.19160  1.0000
  H   H26       1.0  0.34952  0.17815  0.22317  1.0000
  N   N2        1.0  0.36728  0.04290  0.13458  1.0000
  H   H27       1.0  0.30865  0.19984  0.17997  1.0000
  C   C19       1.0  0.36990  0.06666  0.14648  1.0000
  C   C20       1.0  0.26865  0.09027  0.02408  1.0000
  C   C21       1.0  0.25408  0.11954  0.03711  1.0000
  C   C22       1.0  0.06633  0.36450  0.22430  1.0000
  S   S13       1.0  0.38638  0.30704  0.21917  1.0000
  H   H28       1.0  0.26525  0.04169  0.01210  1.0000
  C   C23       1.0  0.24669  0.08133  0.05764  1.0000
  C   C24       1.0  0.00603  0.33210  0.05243  1.0000
  C   C25       1.0  0.34252  0.05449  0.08164  1.0000
  C   C26       1.0  0.28548  0.36195  0.22821  1.0000
  H   H29       1.0  0.01588  0.30979  0.03191  1.0000
  H   H30       1.0  0.19380  0.03737  0.01566  1.0000
  C   C27       1.0  0.02189  0.41694  0.22603  1.0000
  C   C28       1.0  0.35894  0.04069  0.11189  1.0000
  C   C29       1.0  0.32685  0.18641  0.20138  1.0000
  H   H31       1.0  0.01230  0.48793  0.15252  1.0000
  C   C30       1.0  0.37579  0.27085  0.16212  1.0000
  C   C31       1.0  0.35020  0.22862  0.18190  1.0000
  H   H32       1.0  0.01750  0.27344  0.08805  1.0000
  C   C32       1.0  0.19754  0.07618  0.01080  1.0000
  H   H33       1.0  0.09753  0.30979  0.21442  1.0000
  H   H34       1.0  0.34697  0.22395  0.13906  1.0000
  H   H35       1.0  0.27599  0.02672  0.03086  1.0000
  H   H36       1.0  0.25122  0.13629  0.03464  1.0000
  C   C33       1.0  0.20206  0.05502  0.00595  1.0000
  H   H37       1.0  0.23821  0.06941  0.07154  1.0000
  H   H38       1.0  0.22389  0.02262  0.02920  1.0000
  C   C34       1.0  0.00069  0.27495  0.08513  1.0000
  H   H39       1.0  0.99104  0.47934  0.23034  1.0000
  H   H40       1.0  0.02089  0.30638  0.99540  1.0000
  H   H41       1.0  0.37668  0.06781  0.16337  1.0000
  C   C35       1.0  0.99415  0.28853  0.10042  1.0000
  H   H42       1.0  0.40748  0.06255  0.12719  1.0000
  H   H43       1.0  0.22198  0.02621  0.05747  1.0000
  C   C36       1.0  0.34974  0.19174  0.21138  1.0000
  H   H44       1.0  0.34645  0.99975  0.13881  1.0000
  H   H45       1.0  0.39157  0.25198  0.19082  1.0000
  H   H46       1.0  0.05061  0.44593  0.17986  1.0000
  H   H47       1.0  0.45179  0.48224  0.19325  1.0000
  C   C37       1.0  0.37282  0.21524  0.20698  1.0000
  C   C38       1.0  0.23409  0.02518  0.04484  1.0000
  H   H48       1.0  0.31446  0.24321  0.17890  1.0000
  S   S14       1.0  0.99609  0.24768  0.04701  1.0000
  H   H49       1.0  0.38829  0.26380  0.15558  1.0000
  C   C39       1.0  0.32699  0.20452  0.18687  1.0000
  H   H50       1.0  0.23406  0.10869  0.06656  1.0000
  H   H51       1.0  0.99986  0.44073  0.15973  1.0000
  C   C40       1.0  0.25892  0.07380  0.04222  1.0000
  H   H52       1.0  0.39040  0.21979  0.21548  1.0000
  H   H53       1.0  0.01896  0.33326  0.06513  1.0000
  C   C41       1.0  0.34045  0.03349  0.06884  1.0000
  C   C42       1.0  0.39269  0.04499  0.13606  1.0000
  C   C43       1.0  0.05112  0.48685  0.20300  1.0000
  H   H54       1.0  0.99162  0.35251  0.07129  1.0000
  H   H55       1.0  0.33679  0.06779  0.07509  1.0000
  C   C44       1.0  0.09338  0.37964  0.22722  1.0000
  C   C45       1.0  0.26634  0.11286  0.02176  1.0000
  H   H56       1.0  0.26216  0.05103  0.07968  1.0000
  C   C46       1.0  0.39594  0.27396  0.24358  1.0000
  H   H57       1.0  0.14695  0.29326  0.21836  1.0000
  H   H58       1.0  0.33437  0.27384  0.16550  1.0000
  C   C47       1.0  0.98943  0.44912  0.16698  1.0000
  C   C48       1.0  0.37318  0.23362  0.19263  1.0000
  H   H59       1.0  0.99295  0.13639  0.00995  1.0000
  C   C49       1.0  0.33484  0.25899  0.17617  1.0000
  H   H60       1.0  0.39977  0.04740  0.15300  1.0000
  H   H61       1.0  0.32854  0.01571  0.14445  1.0000
  H   H62       1.0  0.38554  0.28397  0.17664  1.0000
  H   H63       1.0  0.01725  0.42203  0.18418  1.0000
  H   H64       1.0  0.30886  0.16843  0.20533  1.0000
  C   C50       1.0  0.06640  0.44982  0.22120  1.0000
  C   C51       1.0  0.27346  0.05119  0.06585  1.0000
  C   C52       1.0  0.26579  0.33475  0.22889  1.0000
  C   C53       1.0  0.00826  0.48170  0.22326  1.0000
  H   H65       1.0  0.11340  0.26693  0.21610  1.0000
  H   H66       1.0  0.31642  0.21812  0.14777  1.0000
  C   C54       1.0  0.35162  0.05816  0.10288  1.0000
  C   C55       1.0  0.99636  0.47596  0.16279  1.0000
  H   H67       1.0  0.35062  0.31293  0.99914  1.0000
  H   H68       1.0  0.10488  0.39527  0.21614  1.0000
  C   C56       1.0  0.00399  0.31855  0.03309  1.0000
  C   C57       1.0  0.01296  0.46053  0.22370  1.0000
  H   H69       1.0  0.33269  0.03011  0.05258  1.0000
  H   H70       1.0  0.34357  0.26955  0.19180  1.0000
  C   C58       1.0  0.03719  0.43004  0.19069  1.0000
  H   H71       1.0  0.27722  0.08559  0.01101  1.0000
  N   N3        1.0  0.26457  0.33446  0.15757  1.0000
  C   C59       1.0  0.25022  0.34082  0.17327  1.0000
  C   C60       1.0  0.27433  0.31908  0.16876  1.0000
  C   C61       1.0  0.28686  0.36053  0.15095  1.0000
  C   C62       1.0  0.24885  0.31861  0.13847  1.0000
  C   C63       1.0  0.22230  0.30984  0.13567  1.0000
  C   C64       1.0  0.26006  0.31122  0.12200  1.0000
  C   C65       1.0  0.20809  0.29475  0.11742  1.0000
  C   C66       1.0  0.24568  0.29617  0.10386  1.0000
  C   C67       1.0  0.21976  0.28793  0.10157  1.0000
  H   H72       1.0  0.23410  0.32220  0.18012  1.0000
  H   H73       1.0  0.26293  0.35334  0.18708  1.0000
  H   H74       1.0  0.24261  0.35278  0.16606  1.0000
  H   H75       1.0  0.25823  0.29891  0.17333  1.0000
  H   H76       1.0  0.28561  0.32995  0.18361  1.0000
  H   H77       1.0  0.28740  0.31568  0.15878  1.0000
  H   H78       1.0  0.28034  0.37254  0.14218  1.0000
  H   H79       1.0  0.29903  0.37307  0.16503  1.0000
  H   H80       1.0  0.29985  0.35777  0.14033  1.0000
  H   H81       1.0  0.21202  0.31426  0.14735  1.0000
  H   H82       1.0  0.28005  0.31683  0.12309  1.0000
  H   H83       1.0  0.18786  0.28820  0.11554  1.0000
  H   H84       1.0  0.25469  0.29071  0.09154  1.0000
  H   H85       1.0  0.20870  0.27615  0.08748  1.0000
  N   N4        1.0  0.26047  0.04936  0.04506  1.0000
  C   C68       1.0  0.27492  0.04504  0.02811  1.0000
  H   H86       1.0  0.26861  0.31936  0.22183  1.0000
  S   S15       1.0  0.20232  0.12622  0.00624  1.0000
  C   C69       1.0  0.37672  0.27757  0.23425  1.0000
  H   H87       1.0  0.12568  0.29773  0.20180  1.0000
  N   N5        1.0  0.03983  0.44019  0.21304  1.0000
  H   H88       1.0  0.09209  0.31172  0.24179  1.0000
  H   H89       1.0  0.34574  0.99968  0.06724  1.0000
  C   C70       1.0  0.24427  0.10382  0.05502  1.0000
  H   H90       1.0  0.02658  0.40071  0.22555  1.0000
  H   H91       1.0  0.39192  0.02665  0.12952  1.0000
  H   H92       1.0  0.00598  0.29741  0.11481  1.0000
  C   C71       1.0  0.03470  0.46253  0.21361  1.0000
  H   H93       1.0  0.18597  0.07448  0.02432  1.0000
  H   H94       1.0  0.03099  0.33252  0.23682  1.0000
  C   C72       1.0  0.14154  0.33001  0.23843  1.0000
  H   H95       1.0  0.23454  0.00649  0.04750  1.0000
  C   C73       1.0  0.34788  0.01638  0.07708  1.0000
  H   H96       1.0  0.39656  0.11737  0.24369  1.0000
  C   C74       1.0  0.20791  0.09956  0.99849  1.0000
  Fe  Fe8       1.0  0.21002  0.16847  0.99683  1.0000
  H   H97       1.0  0.99870  0.44247  0.23136  1.0000
  H   H98       1.0  0.16064  0.33238  0.24199  1.0000
  H   H99       1.0  0.07019  0.43294  0.22188  1.0000
  N   N6        1.0  0.12083  0.30130  0.23564  1.0000
  C   C75       1.0  0.35083  0.25754  0.23676  1.0000
  H   H100      1.0  0.33577  0.26001  0.22993  1.0000
  H   H101      1.0  0.06961  0.45893  0.23761  1.0000
  H   H102      1.0  0.00161  0.40740  0.21982  1.0000
  H   H103      1.0  0.42124  0.48086  0.21947  1.0000
  C   C76       1.0  0.24223  0.32744  0.23859  1.0000
  C   C77       1.0  0.10908  0.22003  0.99544  1.0000
  C   C78       1.0  0.38997  0.09609  0.24338  1.0000
  C   C79       1.0  0.09644  0.30023  0.22995  1.0000
  H   H104      1.0  0.02278  0.42309  0.24310  1.0000
  C   C80       1.0  0.28132  0.38155  0.23767  1.0000
  H   H105      1.0  0.29630  0.40265  0.23720  1.0000
  H   H106      1.0  0.07981  0.27906  0.22882  1.0000
  H   H107      1.0  0.12338  0.23957  0.00230  1.0000
  H   H108      1.0  0.36617  0.01945  0.24174  1.0000
  H   H109      1.0  0.07800  0.22817  0.99718  1.0000
  H   H110      1.0  0.06751  0.48949  0.19439  1.0000
  C   C81       1.0  0.37284  0.04076  0.24204  1.0000
  H   H111      1.0  0.41602  0.28932  0.24184  1.0000
  C   C82       1.0  0.00028  0.28982  0.99445  1.0000
  Fe  Fe9       1.0  0.20191  0.41185  0.30226  1.0000
  S   S16       1.0  0.16601  0.38970  0.32131  1.0000
  S   S17       1.0  0.22990  0.45739  0.30230  1.0000
  Fe  Fe10      1.0  0.19554  0.36007  0.28168  1.0000
  S   S18       1.0  0.15909  0.33424  0.29972  1.0000
  H   H112      1.0  0.18649  0.36499  0.48238  1.0000
  Fe  Fe11      1.0  0.14795  0.36450  0.29087  1.0000
  H   H113      1.0  0.32999  0.17097  0.33735  1.0000
  Fe  Fe12      1.0  0.17946  0.36094  0.32863  1.0000
  S   S19       1.0  0.18444  0.34999  0.36277  1.0000
  S   S20       1.0  0.18309  0.38871  0.27121  1.0000
  S   S21       1.0  0.21675  0.38486  0.31119  1.0000
  Fe  Fe13      1.0  0.37803  0.16664  0.33512  1.0000
  S   S22       1.0  0.40013  0.20715  0.31970  1.0000
  S   S23       1.0  0.36444  0.16945  0.36865  1.0000
  Fe  Fe14      1.0  0.38591  0.13815  0.29623  1.0000
  S   S24       1.0  0.40782  0.17664  0.27824  1.0000
  S   S25       1.0  0.37792  0.09605  0.28639  1.0000
  Fe  Fe15      1.0  0.42842  0.19507  0.31010  1.0000
  H   H114      1.0  0.25088  0.18937  0.48647  1.0000
  Fe  Fe16      1.0  0.37799  0.18596  0.28936  1.0000
  S   S26       1.0  0.35431  0.19959  0.27018  1.0000
  S   S27       1.0  0.40812  0.15625  0.32755  1.0000
  S   S28       1.0  0.35431  0.14576  0.30524  1.0000
  Fe  Fe17      1.0  0.10779  0.24291  0.45828  1.0000
  S   S29       1.0  0.08374  0.19840  0.46542  1.0000
  S   S30       1.0  0.10673  0.25656  0.42421  1.0000
  C   C83       1.0  0.45650  0.11542  0.28134  1.0000
  H   H115      1.0  0.20283  0.45451  0.34144  1.0000
  H   H116      1.0  0.27346  0.40428  0.36499  1.0000
  H   H117      1.0  0.08480  0.28493  0.26847  1.0000
  N   N7        1.0  0.25347  0.42564  0.37086  1.0000
  H   H118      1.0  0.13668  0.29923  0.45726  1.0000
  Fe  Fe18      1.0  0.25671  0.09532  0.45972  1.0000
  S   S31       1.0  0.21364  0.07727  0.45951  1.0000
  S   S32       1.0  0.27171  0.08922  0.42793  1.0000
  C   C84       1.0  0.13889  0.28171  0.26115  1.0000
  C   C85       1.0  0.27720  0.45240  0.37491  1.0000
  H   H119      1.0  0.34246  0.22807  0.30463  1.0000
  C   C86       1.0  0.11833  0.26185  0.29427  1.0000
  C   C87       1.0  0.02191  0.12100  0.47673  1.0000
  S   S33       1.0  0.26468  0.13344  0.47657  1.0000
  H   H120      1.0  0.47236  0.22464  0.43489  1.0000
  C   C88       1.0  0.23642  0.48082  0.32363  1.0000
  H   H121      1.0  0.45012  0.14325  0.32725  1.0000
  C   C89       1.0  0.32705  0.18269  0.32499  1.0000
  C   C90       1.0  0.28680  0.20396  0.34675  1.0000
  H   H122      1.0  0.23109  0.00231  0.44202  1.0000
  Fe  Fe19      1.0  0.22164  0.11449  0.47827  1.0000
  Fe  Fe20      1.0  0.11643  0.20638  0.48813  1.0000
  H   H123      1.0  0.19923  0.02715  0.39267  1.0000
  C   C91       1.0  0.37142  0.05351  0.26098  1.0000
  H   H124      1.0  0.36360  0.04175  0.27510  1.0000
  H   H125      1.0  0.25517  0.38961  0.25482  1.0000
  H   H126      1.0  0.18167  0.39124  0.45793  1.0000
  H   H127      1.0  0.47332  0.19045  0.34354  1.0000
  C   C92       1.0  0.25926  0.40829  0.35731  1.0000
  H   H128      1.0  0.10570  0.31061  0.47003  1.0000
  H   H129      1.0  0.23974  0.42523  0.40237  1.0000
  C   C93       1.0  0.33856  0.14655  0.38482  1.0000
  C   C94       1.0  0.33543  0.15591  0.40482  1.0000
  C   C95       1.0  0.31500  0.13884  0.41811  1.0000
  C   C96       1.0  0.29747  0.11203  0.41163  1.0000
  C   C97       1.0  0.30052  0.10270  0.39160  1.0000
  C   C98       1.0  0.32083  0.11984  0.37822  1.0000
  H   H130      1.0  0.34896  0.17653  0.41010  1.0000
  H   H131      1.0  0.31301  0.14635  0.43346  1.0000
  H   H132      1.0  0.28715  0.08202  0.38638  1.0000
  H   H133      1.0  0.32288  0.11232  0.36289  1.0000
  C   C99       1.0  0.13821  0.26903  0.28012  1.0000
  H   H134      1.0  0.26706  0.41776  0.34171  1.0000
  C   C100      1.0  0.16276  0.32283  0.37897  1.0000
  C   C101      1.0  0.17191  0.31921  0.39868  1.0000
  C   C102      1.0  0.15533  0.29859  0.41242  1.0000
  C   C103      1.0  0.12916  0.28162  0.40685  1.0000
  C   C104      1.0  0.12010  0.28503  0.38701  1.0000
  C   C105      1.0  0.13676  0.30540  0.37311  1.0000
  H   H135      1.0  0.19201  0.33236  0.40332  1.0000
  H   H136      1.0  0.16281  0.29577  0.42725  1.0000
  H   H137      1.0  0.09994  0.27197  0.38244  1.0000
  H   H138      1.0  0.12938  0.30785  0.35803  1.0000
  C   C106      1.0  0.30693  0.19850  0.34941  1.0000
  H   H139      1.0  0.17211  0.46979  0.30297  1.0000
  S   S34       1.0  0.47186  0.22564  0.31102  1.0000
  C   C107      1.0  0.16663  0.13616  0.49084  1.0000
  H   H140      1.0  0.42474  0.11560  0.31156  1.0000
  H   H141      1.0  0.44975  0.11234  0.32329  1.0000
  H   H142      1.0  0.29923  0.43660  0.38977  1.0000
  H   H143      1.0  0.15374  0.26570  0.28420  1.0000
  H   H144      1.0  0.18433  0.02198  0.44125  1.0000
  H   H145      1.0  0.22622  0.43892  0.36942  1.0000
  C   C108      1.0  0.25796  0.37420  0.24771  1.0000
  H   H146      1.0  0.43575  0.10283  0.27614  1.0000
  H   H147      1.0  0.23839  0.43620  0.34380  1.0000
  H   H148      1.0  0.22502  0.39257  0.38909  1.0000
  H   H149      1.0  0.30827  0.16881  0.31655  1.0000
  C   C109      1.0  0.22018  0.47426  0.34100  1.0000
  H   H150      1.0  0.16779  0.19773  0.46584  1.0000
  H   H151      1.0  0.13752  0.33977  0.25202  1.0000
  H   H152      1.0  0.35413  0.24209  0.35343  1.0000
  H   H153      1.0  0.25708  0.40795  0.39984  1.0000
  H   H154      1.0  0.22810  0.03136  0.44567  1.0000
  Fe  Fe21      1.0  0.21482  0.05977  0.49104  1.0000
  C   C110      1.0  0.29924  0.45442  0.38506  1.0000
  C   C111      1.0  0.35327  0.22446  0.34521  1.0000
  C   C112      1.0  0.16730  0.18057  0.47284  1.0000
  C   C113      1.0  0.99782  0.11498  0.48481  1.0000
  N   N8        1.0  0.32791  0.20694  0.33405  1.0000
  C   C114      1.0  0.00834  0.13062  0.44251  1.0000
  S   S35       1.0  0.20754  0.33676  0.25929  1.0000
  H   H155      1.0  0.43033  0.14041  0.28055  1.0000
  H   H156      1.0  0.24120  0.01220  0.39298  1.0000
  H   H157      1.0  0.11824  0.25267  0.30923  1.0000
  C   C115      1.0  0.18518  0.15118  0.47579  1.0000
  H   H158      1.0  0.15238  0.38047  0.39384  1.0000
  H   H159      1.0  0.25154  0.17401  0.39060  1.0000
  H   H160      1.0  0.21267  0.04695  0.41708  1.0000
  C   C116      1.0  0.14864  0.16544  0.48777  1.0000
  H   H161      1.0  0.11647  0.34303  0.48250  1.0000
  C   C117      1.0  0.22190  0.99726  0.39916  1.0000
  H   H162      1.0  0.23358  0.04697  0.39794  1.0000
  C   C118      1.0  0.02677  0.12919  0.45516  1.0000
  H   H163      1.0  0.11583  0.31415  0.43539  1.0000
  C   C119      1.0  0.06412  0.33959  0.25596  1.0000
  C   C120      1.0  0.27910  0.47704  0.36942  1.0000
  H   H164      1.0  0.01982  0.07619  0.48894  1.0000
  H   H165      1.0  0.17072  0.32314  0.45981  1.0000
  C   C121      1.0  0.38950  0.25063  0.25506  1.0000
  H   H166      1.0  0.04483  0.13512  0.44778  1.0000
  H   H167      1.0  0.11846  0.33346  0.40069  1.0000
  C   C122      1.0  0.23192  0.01951  0.43370  1.0000
  C   C123      1.0  0.12124  0.32706  0.48028  1.0000
  C   C124      1.0  0.22652  0.49329  0.35789  1.0000
  H   H168      1.0  0.46802  0.12302  0.26668  1.0000
  C   C125      1.0  0.36365  0.23036  0.25719  1.0000
  H   H169      1.0  0.01261  0.13740  0.42624  1.0000
  H   H170      1.0  0.46121  0.16174  0.26963  1.0000
  C   C126      1.0  0.44587  0.12686  0.31533  1.0000
  N   N9        1.0  0.46120  0.13810  0.29590  1.0000
  C   C127      1.0  0.09114  0.35478  0.25892  1.0000
  N   N10       1.0  0.14714  0.33819  0.47114  1.0000
  S   S36       1.0  0.10555  0.34708  0.28052  1.0000
  C   C128      1.0  0.32171  0.47950  0.38937  1.0000
  H   H171      1.0  0.45345  0.17037  0.29520  1.0000
  C   C129      1.0  0.14827  0.35068  0.45044  1.0000
  C   C130      1.0  0.16735  0.37785  0.44610  1.0000
  C   C131      1.0  0.13051  0.33516  0.43352  1.0000
  C   C132      1.0  0.16861  0.38845  0.42592  1.0000
  C   C133      1.0  0.13190  0.34599  0.41348  1.0000
  C   C134      1.0  0.15106  0.37247  0.40961  1.0000
  H   H172      1.0  0.40457  0.24815  0.26194  1.0000
  H   H173      1.0  0.30831  0.20971  0.30602  1.0000
  C   C135      1.0  0.23244  0.42711  0.35979  1.0000
  H   H174      1.0  0.12653  0.38655  0.24628  1.0000
  C   C136      1.0  0.15196  0.31588  0.46757  1.0000
  H   H175      1.0  0.34246  0.18827  0.31329  1.0000
  S   S37       1.0  0.25752  0.07571  0.49049  1.0000
  H   H176      1.0  0.32075  0.17913  0.37075  1.0000
  H   H177      1.0  0.25191  0.19955  0.35923  1.0000
  C   C137      1.0  0.09918  0.26752  0.28957  1.0000
  H   H178      1.0  0.25213  0.03302  0.42864  1.0000
  H   H179      1.0  0.18339  0.40911  0.42283  1.0000
  C   C138      1.0  0.26713  0.19524  0.36153  1.0000
  C   C139      1.0  0.45125  0.15343  0.28484  1.0000
  H   H180      1.0  0.00838  0.19360  0.46432  1.0000
  H   H181      1.0  0.08426  0.26282  0.30099  1.0000
  C   C140      1.0  0.37983  0.08118  0.26179  1.0000
  H   H182      1.0  0.36945  0.23232  0.33390  1.0000
  H   H183      1.0  0.32768  0.24119  0.32136  1.0000
  H   H184      1.0  0.28610  0.16390  0.39600  1.0000
  H   H185      1.0  0.19958  0.18518  0.45520  1.0000
  C   C141      1.0  0.30610  0.18398  0.36769  1.0000
  H   H186      1.0  0.05260  0.32401  0.26707  1.0000
  H   H187      1.0  0.15252  0.30666  0.48281  1.0000
  S   S38       1.0  0.14158  0.24998  0.47912  1.0000
  H   H188      1.0  0.26355  0.47770  0.36160  1.0000
  H   H189      1.0  0.05780  0.10778  0.46583  1.0000
  S   S39       1.0  0.20844  0.14317  0.46739  1.0000
  C   C142      1.0  0.21459  0.03358  0.40529  1.0000
  C   C143      1.0  0.26687  0.18086  0.37923  1.0000
  C   C144      1.0  0.24347  0.41233  0.39146  1.0000
  C   C145      1.0  0.28633  0.17522  0.38229  1.0000
  C   C146      1.0  0.23814  0.34708  0.24812  1.0000
  H   H190      1.0  0.35752  0.21350  0.35740  1.0000
  H   H191      1.0  0.28576  0.21486  0.33337  1.0000
  C   C147      1.0  0.09964  0.28014  0.27061  1.0000
  C   C148      1.0  0.18537  0.17341  0.46688  1.0000
  H   H192      1.0  0.24162  0.38809  0.35380  1.0000
  C   C149      1.0  0.34439  0.23407  0.24807  1.0000
  H   H193      1.0  0.21492  0.40675  0.35686  1.0000
  C   C150      1.0  0.32635  0.22216  0.31583  1.0000
  H   H194      1.0  0.46786  0.22841  0.39595  1.0000
  S   S40       1.0  0.08967  0.25473  0.48417  1.0000
  C   C151      1.0  0.06371  0.12301  0.47914  1.0000
  H   H195      1.0  0.15552  0.28818  0.25139  1.0000
  H   H196      1.0  0.46149  0.10155  0.28899  1.0000
  H   H197      1.0  0.07539  0.14358  0.47264  1.0000
  H   H198      1.0  0.16373  0.37441  0.49114  1.0000
  C   C152      1.0  0.48686  0.23776  0.40360  1.0000
  H   H199      1.0  0.20973  0.99711  0.47509  1.0000
  Fe  Fe22      1.0  0.06796  0.21090  0.49259  1.0000
  C   C153      1.0  0.99198  0.18183  0.47422  1.0000
  H   H200      1.0  0.32434  0.21853  0.24955  1.0000
  C   C154      1.0  0.18425  0.49144  0.30584  1.0000
  C   C155      1.0  0.16641  0.35720  0.48748  1.0000
  H   H201      1.0  0.07735  0.12093  0.48988  1.0000
  C   C156      1.0  0.11934  0.28720  0.25557  1.0000
  H   H202      1.0  0.33835  0.48057  0.39704  1.0000
  H   H203      1.0  0.21408  0.48795  0.37143  1.0000
  C   C157      1.0  0.17482  0.00096  0.43630  1.0000
  N   N11       1.0  0.04107  0.11961  0.49073  1.0000
  N   N12       1.0  0.21334  0.00989  0.41527  1.0000
  H   H204      1.0  0.99825  0.23407  0.49042  1.0000
  H   H205      1.0  0.15864  0.49345  0.32799  1.0000
  C   C158      1.0  0.10574  0.37476  0.24433  1.0000
  Fe  Fe23      1.0  0.19323  0.40757  0.65910  1.0000
  S   S41       1.0  0.15113  0.37522  0.66114  1.0000
  S   S42       1.0  0.19856  0.44447  0.64182  1.0000
  Fe  Fe24      1.0  0.21089  0.37269  0.68128  1.0000
  S   S43       1.0  0.17008  0.33832  0.68466  1.0000
  S   S44       1.0  0.24691  0.37078  0.68954  1.0000
  Fe  Fe25      1.0  0.16343  0.34632  0.65064  1.0000
  S   S45       1.0  0.13880  0.31045  0.62748  1.0000
  Fe  Fe26      1.0  0.16094  0.37002  0.69472  1.0000
  S   S46       1.0  0.13867  0.36636  0.72517  1.0000
  S   S47       1.0  0.20475  0.37884  0.64650  1.0000
  S   S48       1.0  0.20262  0.40420  0.69349  1.0000
  Fe  Fe27      1.0  0.39006  0.14993  0.68818  1.0000
  S   S49       1.0  0.41576  0.19575  0.68902  1.0000
  S   S50       1.0  0.39924  0.12592  0.71181  1.0000
  Fe  Fe28      1.0  0.36041  0.14955  0.64776  1.0000
  S   S51       1.0  0.38406  0.19447  0.64607  1.0000
  S   S52       1.0  0.32757  0.12096  0.62422  1.0000
  Fe  Fe29      1.0  0.41875  0.19128  0.65352  1.0000
  S   S53       1.0  0.45218  0.21662  0.63136  1.0000
  Fe  Fe30      1.0  0.37919  0.19571  0.68172  1.0000
  S   S54       1.0  0.36871  0.22743  0.69107  1.0000
  S   S55       1.0  0.39522  0.14584  0.65295  1.0000
  S   S56       1.0  0.35340  0.15037  0.68306  1.0000
  Fe  Fe31      1.0  0.12202  0.25934  0.50553  1.0000
  S   S57       1.0  0.09933  0.21657  0.51584  1.0000
  S   S58       1.0  0.14590  0.29779  0.52632  1.0000
  Fe  Fe32      1.0  0.26230  0.11291  0.50754  1.0000
  S   S59       1.0  0.21960  0.09593  0.51002  1.0000
  S   S60       1.0  0.29125  0.14177  0.53362  1.0000
  S   S61       1.0  0.12537  0.17345  0.49618  1.0000
  C   C159      1.0  0.27461  0.20462  0.53762  1.0000
  C   C160      1.0  0.22579  0.47771  0.64084  1.0000
  H   H206      1.0  0.17697  0.43209  0.68440  1.0000
  C   C161      1.0  0.24897  0.48556  0.65183  1.0000
  C   C162      1.0  0.24244  0.35788  0.73259  1.0000
  C   C163      1.0  0.38127  0.09387  0.72390  1.0000
  H   H207      1.0  0.30222  0.34996  0.73287  1.0000
  C   C164      1.0  0.13393  0.44724  0.70296  1.0000
  H   H208      1.0  0.30994  0.43131  0.70254  1.0000
  C   C165      1.0  0.36225  0.23887  0.71553  1.0000
  C   C166      1.0  0.36129  0.26264  0.71570  1.0000
  H   H209      1.0  0.04340  0.09086  0.51062  1.0000
  H   H210      1.0  0.36553  0.27405  0.70130  1.0000
  C   C167      1.0  0.25932  0.47144  0.60173  1.0000
  H   H211      1.0  0.20601  0.49098  0.62024  1.0000
  C   C168      1.0  0.23819  0.20535  0.52179  1.0000
  H   H212      1.0  0.01401  0.09024  0.51250  1.0000
  C   C169      1.0  0.31764  0.12735  0.59919  1.0000
  C   C170      1.0  0.32822  0.15343  0.59152  1.0000
  C   C171      1.0  0.31994  0.15739  0.57145  1.0000
  C   C172      1.0  0.30101  0.13540  0.55876  1.0000
  C   C173      1.0  0.29043  0.10934  0.56646  1.0000
  C   C174      1.0  0.29869  0.10539  0.58655  1.0000
  H   H213      1.0  0.34274  0.17056  0.60104  1.0000
  H   H214      1.0  0.32829  0.17765  0.56567  1.0000
  H   H215      1.0  0.27585  0.09222  0.55697  1.0000
  H   H216      1.0  0.29034  0.08511  0.59230  1.0000
  C   C175      1.0  0.10886  0.36406  0.73103  1.0000
  C   C176      1.0  0.09464  0.36878  0.71579  1.0000
  H   H217      1.0  0.10108  0.37281  0.69955  1.0000
  C   C177      1.0  0.25565  0.36136  0.71367  1.0000
  C   C178      1.0  0.27727  0.35845  0.71403  1.0000
  H   H218      1.0  0.22970  0.15801  0.53982  1.0000
  H   H219      1.0  0.28753  0.36097  0.69945  1.0000
  H   H220      1.0  0.14885  0.43181  0.65476  1.0000
  C   C179      1.0  0.14145  0.30749  0.59938  1.0000
  C   C180      1.0  0.15975  0.32897  0.58750  1.0000
  C   C181      1.0  0.16088  0.32565  0.56520  1.0000
  C   C182      1.0  0.14384  0.30082  0.55451  1.0000
  C   C183      1.0  0.12561  0.27933  0.56639  1.0000
  C   C184      1.0  0.12442  0.28270  0.58865  1.0000
  H   H221      1.0  0.17297  0.34813  0.59551  1.0000
  H   H222      1.0  0.17509  0.34240  0.55622  1.0000
  H   H223      1.0  0.11234  0.26014  0.55845  1.0000
  H   H224      1.0  0.11019  0.26596  0.59767  1.0000
  C   C185      1.0  0.21116  0.19052  0.52508  1.0000
  C   C186      1.0  0.48375  0.22187  0.63109  1.0000
  H   H225      1.0  0.98967  0.21520  0.55662  1.0000
  C   C187      1.0  0.16157  0.49129  0.67122  1.0000
  H   H226      1.0  0.46712  0.15966  0.62401  1.0000
  H   H227      1.0  0.29452  0.24294  0.74322  1.0000
  C   C188      1.0  0.14847  0.14324  0.49673  1.0000
  C   C189      1.0  0.22248  0.27789  0.70375  1.0000
  C   C190      1.0  0.07202  0.36836  0.72163  1.0000
  H   H228      1.0  0.22619  0.43115  0.60212  1.0000
  H   H229      1.0  0.35461  0.40185  0.73768  1.0000
  H   H230      1.0  0.22333  0.15229  0.51128  1.0000
  H   H231      1.0  0.27211  0.42454  0.72185  1.0000
  C   C191      1.0  0.23555  0.45024  0.59406  1.0000
  H   H232      1.0  0.22865  0.25676  0.67837  1.0000
  H   H233      1.0  0.38029  0.45167  0.74410  1.0000
  C   C192      1.0  0.43431  0.11951  0.62651  1.0000
  H   H234      1.0  0.22579  0.36005  0.73260  1.0000
  H   H235      1.0  0.35734  0.20607  0.73449  1.0000
  C   C193      1.0  0.32947  0.42868  0.73070  1.0000
  C   C194      1.0  0.24929  0.25847  0.70739  1.0000
  C   C195      1.0  0.19696  0.20328  0.52557  1.0000
  C   C196      1.0  0.20905  0.23095  0.52274  1.0000
  H   H236      1.0  0.06137  0.37229  0.70976  1.0000
  N   N13       1.0  0.15156  0.44727  0.68681  1.0000
  H   H237      1.0  0.12287  0.40948  0.67129  1.0000
  H   H238      1.0  0.12025  0.42644  0.70844  1.0000
  C   C197      1.0  0.17031  0.47536  0.68081  1.0000
  H   H239      1.0  0.25063  0.47112  0.66132  1.0000
  H   H240      1.0  0.27034  0.24615  0.51648  1.0000
  C   C198      1.0  0.40873  0.10154  0.62014  1.0000
  H   H241      1.0  0.17503  0.44333  0.71111  1.0000
  H   H242      1.0  0.20487  0.43731  0.57073  1.0000
  C   C199      1.0  0.22807  0.28697  0.72499  1.0000
  S   S62       1.0  0.02714  0.18604  0.50572  1.0000
  H   H243      1.0  0.06601  0.14187  0.51802  1.0000
  H   H244      1.0  0.44397  0.11344  0.63776  1.0000
  H   H245      1.0  0.37605  0.09474  0.60217  1.0000
  N   N14       1.0  0.29696  0.17340  0.66025  1.0000
  C   C200      1.0  0.27323  0.15773  0.64653  1.0000
  C   C201      1.0  0.29963  0.19976  0.66596  1.0000
  C   C202      1.0  0.31947  0.17891  0.64760  1.0000
  C   C203      1.0  0.29588  0.15782  0.67912  1.0000
  C   C204      1.0  0.28916  0.13050  0.67663  1.0000
  C   C205      1.0  0.30278  0.16951  0.70018  1.0000
  C   C206      1.0  0.28834  0.11554  0.69418  1.0000
  C   C207      1.0  0.30208  0.15441  0.71760  1.0000
  C   C208      1.0  0.16392  0.43323  0.69603  1.0000
  H   H246      1.0  0.25562  0.15058  0.65606  1.0000
  H   H247      1.0  0.27253  0.16991  0.63330  1.0000
  H   H248      1.0  0.27201  0.13982  0.63849  1.0000
  H   H249      1.0  0.28396  0.19706  0.67654  1.0000
  H   H250      1.0  0.29907  0.21043  0.65156  1.0000
  H   H251      1.0  0.31860  0.21393  0.67411  1.0000
  H   H252      1.0  0.31853  0.16003  0.64231  1.0000
  H   H253      1.0  0.32118  0.19039  0.63305  1.0000
  H   H254      1.0  0.33761  0.19100  0.65732  1.0000
  H   H255      1.0  0.28545  0.12073  0.66099  1.0000
  H   H256      1.0  0.30955  0.19051  0.70359  1.0000
  C   C209      1.0  0.23870  0.16295  0.52392  1.0000
  H   H257      1.0  0.17627  0.19154  0.52771  1.0000
  H   H258      1.0  0.20033  0.16893  0.52691  1.0000
  H   H259      1.0  0.19777  0.24056  0.52281  1.0000
  H   H260      1.0  0.29246  0.25431  0.71761  1.0000
  H   H261      1.0  0.14127  0.48330  0.66821  1.0000
  C   C210      1.0  0.30942  0.42902  0.71972  1.0000
  C   C211      1.0  0.44733  0.14554  0.61877  1.0000
  H   H262      1.0  0.01680  0.23133  0.52491  1.0000
  H   H263      1.0  0.16610  0.11895  0.49779  1.0000
  C   C212      1.0  0.22350  0.45386  0.57646  1.0000
  H   H264      1.0  0.34537  0.43118  0.72143  1.0000
  H   H265      1.0  0.14950  0.41203  0.70007  1.0000
  C   C213      1.0  0.25549  0.26763  0.72914  1.0000
  C   C214      1.0  0.13609  0.43115  0.66765  1.0000
  H   H266      1.0  0.04186  0.46332  0.74320  1.0000
  H   H267      1.0  0.12389  0.43843  0.66089  1.0000
  H   H268      1.0  0.03504  0.13904  0.51799  1.0000
  C   C215      1.0  0.35673  0.22437  0.73431  1.0000
  H   H269      1.0  0.20610  0.47712  0.69078  1.0000
  H   H270      1.0  0.39854  0.08147  0.62655  1.0000
  C   C216      1.0  0.19744  0.48769  0.68410  1.0000
  H   H271      1.0  0.25105  0.15400  0.52307  1.0000
  C   C217      1.0  0.28143  0.24585  0.73238  1.0000
  H   H272      1.0  0.28601  0.19449  0.53781  1.0000
  N   N15       1.0  0.25385  0.19254  0.52079  1.0000
  C   C218      1.0  0.35532  0.27206  0.73442  1.0000
  H   H273      1.0  0.13420  0.13140  0.50834  1.0000
  C   C219      1.0  0.23297  0.26357  0.69499  1.0000
  S   S63       1.0  0.18321  0.01742  0.50097  1.0000
  H   H274      1.0  0.12201  0.45512  0.69665  1.0000
  C   C220      1.0  0.23509  0.47880  0.56658  1.0000
  N   N16       1.0  0.39576  0.14554  0.58337  1.0000
  C   C221      1.0  0.41124  0.15725  0.56408  1.0000
  C   C222      1.0  0.36949  0.12385  0.57598  1.0000
  C   C223      1.0  0.39329  0.16669  0.59471  1.0000
  C   C224      1.0  0.40875  0.13601  0.59783  1.0000
  C   C225      1.0  0.39600  0.10952  0.60602  1.0000
  C   C226      1.0  0.43479  0.15378  0.60476  1.0000
  H   H275      1.0  0.21025  0.28231  0.69402  1.0000
  C   C227      1.0  0.28583  0.35249  0.73306  1.0000
  C   C228      1.0  0.05066  0.14122  0.50758  1.0000
  H   H276      1.0  0.41540  0.14267  0.55609  1.0000
  H   H277      1.0  0.40107  0.16282  0.55219  1.0000
  H   H278      1.0  0.42999  0.17612  0.56788  1.0000
  H   H279      1.0  0.36993  0.10724  0.56723  1.0000
  H   H280      1.0  0.36025  0.13157  0.56505  1.0000
  H   H281      1.0  0.35627  0.11523  0.58958  1.0000
  H   H282      1.0  0.41230  0.18428  0.60009  1.0000
  H   H283      1.0  0.38376  0.17462  0.58443  1.0000
  H   H284      1.0  0.38160  0.15856  0.60921  1.0000
  H   H285      1.0  0.26836  0.46864  0.61571  1.0000
  H   H286      1.0  0.44553  0.17452  0.59990  1.0000
  H   H287      1.0  0.25707  0.24768  0.69950  1.0000
  H   H288      1.0  0.99330  0.11023  0.50137  1.0000
  C   C229      1.0  0.24994  0.23359  0.51917  1.0000
  H   H289      1.0  0.28860  0.22638  0.53526  1.0000
  C   C230      1.0  0.24440  0.28211  0.73750  1.0000
  H   H290      1.0  0.30789  0.16393  0.73343  1.0000
  C   C231      1.0  0.23551  0.24612  0.51962  1.0000
  H   H291      1.0  0.14500  0.45982  0.71734  1.0000
  H   H292      1.0  0.26640  0.20262  0.55373  1.0000
  C   C232      1.0  0.29475  0.12746  0.71464  1.0000
  H   H293      1.0  0.28359  0.09486  0.69180  1.0000
  H   H294      1.0  0.30640  0.30038  0.73059  1.0000
  H   H295      1.0  0.47972  0.19838  0.65855  1.0000
  C   C233      1.0  0.39467  0.08413  0.73552  1.0000
  H   H296      1.0  0.34368  0.08566  0.71425  1.0000
  C   C234      1.0  0.35428  0.07847  0.72305  1.0000
  H   H297      1.0  0.05908  0.16135  0.50038  1.0000
  H   H298      1.0  0.22017  0.29847  0.73165  1.0000
  H   H299      1.0  0.29473  0.11602  0.72814  1.0000
  H   H300      1.0  0.26422  0.22552  0.72869  1.0000
  H   H301      1.0  0.41553  0.09584  0.73634  1.0000
  H   H302      1.0  0.20128  0.00549  0.54259  1.0000
  C   C235      1.0  0.99686  0.22612  0.52383  1.0000
  N   N17       1.0  0.27399  0.26420  0.74236  1.0000
  H   H303      1.0  0.24480  0.26766  0.51735  1.0000
  C   C236      1.0  0.02899  0.09307  0.50110  1.0000
  H   H304      1.0  0.16460  0.34710  0.50292  1.0000
  H   H305      1.0  0.35496  0.29050  0.73430  1.0000
  C   C237      1.0  0.26582  0.19700  0.49960  1.0000
  C   C238      1.0  0.06286  0.36249  0.74260  1.0000
  C   C239      1.0  0.34100  0.05403  0.73407  1.0000
  C   C240      1.0  0.28804  0.42527  0.73059  1.0000
  C   C241      1.0  0.99585  0.17534  0.49480  1.0000
  H   H306      1.0  0.12006  0.31807  0.49616  1.0000
  H   H307      1.0  0.32014  0.04259  0.73357  1.0000
  H   H308      1.0  0.22499  0.48060  0.55298  1.0000
  H   H309      1.0  0.27974  0.21866  0.49680  1.0000
  H   H310      1.0  0.27659  0.18636  0.49778  1.0000
  Fe  Fe33      1.0  0.34349  0.30622  0.79002  1.0000
  S   S64       1.0  0.36947  0.33102  0.81832  1.0000
  S   S65       1.0  0.33999  0.26707  0.77687  1.0000
  Fe  Fe34      1.0  0.31639  0.33846  0.78911  1.0000
  S   S66       1.0  0.34017  0.36476  0.81727  1.0000
  S   S67       1.0  0.28319  0.34310  0.77690  1.0000
  Fe  Fe35      1.0  0.37452  0.36767  0.80122  1.0000
  S   S68       1.0  0.40892  0.40920  0.79130  1.0000
  Fe  Fe36      1.0  0.33316  0.32645  0.83249  1.0000
  S   S69       1.0  0.32090  0.32072  0.86793  1.0000
  S   S70       1.0  0.35058  0.34269  0.77213  1.0000
  S   S71       1.0  0.30738  0.30024  0.80516  1.0000
  H   H311      1.0  0.47710  0.00113  0.77593  1.0000
  C   C242      1.0  0.22735  0.08001  0.97618  1.0000
  N   N18       1.0  0.34978  0.42334  0.76414  1.0000
  C   C243      1.0  0.35149  0.40054  0.75515  1.0000
  S   S72       1.0  0.01229  0.36464  0.81013  1.0000
  C   C244      1.0  0.28655  0.42105  0.75248  1.0000
  H   H312      1.0  0.37383  0.46658  0.76674  1.0000
  C   C245      1.0  0.48235  0.47580  0.79084  1.0000
  Fe  Fe37      1.0  0.23063  0.21495  0.96484  1.0000
  S   S73       1.0  0.19119  0.17759  0.96932  1.0000
  S   S74       1.0  0.24676  0.22530  0.93068  1.0000
  H   H313      1.0  0.30545  0.24173  0.97878  1.0000
  H   H314      1.0  0.36614  0.06678  0.85460  1.0000
  S   S75       1.0  0.01107  0.23719  0.98699  1.0000
  H   H315      1.0  0.31260  0.28920  0.75531  1.0000
  H   H316      1.0  0.33954  0.03325  0.85774  1.0000
  H   H317      1.0  0.26940  0.41716  0.76069  1.0000
  H   H318      1.0  0.06415  0.45575  0.81257  1.0000
  C   C246      1.0  0.34669  0.07783  0.79463  1.0000
  H   H319      1.0  0.30952  0.04506  0.84890  1.0000
  C   C247      1.0  0.08318  0.21358  0.99256  1.0000
  C   C248      1.0  0.32857  0.42431  0.75301  1.0000
  S   S76       1.0  0.22279  0.24062  0.98701  1.0000
  S   S77       1.0  0.22433  0.03093  0.98199  1.0000
  C   C249      1.0  0.47651  0.45821  0.82625  1.0000
  H   H320      1.0  0.28971  0.29444  0.96988  1.0000
  H   H321      1.0  0.08680  0.46767  0.77712  1.0000
  H   H322      1.0  0.32342  0.00821  0.89432  1.0000
  S   S78       1.0  0.03066  0.17857  0.97982  1.0000
  N   N19       1.0  0.04589  0.44261  0.78121  1.0000
  H   H323      1.0  0.02992  0.43068  0.81253  1.0000
  H   H324      1.0  0.30338  0.41600  0.78036  1.0000
  C   C250      1.0  0.32186  0.27096  0.94239  1.0000
  C   C251      1.0  0.33245  0.27726  0.92213  1.0000
  C   C252      1.0  0.26300  0.25312  0.76342  1.0000
  C   C253      1.0  0.03773  0.47898  0.79533  1.0000
  C   C254      1.0  0.99730  0.26558  0.90410  1.0000
  C   C255      1.0  0.98919  0.28848  0.87478  1.0000
  C   C256      1.0  0.44119  0.43494  0.79965  1.0000
  C   C257      1.0  0.45695  0.45474  0.78504  1.0000
  H   H325      1.0  0.48386  0.45939  0.84234  1.0000
  C   C258      1.0  0.45128  0.43685  0.82033  1.0000
  H   H326      1.0  0.44958  0.45351  0.76895  1.0000
  H   H327      1.0  0.43958  0.42199  0.83185  1.0000
  C   C259      1.0  0.29871  0.29369  0.88438  1.0000
  C   C260      1.0  0.29272  0.29999  0.90453  1.0000
  C   C261      1.0  0.27648  0.27953  0.91863  1.0000
  C   C262      1.0  0.26627  0.25224  0.91305  1.0000
  C   C263      1.0  0.27184  0.24590  0.89274  1.0000
  C   C264      1.0  0.28780  0.26636  0.87850  1.0000
  H   H328      1.0  0.30089  0.32096  0.90933  1.0000
  H   H329      1.0  0.27202  0.28496  0.93383  1.0000
  H   H330      1.0  0.26402  0.22495  0.88804  1.0000
  H   H331      1.0  0.29214  0.26099  0.86317  1.0000
  H   H332      1.0  0.00870  0.25794  0.91078  1.0000
  C   C265      1.0  0.38945  0.10917  0.78223  1.0000
  C   C266      1.0  0.29047  0.27732  0.97675  1.0000
  S   S79       1.0  0.03499  0.36381  0.74927  1.0000
  H   H333      1.0  0.02189  0.41882  0.75386  1.0000
  C   C267      1.0  0.34967  0.25748  0.75318  1.0000
  H   H334      1.0  0.03736  0.47349  0.81176  1.0000
  C   C268      1.0  0.09974  0.35832  0.75199  1.0000
  H   H335      1.0  0.06880  0.44945  0.75319  1.0000
  H   H336      1.0  0.23095  0.11881  0.97128  1.0000
  C   C269      1.0  0.29779  0.29091  0.74597  1.0000
  H   H337      1.0  0.05739  0.15031  0.97119  1.0000
  C   C270      1.0  0.07681  0.35727  0.75771  1.0000
  H   H338      1.0  0.30624  0.25043  0.94453  1.0000
  H   H339      1.0  0.32614  0.06830  0.79182  1.0000
  H   H340      1.0  0.11049  0.35458  0.76393  1.0000
  H   H341      1.0  0.07018  0.35281  0.77390  1.0000
  C   C271      1.0  0.04146  0.46516  0.77807  1.0000
  C   C272      1.0  0.33015  0.29099  0.95902  1.0000
  H   H342      1.0  0.31060  0.02412  0.80360  1.0000
  H   H343      1.0  0.32856  0.40000  0.79101  1.0000
  H   H344      1.0  0.01988  0.28017  0.87566  1.0000
  H   H345      1.0  0.28017  0.27244  0.99206  1.0000
  N   N20       1.0  0.17746  0.24390  0.93223  1.0000
  C   C273      1.0  0.17917  0.21990  0.93707  1.0000
  C   C274      1.0  0.18837  0.26291  0.95097  1.0000
  C   C275      1.0  0.14964  0.23447  0.92962  1.0000
  C   C276      1.0  0.19157  0.25798  0.91296  1.0000
  C   C277      1.0  0.19052  0.28036  0.90546  1.0000
  C   C278      1.0  0.20770  0.25106  0.90182  1.0000
  C   C279      1.0  0.20470  0.29486  0.88796  1.0000
  C   C280      1.0  0.22189  0.26581  0.88443  1.0000
  C   C281      1.0  0.22045  0.28766  0.87754  1.0000
  H   H346      1.0  0.19938  0.22558  0.94084  1.0000
  H   H347      1.0  0.16782  0.20933  0.95128  1.0000
  H   H348      1.0  0.17150  0.20481  0.92352  1.0000
  H   H349      1.0  0.20938  0.27087  0.95321  1.0000
  H   H350      1.0  0.17888  0.25299  0.96600  1.0000
  H   H351      1.0  0.18588  0.28046  0.94938  1.0000
  H   H352      1.0  0.14101  0.22117  0.91505  1.0000
  H   H353      1.0  0.13850  0.22273  0.94361  1.0000
  H   H354      1.0  0.14611  0.25135  0.92843  1.0000
  H   H355      1.0  0.17904  0.28710  0.91330  1.0000
  H   H356      1.0  0.21006  0.23459  0.90636  1.0000
  H   H357      1.0  0.20369  0.31195  0.88257  1.0000
  H   H358      1.0  0.23445  0.26048  0.87644  1.0000
  H   H359      1.0  0.23175  0.29915  0.86417  1.0000
  C   C282      1.0  0.21712  0.05672  0.98859  1.0000
  Fe  Fe38      1.0  0.18408  0.20304  0.99290  1.0000
  H   H360      1.0  0.30870  0.05912  0.82417  1.0000
  H   H361      1.0  0.24399  0.23397  0.76143  1.0000
  H   H362      1.0  0.29407  0.30519  0.75498  1.0000
  H   H363      1.0  0.26026  0.26739  0.77348  1.0000
  H   H364      1.0  0.39207  0.05277  0.75556  1.0000
  C   C283      1.0  0.32204  0.05906  0.83646  1.0000
  H   H365      1.0  0.39369  0.07789  0.82560  1.0000
  C   C284      1.0  0.02404  0.41749  0.77137  1.0000
  H   H366      1.0  0.10268  0.16164  0.97642  1.0000
  H   H367      1.0  0.31102  0.00787  0.82765  1.0000
  H   H368      1.0  0.42082  0.11088  0.79992  1.0000
  S   S80       1.0  0.33645  0.01414  0.76021  1.0000
  H   H369      1.0  0.35849  0.30867  0.90162  1.0000
  H   H370      1.0  0.35466  0.10205  0.76674  1.0000
  H   H371      1.0  0.23895  0.08174  0.96267  1.0000
  C   C285      1.0  0.34963  0.31775  0.95403  1.0000
  H   H372      1.0  0.05259  0.42117  0.80589  1.0000
  N   N21       1.0  0.33938  0.05063  0.82750  1.0000
  C   C286      1.0  0.32341  0.02395  0.81638  1.0000
  C   C287      1.0  0.00364  0.27829  0.88408  1.0000
  H   H373      1.0  0.33578  0.01762  0.80851  1.0000
  C   C288      1.0  0.07167  0.16987  0.97801  1.0000
  C   C289      1.0  0.35688  0.07058  0.81206  1.0000
  H   H374      1.0  0.35694  0.33444  0.96545  1.0000
  H   H375      1.0  0.24099  0.34999  0.76627  1.0000
  H   H376      1.0  0.36270  0.41900  0.79538  1.0000
  C   C290      1.0  0.35444  0.04457  0.74598  1.0000
  C   C291      1.0  0.40009  0.10193  0.79873  1.0000
  C   C292      1.0  0.35986  0.32386  0.93359  1.0000
  H   H377      1.0  0.34580  0.22195  0.76726  1.0000
  C   C293      1.0  0.06409  0.18835  0.98383  1.0000
  C   C294      1.0  0.38416  0.08288  0.81345  1.0000
  H   H378      1.0  0.27604  0.24895  0.77315  1.0000
  C   C295      1.0  0.30636  0.42040  0.76361  1.0000
  H   H379      1.0  0.34533  0.43625  0.79551  1.0000
  H   H380      1.0  0.00555  0.41243  0.77867  1.0000
  C   C296      1.0  0.35120  0.30370  0.91766  1.0000
  H   H381      1.0  0.98903  0.08655  0.99186  1.0000
  S   S81       1.0  0.24965  0.20431  0.99100  1.0000
  H   H382      1.0  0.37421  0.34447  0.92985  1.0000
  C   C297      1.0  0.38140  0.05965  0.74646  1.0000
  Fe  Fe39      1.0  0.00629  0.34658  0.77670  1.0000
  H   H383      1.0  0.27919  0.25950  0.96573  1.0000
  N   N22       1.0  0.31743  0.28412  0.97991  1.0000
  H   H384      1.0  0.32521  0.26177  0.90950  1.0000
  C   C298      1.0  0.04825  0.43748  0.80406  1.0000
  C   C299      1.0  0.25119  0.35226  0.75169  1.0000
  C   C300      1.0  0.09754  0.17630  0.98093  1.0000
  C   C301      1.0  0.35318  0.04727  0.84586  1.0000
  H   H385      1.0  0.33350  0.38100  0.75796  1.0000
  H   H386      1.0  0.24885  0.29058  0.75363  1.0000
  C   C302      1.0  0.04000  0.47339  0.75713  1.0000
  H   H387      1.0  0.40180  0.12361  0.77062  1.0000
  H   H388      1.0  0.36457  0.03818  0.84071  1.0000
  S   S82       1.0  0.99864  0.30482  0.84944  1.0000
  C   C303      1.0  0.37472  0.44878  0.76110  1.0000
  C   C304      1.0  0.06996  0.44830  0.77082  1.0000
  Fe  Fe40      1.0  0.00248  0.19430  0.98449  1.0000
  C   C305      1.0  0.34636  0.41956  0.78752  1.0000
  H   H389      1.0  0.33338  0.07971  0.84395  1.0000
  C   C306      1.0  0.36281  0.09704  0.78011  1.0000
  H   H390      1.0  0.02661  0.40005  0.77353  1.0000
  C   C307      1.0  0.22280  0.10118  0.98102  1.0000
  H   H391      1.0  0.99738  0.27883  0.97888  1.0000
  C   C308      1.0  0.31723  0.26043  0.98877  1.0000
  H   H392      1.0  0.33711  0.26417  0.99027  1.0000
  H   H393      1.0  0.00219  0.11855  0.97971  1.0000
  H   H394      1.0  0.39084  0.44896  0.77009  1.0000
  C   C309      1.0  0.35021  0.23347  0.75289  1.0000
  H   H395      1.0  0.07408  0.43192  0.77354  1.0000
  H   H396      1.0  0.36776  0.39967  0.76269  1.0000
  S   S83       1.0  0.37391  0.00236  0.81009  1.0000
  H   H397      1.0  0.00702  0.33613  0.97878  1.0000
  C   C310      1.0  0.27306  0.34982  0.75213  1.0000
  H   H398      1.0  0.32868  0.32410  0.99183  1.0000
  C   C311      1.0  0.11660  0.20146  0.98978  1.0000
  S   S84       1.0  0.14990  0.21084  0.99383  1.0000
  C   C312      1.0  0.03537  0.49429  0.75371  1.0000
  C   C313      1.0  0.13976  0.66288  0.22082  1.0000
  Fe  Fe41      1.0  0.33618  0.93550  0.20097  1.0000
  S   S85       1.0  0.34875  0.92268  0.17165  1.0000
  S   S86       1.0  0.31312  0.91077  0.22958  1.0000
  Fe  Fe42      1.0  0.38961  0.95594  0.18094  1.0000
  S   S87       1.0  0.42306  0.94812  0.18779  1.0000
  Fe  Fe43      1.0  0.34443  0.95446  0.15435  1.0000
  S   S88       1.0  0.32754  0.94737  0.11948  1.0000
  S   S89       1.0  0.37695  0.96745  0.21099  1.0000
  S   S90       1.0  0.32927  0.96501  0.18332  1.0000
  H   H399      1.0  0.05522  0.61400  0.15078  1.0000
  S   S91       1.0  0.03808  0.64911  0.19932  1.0000
  Fe  Fe44      1.0  0.24353  0.96442  0.01830  1.0000
  S   S92       1.0  0.20564  0.96333  0.01709  1.0000
  H   H400      1.0  0.37957  0.89409  0.18059  1.0000
  C   C314      1.0  0.27733  0.85661  0.21847  1.0000
  H   H401      1.0  0.10284  0.60715  0.15404  1.0000
  H   H402      1.0  0.00400  0.66557  0.21653  1.0000
  C   C315      1.0  0.46553  0.94246  0.19363  1.0000
  H   H403      1.0  0.08842  0.63903  0.15081  1.0000
  C   C316      1.0  0.05372  0.63802  0.23794  1.0000
  C   C317      1.0  0.28372  0.97558  0.09222  1.0000
  C   C318      1.0  0.45232  0.95015  0.17945  1.0000
  C   C319      1.0  0.46267  0.95890  0.15926  1.0000
  H   H404      1.0  0.32427  0.85711  0.23718  1.0000
  H   H405      1.0  0.04607  0.60221  0.19645  1.0000
  H   H406      1.0  0.37162  0.86002  0.17904  1.0000
  C   C320      1.0  0.09871  0.62811  0.19178  1.0000
  C   C321      1.0  0.30813  0.95404  0.10138  1.0000
  C   C322      1.0  0.29713  0.96918  0.10745  1.0000
  C   C323      1.0  0.25849  0.82985  0.22356  1.0000
  C   C324      1.0  0.28024  0.96636  0.07068  1.0000
  C   C325      1.0  0.29052  0.95050  0.06474  1.0000
  C   C326      1.0  0.30443  0.94459  0.07989  1.0000
  C   C327      1.0  0.12250  0.64973  0.18457  1.0000
  H   H407      1.0  0.29603  0.77290  0.23498  1.0000
  H   H408      1.0  0.28822  0.94318  0.04834  1.0000
  H   H409      1.0  0.31259  0.93273  0.07482  1.0000
  H   H410      1.0  0.03642  0.61821  0.23668  1.0000
  C   C328      1.0  0.05920  0.65654  0.22185  1.0000
  H   H411      1.0  0.02020  0.52096  0.21152  1.0000
  S   S93       1.0  0.99394  0.52226  0.16696  1.0000
  C   C329      1.0  0.11011  0.83303  0.00042  1.0000
  S   S94       1.0  0.99985  0.59044  0.15598  1.0000
  H   H412      1.0  0.34319  0.89110  0.21257  1.0000
  C   C330      1.0  0.46872  0.54710  0.22608  1.0000
  H   H413      1.0  0.12277  0.82851  0.00929  1.0000
  H   H414      1.0  0.34630  0.86733  0.18025  1.0000
  C   C331      1.0  0.14253  0.66701  0.19894  1.0000
  C   C332      1.0  0.29017  0.87631  0.23476  1.0000
  H   H415      1.0  0.99790  0.62269  0.23157  1.0000
  H   H416      1.0  0.39869  0.86689  0.21076  1.0000
  H   H417      1.0  0.25716  0.90851  0.22390  1.0000
  H   H418      1.0  0.24835  0.81493  0.21080  1.0000
  H   H419      1.0  0.08633  0.69667  0.21152  1.0000
  H   H420      1.0  0.28146  0.86207  0.20195  1.0000
  C   C333      1.0  0.33021  0.79714  0.21700  1.0000
  H   H421      1.0  0.36320  0.89653  0.23607  1.0000
  H   H422      1.0  0.37702  0.91502  0.21263  1.0000
  C   C334      1.0  0.08188  0.68217  0.22385  1.0000
  C   C335      1.0  0.07229  0.62679  0.16155  1.0000
  H   H423      1.0  0.27584  0.98770  0.09722  1.0000
  C   C336      1.0  0.24565  0.89641  0.23696  1.0000
  H   H424      1.0  0.29900  0.97606  0.12387  1.0000
  S   S95       1.0  0.26443  0.97679  0.05190  1.0000
  C   C337      1.0  0.34846  0.82317  0.21072  1.0000
  H   H425      1.0  0.22887  0.85910  0.21872  1.0000
  S   S96       1.0  0.15382  0.88436  0.99740  1.0000
  C   C338      1.0  0.22971  0.86856  0.23407  1.0000
  H   H426      1.0  0.03735  0.57858  0.17447  1.0000
  H   H427      1.0  0.06983  0.58008  0.15186  1.0000
  C   C339      1.0  0.08385  0.81248  0.99682  1.0000
  S   S97       1.0  0.38618  0.98674  0.16186  1.0000
  H   H428      1.0  0.45293  0.96485  0.14804  1.0000
  C   C340      1.0  0.36594  0.87357  0.18655  1.0000
  C   C341      1.0  0.45655  0.50043  0.20238  1.0000
  C   C342      1.0  0.02471  0.50522  0.21265  1.0000
  C   C343      1.0  0.36222  0.89478  0.21830  1.0000
  H   H429      1.0  0.07956  0.60837  0.22133  1.0000
  N   N23       1.0  0.36658  0.87327  0.21027  1.0000
  H   H430      1.0  0.39376  0.87964  0.23551  1.0000
  H   H431      1.0  0.06842  0.64092  0.17064  1.0000
  H   H432      1.0  0.07670  0.79256  0.00293  1.0000
  C   C344      1.0  0.99239  0.66037  0.08028  1.0000
  C   C345      1.0  0.09677  0.62414  0.21420  1.0000
  H   H433      1.0  0.45798  0.93573  0.20932  1.0000
  H   H434      1.0  0.33138  0.77999  0.21151  1.0000
  C   C346      1.0  0.05299  0.59122  0.18652  1.0000
  C   C347      1.0  0.09904  0.68924  0.24161  1.0000
  Fe  Fe45      1.0  0.00154  0.60995  0.18791  1.0000
  C   C348      1.0  0.08546  0.59418  0.16346  1.0000
  C   C349      1.0  0.04610  0.50780  0.20253  1.0000
  H   H435      1.0  0.12574  0.65362  0.16776  1.0000
  H   H436      1.0  0.05472  0.57661  0.19655  1.0000
  H   H437      1.0  0.09003  0.58184  0.17394  1.0000
  N   N24       1.0  0.07762  0.61034  0.17626  1.0000
  H   H438      1.0  0.40765  0.90131  0.21326  1.0000
  H   H439      1.0  0.05832  0.52575  0.19368  1.0000
  C   C350      1.0  0.39274  0.88047  0.21779  1.0000
  C   C351      1.0  0.34724  0.84599  0.21746  1.0000
  H   H440      1.0  0.01124  0.67863  0.08138  1.0000
  H   H441      1.0  0.36349  0.82532  0.20042  1.0000
  C   C352      1.0  0.47992  0.52446  0.19936  1.0000
  H   H442      1.0  0.02689  0.90768  0.99915  1.0000
  H   H443      1.0  0.47856  0.74251  0.24151  1.0000
  C   C353      1.0  0.44541  0.52287  0.22904  1.0000
  C   C354      1.0  0.31032  0.79308  0.23022  1.0000
  C   C355      1.0  0.32684  0.84114  0.23113  1.0000
  H   H444      1.0  0.98887  0.68165  0.22927  1.0000
  C   C356      1.0  0.48552  0.95970  0.15339  1.0000
  C   C357      1.0  0.11713  0.64126  0.22837  1.0000
  C   C358      1.0  0.30872  0.81502  0.23731  1.0000
  H   H445      1.0  0.16025  0.68387  0.19313  1.0000
  H   H446      1.0  0.99659  0.64668  0.11130  1.0000
  H   H447      1.0  0.47224  0.56425  0.23591  1.0000
  C   C359      1.0  0.43931  0.49963  0.21717  1.0000
  H   H448      1.0  0.11657  0.70890  0.24277  1.0000
  H   H449      1.0  0.15507  0.67657  0.23203  1.0000
  S   S98       1.0  0.22743  0.92705  0.99692  1.0000
  S   S99       1.0  0.98778  0.67984  0.04127  1.0000
  C   C360      1.0  0.01426  0.88627  0.99550  1.0000
  H   H450      1.0  0.98903  0.79001  0.99828  1.0000
  C   C361      1.0  0.48665  0.54865  0.21094  1.0000
  H   H451      1.0  0.43196  0.52206  0.24064  1.0000
  Fe  Fe46      1.0  0.20232  0.72981  0.31736  1.0000
  S   S100      1.0  0.21893  0.77465  0.31472  1.0000
  S   S101      1.0  0.21916  0.71382  0.34195  1.0000
  Fe  Fe47      1.0  0.15359  0.71575  0.29027  1.0000
  S   S102      1.0  0.16675  0.75952  0.28616  1.0000
  S   S103      1.0  0.11495  0.67792  0.28004  1.0000
  Fe  Fe48      1.0  0.20602  0.76563  0.28005  1.0000
  H   H452      1.0  0.42218  0.65583  0.40075  1.0000
  Fe  Fe49      1.0  0.17874  0.76560  0.32118  1.0000
  S   S104      1.0  0.17501  0.79529  0.34339  1.0000
  S   S105      1.0  0.19203  0.72105  0.28218  1.0000
  S   S106      1.0  0.16294  0.72159  0.32578  1.0000
  H   H453      1.0  0.16529  0.81515  0.29765  1.0000
  Fe  Fe50      1.0  0.28851  0.58632  0.38011  1.0000
  S   S107      1.0  0.30833  0.60981  0.35129  1.0000
  S   S108      1.0  0.25706  0.54165  0.37977  1.0000
  Fe  Fe51      1.0  0.31720  0.63608  0.41028  1.0000
  S   S109      1.0  0.33871  0.66350  0.38301  1.0000
  S   S110      1.0  0.32731  0.65601  0.44395  1.0000
  Fe  Fe52      1.0  0.30067  0.64138  0.36456  1.0000
  S   S111      1.0  0.28697  0.65864  0.33841  1.0000
  Fe  Fe53      1.0  0.34474  0.63030  0.37169  1.0000
  S   S112      1.0  0.38153  0.63332  0.35967  1.0000
  S   S113      1.0  0.27868  0.61663  0.39250  1.0000
  S   S114      1.0  0.32538  0.60404  0.39983  1.0000
  Fe  Fe54      1.0  0.11576  0.79984  0.45904  1.0000
  S   S115      1.0  0.09323  0.82055  0.45582  1.0000
  S   S116      1.0  0.11784  0.77293  0.43273  1.0000
  C   C362      1.0  0.41173  0.71992  0.29492  1.0000
  Fe  Fe55      1.0  0.07479  0.80095  0.48676  1.0000
  Fe  Fe56      1.0  0.12505  0.85426  0.47680  1.0000
  H   H454      1.0  0.26265  0.83614  0.27769  1.0000
  C   C363      1.0  0.99221  0.72775  0.44246  1.0000
  S   S117      1.0  0.14833  0.83414  0.47805  1.0000
  H   H455      1.0  0.19600  0.87489  0.30616  1.0000
  C   C364      1.0  0.07075  0.64519  0.25580  1.0000
  C   C365      1.0  0.21712  0.54781  0.31439  1.0000
  H   H456      1.0  0.02613  0.66610  0.24815  1.0000
  H   H457      1.0  0.42355  0.69290  0.30560  1.0000
  C   C366      1.0  0.15051  0.98361  0.44450  1.0000
  C   C367      1.0  0.31975  0.64106  0.46957  1.0000
  H   H458      1.0  0.41601  0.67669  0.45654  1.0000
  C   C368      1.0  0.30715  0.61311  0.47199  1.0000
  H   H459      1.0  0.01344  0.80666  0.47659  1.0000
  H   H460      1.0  0.30141  0.59983  0.45797  1.0000
  C   C369      1.0  0.46121  0.70559  0.34276  1.0000
  C   C370      1.0  0.44223  0.71006  0.35096  1.0000
  C   C371      1.0  0.41751  0.68825  0.35569  1.0000
  C   C372      1.0  0.41161  0.66167  0.35254  1.0000
  C   C373      1.0  0.43051  0.65723  0.34412  1.0000
  C   C374      1.0  0.45511  0.67903  0.33914  1.0000
  H   H461      1.0  0.44672  0.73054  0.35376  1.0000
  H   H462      1.0  0.40317  0.69201  0.36201  1.0000
  H   H463      1.0  0.42616  0.63676  0.34160  1.0000
  H   H464      1.0  0.46946  0.67523  0.33284  1.0000
  C   C375      1.0  0.23756  0.69797  0.34035  1.0000
  C   C376      1.0  0.24634  0.69375  0.32100  1.0000
  C   C377      1.0  0.26134  0.68161  0.32075  1.0000
  C   C378      1.0  0.26771  0.67351  0.33977  1.0000
  C   C379      1.0  0.25867  0.67743  0.35908  1.0000
  C   C380      1.0  0.24374  0.68964  0.35934  1.0000
  H   H465      1.0  0.24178  0.70005  0.30628  1.0000
  H   H466      1.0  0.26825  0.67871  0.30571  1.0000
  H   H467      1.0  0.26336  0.67130  0.37383  1.0000
  H   H468      1.0  0.23703  0.69273  0.37441  1.0000
  C   C381      1.0  0.15883  0.78868  0.36815  1.0000
  C   C382      1.0  0.16274  0.81051  0.38135  1.0000
  C   C383      1.0  0.15036  0.80619  0.40109  1.0000
  C   C384      1.0  0.13372  0.77989  0.40783  1.0000
  C   C385      1.0  0.12973  0.75808  0.39455  1.0000
  C   C386      1.0  0.14222  0.76239  0.37490  1.0000
  H   H469      1.0  0.17549  0.83093  0.37633  1.0000
  H   H470      1.0  0.15366  0.82317  0.41108  1.0000
  H   H471      1.0  0.11683  0.73767  0.39953  1.0000
  H   H472      1.0  0.13871  0.74536  0.36487  1.0000
  H   H473      1.0  0.23679  0.84520  0.29977  1.0000
  C   C387      1.0  0.30153  0.50199  0.37395  1.0000
  H   H474      1.0  0.20816  0.98878  0.38517  1.0000
  C   C388      1.0  0.24894  0.51911  0.35748  1.0000
  C   C389      1.0  0.26475  0.52594  0.33981  1.0000
  C   C390      1.0  0.42914  0.71133  0.29724  1.0000
  C   C391      1.0  0.17358  0.96282  0.41860  1.0000
  H   H475      1.0  0.21529  0.58850  0.29661  1.0000
  H   H476      1.0  0.28210  0.54569  0.33932  1.0000
  H   H477      1.0  0.29313  0.81172  0.24755  1.0000
  N   N25       1.0  0.40507  0.68431  0.42586  1.0000
  C   C392      1.0  0.38603  0.65538  0.42079  1.0000
  C   C393      1.0  0.40747  0.68787  0.44949  1.0000
  C   C394      1.0  0.39432  0.70023  0.41728  1.0000
  C   C395      1.0  0.43070  0.69387  0.41677  1.0000
  H   H478      1.0  0.22299  0.57375  0.35282  1.0000
  H   H479      1.0  0.39245  0.64202  0.42721  1.0000
  H   H480      1.0  0.36704  0.64877  0.42794  1.0000
  H   H481      1.0  0.38237  0.65144  0.40323  1.0000
  C   C396      1.0  0.14513  0.93522  0.49262  1.0000
  H   H482      1.0  0.22408  0.98102  0.40614  1.0000
  H   H483      1.0  0.41969  0.70939  0.45479  1.0000
  H   H484      1.0  0.39344  0.69917  0.39949  1.0000
  H   H485      1.0  0.37441  0.69266  0.42284  1.0000
  H   H486      1.0  0.40587  0.72187  0.42238  1.0000
  H   H487      1.0  0.17359  0.81285  0.27104  1.0000
  H   H488      1.0  0.23682  0.75938  0.40400  1.0000
  H   H489      1.0  0.24218  0.54311  0.29192  1.0000
  C   C397      1.0  0.30191  0.60226  0.49262  1.0000
  C   C398      1.0  0.25852  0.50684  0.32301  1.0000
  C   C399      1.0  0.20767  0.50583  0.29570  1.0000
  C   C400      1.0  0.17679  0.50479  0.31998  1.0000
  H   H490      1.0  0.01395  0.68387  0.26231  1.0000
  C   C401      1.0  0.41899  0.74376  0.28449  1.0000
  C   C402      1.0  0.46206  0.75103  0.27857  1.0000
  C   C403      1.0  0.99682  0.78719  0.48003  1.0000
  C   C404      1.0  0.32282  0.50324  0.38385  1.0000
  H   H491      1.0  0.13979  0.92391  0.42428  1.0000
  H   H492      1.0  0.06640  0.63071  0.26813  1.0000
  H   H493      1.0  0.26047  0.93020  0.25905  1.0000
  H   H494      1.0  0.21491  0.81817  0.28169  1.0000
  C   C405      1.0  0.44375  0.75919  0.27637  1.0000
  H   H495      1.0  0.20522  0.83101  0.24833  1.0000
  C   C406      1.0  0.45395  0.72662  0.28930  1.0000
  C   C407      1.0  0.45084  0.72128  0.41976  1.0000
  H   H496      1.0  0.27153  0.61163  0.31295  1.0000
  C   C408      1.0  0.14932  0.94560  0.42702  1.0000
  C   C409      1.0  0.23362  0.89290  0.27401  1.0000
  H   H497      1.0  0.18635  0.54197  0.33537  1.0000
  H   H498      1.0  0.34019  0.52269  0.38722  1.0000
  N   N26       1.0  0.19740  0.74281  0.39284  1.0000
  C   C410      1.0  0.21923  0.73970  0.39949  1.0000
  C   C411      1.0  0.17588  0.71595  0.38498  1.0000
  C   C412      1.0  0.20536  0.76115  0.37455  1.0000
  C   C413      1.0  0.19044  0.75429  0.41101  1.0000
  C   C414      1.0  0.16647  0.73962  0.42136  1.0000
  C   C415      1.0  0.20809  0.78088  0.41911  1.0000
  C   C416      1.0  0.16043  0.75129  0.43825  1.0000
  C   C417      1.0  0.20169  0.79244  0.43585  1.0000
  C   C418      1.0  0.17781  0.77772  0.44529  1.0000
  H   H499      1.0  0.22470  0.73057  0.38634  1.0000
  H   H500      1.0  0.17002  0.70042  0.39732  1.0000
  H   H501      1.0  0.18141  0.70821  0.37091  1.0000
  H   H502      1.0  0.15883  0.71700  0.37969  1.0000
  H   H503      1.0  0.22317  0.78097  0.37802  1.0000
  H   H504      1.0  0.20950  0.75245  0.36030  1.0000
  H   H505      1.0  0.18993  0.76502  0.36976  1.0000
  H   H506      1.0  0.15169  0.71936  0.41639  1.0000
  H   H507      1.0  0.22687  0.79307  0.41237  1.0000
  H   H508      1.0  0.14161  0.74023  0.44535  1.0000
  H   H509      1.0  0.21510  0.81305  0.44135  1.0000
  H   H510      1.0  0.17244  0.78691  0.45780  1.0000
  C   C419      1.0  0.19168  0.98002  0.47982  1.0000
  H   H511      1.0  0.46405  0.67371  0.38544  1.0000
  H   H512      1.0  0.01004  0.65285  0.27248  1.0000
  C   C420      1.0  0.13781  0.95597  0.43991  1.0000
  H   H513      1.0  0.19649  0.95065  0.46214  1.0000
  C   C421      1.0  0.00042  0.76691  0.48786  1.0000
  H   H514      1.0  0.20673  0.81822  0.30895  1.0000
  C   C422      1.0  0.20436  0.86215  0.30938  1.0000
  H   H515      1.0  0.39262  0.70812  0.30139  1.0000
  S   S118      1.0  0.09613  0.77869  0.48910  1.0000
  H   H516      1.0  0.21420  0.72642  0.41345  1.0000
  H   H517      1.0  0.44811  0.77748  0.26859  1.0000
  C   C423      1.0  0.09358  0.67077  0.25772  1.0000
  C   C424      1.0  0.18422  0.95360  0.47275  1.0000
  C   C425      1.0  0.24030  0.58103  0.34298  1.0000
  C   C426      1.0  0.46044  0.68687  0.39535  1.0000
  H   H518      1.0  0.29457  0.88358  0.26889  1.0000
  H   H519      1.0  0.38825  0.68019  0.45674  1.0000
  N   N27       1.0  0.20371  0.84692  0.28978  1.0000
  C   C427      1.0  0.18707  0.99118  0.42295  1.0000
  C   C428      1.0  0.21605  0.83145  0.29525  1.0000
  C   C429      1.0  0.19286  0.53257  0.32414  1.0000
  H   H520      1.0  0.29215  0.58062  0.49421  1.0000
  H   H521      1.0  0.25336  0.60275  0.34754  1.0000
  C   C430      1.0  0.28454  0.86862  0.25613  1.0000
  C   C431      1.0  0.25905  0.58976  0.30850  1.0000
  H   H522      1.0  0.23638  0.90361  0.28903  1.0000
  H   H523      1.0  0.99687  0.76607  0.43561  1.0000
  C   C432      1.0  0.26610  0.84179  0.26121  1.0000
  H   H524      1.0  0.11946  0.94242  0.44702  1.0000
  H   H525      1.0  0.23383  0.61390  0.31711  1.0000
  S   S119      1.0  0.22792  0.78842  0.25034  1.0000
  H   H526      1.0  0.20346  0.58522  0.32322  1.0000
  H   H527      1.0  0.18154  0.95324  0.40924  1.0000
  H   H528      1.0  0.14204  0.99152  0.45530  1.0000
  H   H529      1.0  0.22430  0.87507  0.31619  1.0000
  C   C433      1.0  0.43631  0.67683  0.40437  1.0000
  S   S120      1.0  0.15103  0.89862  0.46728  1.0000
  H   H530      1.0  0.27042  0.58034  0.31284  1.0000
  H   H531      1.0  0.40534  0.75039  0.28284  1.0000
  C   C434      1.0  0.22104  0.59168  0.31388  1.0000
  C   C435      1.0  0.47480  0.73115  0.41043  1.0000
  C   C436      1.0  0.22401  0.53356  0.29989  1.0000
  H   H532      1.0  0.25604  0.58850  0.29085  1.0000
  H   H533      1.0  0.44802  0.73540  0.42899  1.0000
  C   C437      1.0  0.17615  0.82761  0.28386  1.0000
  H   H534      1.0  0.24995  0.57011  0.34800  1.0000
  C   C438      1.0  0.24757  0.90855  0.25685  1.0000
  N   N28       1.0  0.23417  0.57702  0.31969  1.0000
  C   C439      1.0  0.47952  0.71400  0.39813  1.0000
  H   H535      1.0  0.19302  0.84830  0.32238  1.0000
  H   H536      1.0  0.16655  0.83842  0.27829  1.0000
  C   C440      1.0  0.00968  0.66326  0.25783  1.0000
  H   H537      1.0  0.01243  0.73642  0.44689  1.0000
  C   C441      1.0  0.21733  0.86434  0.27165  1.0000
  C   C442      1.0  0.16075  0.93104  0.47884  1.0000
  H   H538      1.0  0.30233  0.52050  0.36975  1.0000
  H   H539      1.0  0.27109  0.51214  0.30957  1.0000
  S   S121      1.0  0.03162  0.77194  0.49330  1.0000
  H   H540      1.0  0.46690  0.71933  0.29203  1.0000
  C   C443      1.0  0.32703  0.65791  0.48808  1.0000
  H   H541      1.0  0.33674  0.67955  0.48648  1.0000
  C   C444      1.0  0.21599  0.85266  0.25116  1.0000
  C   C445      1.0  0.17552  0.98433  0.49274  1.0000
  C   C446      1.0  0.25242  0.82233  0.24494  1.0000
  H   H542      1.0  0.11509  0.63830  0.24547  1.0000
  H   H543      1.0  0.21363  0.49518  0.28507  1.0000
  H   H544      1.0  0.48095  0.78686  0.24517  1.0000
  H   H545      1.0  0.27260  0.95786  0.71582  1.0000
  Fe  Fe57      1.0  0.16409  0.75192  0.64869  1.0000
  S   S122      1.0  0.16528  0.71465  0.65634  1.0000
  S   S123      1.0  0.14126  0.74782  0.61768  1.0000
  Fe  Fe58      1.0  0.19434  0.78118  0.69039  1.0000
  S   S124      1.0  0.19747  0.74606  0.70042  1.0000
  S   S125      1.0  0.20975  0.82045  0.71033  1.0000
  Fe  Fe59      1.0  0.20663  0.74315  0.66611  1.0000
  S   S126      1.0  0.24140  0.73966  0.65806  1.0000
  Fe  Fe60      1.0  0.15551  0.71982  0.69008  1.0000
  S   S127      1.0  0.12894  0.68068  0.70769  1.0000
  S   S128      1.0  0.20636  0.78034  0.65657  1.0000
  S   S129      1.0  0.15155  0.75518  0.68191  1.0000
  Fe  Fe61      1.0  0.30127  0.59945  0.61652  1.0000
  S   S130      1.0  0.31061  0.63881  0.63253  1.0000
  S   S131      1.0  0.29610  0.56400  0.63595  1.0000
  Fe  Fe62      1.0  0.30750  0.62186  0.57101  1.0000
  S   S132      1.0  0.31712  0.66275  0.58380  1.0000
  S   S133      1.0  0.30196  0.60403  0.53673  1.0000
  Fe  Fe63      1.0  0.34225  0.65831  0.60867  1.0000
  S   S134      1.0  0.38281  0.69428  0.61686  1.0000
  Fe  Fe64      1.0  0.28496  0.64046  0.60693  1.0000
  S   S135      1.0  0.25029  0.64550  0.61218  1.0000
  S   S136      1.0  0.33469  0.61899  0.59430  1.0000
  S   S137      1.0  0.27363  0.59959  0.59252  1.0000
  Fe  Fe65      1.0  0.12698  0.81476  0.50796  1.0000
  H   H546      1.0  0.99164  0.72902  0.55911  1.0000
  S   S138      1.0  0.15325  0.81978  0.53690  1.0000
  H   H547      1.0  0.17406  0.64208  0.71940  1.0000
  C   C447      1.0  0.23170  0.68422  0.69751  1.0000
  H   H548      1.0  0.41568  0.63995  0.59140  1.0000
  C   C448      1.0  0.21070  0.97628  0.53197  1.0000
  C   C449      1.0  0.10090  0.67056  0.72310  1.0000
  H   H549      1.0  0.09299  0.63000  0.72625  1.0000
  C   C450      1.0  0.19588  0.89820  0.54996  1.0000
  H   H550      1.0  0.17185  0.52923  0.65719  1.0000
  H   H551      1.0  0.18502  0.90191  0.50850  1.0000
  C   C451      1.0  0.23717  0.83742  0.72813  1.0000
  H   H552      1.0  0.46551  0.73852  0.58051  1.0000
  H   H553      1.0  0.25276  0.81245  0.72070  1.0000
  C   C452      1.0  0.24318  0.71276  0.64584  1.0000
  C   C453      1.0  0.22134  0.68923  0.63764  1.0000
  C   C454      1.0  0.22387  0.66873  0.62769  1.0000
  C   C455      1.0  0.24819  0.67139  0.62591  1.0000
  C   C456      1.0  0.26994  0.69470  0.63451  1.0000
  C   C457      1.0  0.26742  0.71526  0.64436  1.0000
  H   H554      1.0  0.20259  0.68702  0.63858  1.0000
  H   H555      1.0  0.20695  0.65084  0.62098  1.0000
  H   H556      1.0  0.28876  0.69707  0.63327  1.0000
  H   H557      1.0  0.28446  0.73334  0.65070  1.0000
  C   C458      1.0  0.14504  0.76850  0.59557  1.0000
  C   C459      1.0  0.12518  0.75867  0.57976  1.0000
  C   C460      1.0  0.12726  0.77399  0.56178  1.0000
  C   C461      1.0  0.14938  0.79939  0.55926  1.0000
  C   C462      1.0  0.16936  0.80915  0.57499  1.0000
  C   C463      1.0  0.16723  0.79387  0.59303  1.0000
  H   H558      1.0  0.10794  0.73906  0.58150  1.0000
  H   H559      1.0  0.11173  0.76611  0.54988  1.0000
  H   H560      1.0  0.18661  0.82872  0.57323  1.0000
  H   H561      1.0  0.18270  0.80175  0.60497  1.0000
  C   C464      1.0  0.45066  0.69494  0.65228  1.0000
  C   C465      1.0  0.42699  0.67053  0.64862  1.0000
  C   C466      1.0  0.40600  0.66996  0.63803  1.0000
  C   C467      1.0  0.40838  0.69388  0.63094  1.0000
  C   C468      1.0  0.43202  0.71831  0.63465  1.0000
  C   C469      1.0  0.45299  0.71889  0.64529  1.0000
  H   H562      1.0  0.42484  0.65190  0.65405  1.0000
  H   H563      1.0  0.38798  0.65101  0.63535  1.0000
  H   H564      1.0  0.43406  0.73693  0.62932  1.0000
  C   C470      1.0  0.17889  0.51763  0.66491  1.0000
  C   C471      1.0  0.32167  0.64705  0.50872  1.0000
  C   C472      1.0  0.30905  0.61910  0.51114  1.0000
  C   C473      1.0  0.21455  0.51410  0.67787  1.0000
  H   H565      1.0  0.32731  0.66031  0.52273  1.0000
  C   C474      1.0  0.06472  0.63501  0.74281  1.0000
  H   H566      1.0  0.18788  0.66297  0.67528  1.0000
  C   C475      1.0  0.45582  0.71701  0.58251  1.0000
  C   C476      1.0  0.24512  0.52344  0.62726  1.0000
  C   C477      1.0  0.26847  0.53114  0.63788  1.0000
  C   C478      1.0  0.27022  0.51212  0.65025  1.0000
  H   H567      1.0  0.13988  0.96474  0.50960  1.0000
  H   H568      1.0  0.14998  0.92519  0.56206  1.0000
  H   H569      1.0  0.24334  0.53803  0.61812  1.0000
  H   H570      1.0  0.28819  0.51794  0.65859  1.0000
  H   H571      1.0  0.16791  0.67526  0.73033  1.0000
  N   N29       1.0  0.17428  0.90077  0.54159  1.0000
  H   H572      1.0  0.29592  0.97133  0.69474  1.0000
  H   H573      1.0  0.21883  0.54913  0.66283  1.0000
  C   C479      1.0  0.19012  0.67724  0.68846  1.0000
  C   C480      1.0  0.18162  0.92946  0.54252  1.0000
  C   C481      1.0  0.20359  0.94915  0.53167  1.0000
  H   H574      1.0  0.19385  0.63533  0.70303  1.0000
  C   C482      1.0  0.27088  0.49661  0.59225  1.0000
  H   H575      1.0  0.15436  0.88890  0.57138  1.0000
  H   H576      1.0  0.31475  0.90863  0.71718  1.0000
  H   H577      1.0  0.25866  0.92583  0.68989  1.0000
  S   S139      1.0  0.10486  0.83627  0.50760  1.0000
  H   H578      1.0  0.24145  0.70420  0.68987  1.0000
  H   H579      1.0  0.13376  0.88247  0.54787  1.0000
  H   H580      1.0  0.23735  0.88195  0.67160  1.0000
  C   C483      1.0  0.15119  0.88282  0.55412  1.0000
  H   H581      1.0  0.46241  0.66435  0.59707  1.0000
  C   C484      1.0  0.41472  0.67478  0.58207  1.0000
  C   C485      1.0  0.22396  0.49681  0.62862  1.0000
  H   H582      1.0  0.21511  0.94361  0.52244  1.0000
  C   C486      1.0  0.45382  0.67560  0.59173  1.0000
  C   C487      1.0  0.28655  0.87948  0.69530  1.0000
  H   H583      1.0  0.19864  0.69761  0.68163  1.0000
  C   C488      1.0  0.42706  0.66135  0.58839  1.0000
  H   H584      1.0  0.12697  0.91819  0.49739  1.0000
  H   H585      1.0  0.17037  0.67118  0.69350  1.0000
  H   H586      1.0  0.29092  0.55272  0.59175  1.0000
  C   C489      1.0  0.29887  0.90436  0.70646  1.0000
  N   N30       1.0  0.19315  0.72563  0.59097  1.0000
  C   C490      1.0  0.18611  0.73507  0.57164  1.0000
  C   C491      1.0  0.16923  0.70334  0.60006  1.0000
  C   C492      1.0  0.20478  0.74836  0.60701  1.0000
  C   C493      1.0  0.21052  0.71579  0.58525  1.0000
  C   C494      1.0  0.20176  0.69322  0.57092  1.0000
  C   C495      1.0  0.23609  0.72764  0.59389  1.0000
  C   C496      1.0  0.21723  0.68258  0.56620  1.0000
  C   C497      1.0  0.25147  0.71699  0.58884  1.0000
  C   C498      1.0  0.24196  0.69431  0.57529  1.0000
  H   H587      1.0  0.17540  0.71864  0.55937  1.0000
  H   H588      1.0  0.17337  0.74306  0.57557  1.0000
  H   H589      1.0  0.20359  0.75154  0.56410  1.0000
  H   H590      1.0  0.15747  0.68669  0.58822  1.0000
  H   H591      1.0  0.15635  0.71038  0.60579  1.0000
  H   H592      1.0  0.17380  0.69459  0.61386  1.0000
  H   H593      1.0  0.22231  0.76636  0.60098  1.0000
  H   H594      1.0  0.19120  0.75515  0.61109  1.0000
  H   H595      1.0  0.20993  0.74241  0.62222  1.0000
  H   H596      1.0  0.18267  0.68332  0.56357  1.0000
  H   H597      1.0  0.24449  0.74461  0.60515  1.0000
  H   H598      1.0  0.20994  0.66485  0.55572  1.0000
  H   H599      1.0  0.27060  0.72576  0.59614  1.0000
  H   H600      1.0  0.25364  0.68551  0.57219  1.0000
  C   C499      1.0  0.00275  0.76646  0.54434  1.0000
  H   H601      1.0  0.39027  0.91193  0.74199  1.0000
  H   H602      1.0  0.23520  0.52277  0.67988  1.0000
  H   H603      1.0  0.15221  0.89199  0.51230  1.0000
  C   C500      1.0  0.29682  0.94148  0.74045  1.0000
  H   H604      1.0  0.00824  0.80173  0.52905  1.0000
  C   C501      1.0  0.16846  0.89056  0.51910  1.0000
  C   C502      1.0  0.28991  0.92253  0.70478  1.0000
  H   H605      1.0  0.25051  0.72667  0.72131  1.0000
  H   H606      1.0  0.24493  0.68438  0.71007  1.0000
  H   H607      1.0  0.14632  0.86145  0.55316  1.0000
  H   H608      1.0  0.30247  0.56875  0.56697  1.0000
  H   H609      1.0  0.30994  0.54431  0.57502  1.0000
  H   H610      1.0  0.24564  0.53794  0.58022  1.0000
  H   H611      1.0  0.34007  0.95267  0.72192  1.0000
  H   H612      1.0  0.29328  0.86561  0.69730  1.0000
  C   C503      1.0  0.08683  0.64392  0.73037  1.0000
  C   C504      1.0  0.26455  0.87158  0.68268  1.0000
  C   C505      1.0  0.17448  0.96583  0.55377  1.0000
  S   S140      1.0  0.47653  0.69422  0.66561  1.0000
  H   H613      1.0  0.16301  0.86908  0.51769  1.0000
  N   N31       1.0  0.27040  0.52755  0.56403  1.0000
  C   C506      1.0  0.23267  0.72122  0.72890  1.0000
  H   H614      1.0  0.02260  0.77188  0.54240  1.0000
  C   C507      1.0  0.27671  0.52488  0.54168  1.0000
  C   C508      1.0  0.99459  0.78332  0.53685  1.0000
  C   C509      1.0  0.29446  0.54912  0.57498  1.0000
  H   H615      1.0  0.10311  0.70877  0.72320  1.0000
  H   H616      1.0  0.21313  0.90846  0.53991  1.0000
  H   H617      1.0  0.25930  0.51060  0.53184  1.0000
  H   H618      1.0  0.19043  0.87663  0.55032  1.0000
  H   H619      1.0  0.29040  0.51758  0.54114  1.0000
  H   H620      1.0  0.22933  0.66942  0.68469  1.0000
  H   H621      1.0  0.25423  0.85165  0.67498  1.0000
  C   C510      1.0  0.25551  0.82977  0.72991  1.0000
  H   H622      1.0  0.28586  0.54466  0.53359  1.0000
  H   H623      1.0  0.20172  0.90687  0.56654  1.0000
  C   C511      1.0  0.25177  0.53683  0.56377  1.0000
  H   H624      1.0  0.26029  0.55730  0.55701  1.0000
  H   H625      1.0  0.41904  0.71292  0.57522  1.0000
  C   C512      1.0  0.19617  0.98459  0.54299  1.0000
  H   H626      1.0  0.33576  0.96686  0.69804  1.0000
  C   C513      1.0  0.42904  0.70251  0.57916  1.0000
  C   C514      1.0  0.16719  0.93864  0.55363  1.0000
  C   C515      1.0  0.09259  0.68825  0.72861  1.0000
  N   N32       1.0  0.20658  0.67763  0.70638  1.0000
  C   C516      1.0  0.46907  0.70390  0.58889  1.0000
  C   C517      1.0  0.19440  0.65010  0.71499  1.0000
  C   C518      1.0  0.26746  0.91389  0.69165  1.0000
  C   C519      1.0  0.29323  0.96651  0.71198  1.0000
  H   H627      1.0  0.39386  0.66393  0.58031  1.0000
  H   H628      1.0  0.34044  0.98330  0.72381  1.0000
  H   H629      1.0  0.23416  0.52345  0.55385  1.0000
  H   H630      1.0  0.47082  0.73792  0.64832  1.0000
  N   N33       1.0  0.30242  0.94809  0.71771  1.0000
  C   C520      1.0  0.33082  0.96325  0.71517  1.0000
  C   C521      1.0  0.25501  0.88871  0.68088  1.0000
  C   C522      1.0  0.20894  0.69709  0.72329  1.0000
  C   C523      1.0  0.20534  0.52895  0.66816  1.0000
  C   C524      1.0  0.15243  0.96171  0.49940  1.0000
  H   H631      1.0  0.03376  0.49990  0.73759  1.0000
  C   C525      1.0  0.24108  0.85995  0.74034  1.0000
  H   H632      1.0  0.16294  0.97239  0.56188  1.0000
  H   H633      1.0  0.22687  0.86583  0.73932  1.0000
  H   H634      1.0  0.29200  0.83916  0.74416  1.0000
  H   H635      1.0  0.30400  0.98610  0.72125  1.0000
  H   H636      1.0  0.20518  0.64999  0.72950  1.0000
  H   H637      1.0  0.28875  0.51237  0.59969  1.0000
  C   C526      1.0  0.27778  0.84501  0.74322  1.0000
  H   H638      1.0  0.22707  0.99085  0.52305  1.0000
  C   C527      1.0  0.18677  0.69269  0.73413  1.0000
  C   C528      1.0  0.25896  0.50112  0.57438  1.0000
  C   C529      1.0  0.07062  0.67942  0.74121  1.0000
  H   H639      1.0  0.27566  0.92963  0.74291  1.0000
  C   C530      1.0  0.23384  0.73971  0.74426  1.0000
  Fe  Fe66      1.0  0.32910  0.92907  0.78741  1.0000
  S   S141      1.0  0.35358  0.93871  0.81780  1.0000
  S   S142      1.0  0.31102  0.88722  0.77075  1.0000
  S   S143      1.0  0.42684  0.98240  0.79293  1.0000
  Fe  Fe67      1.0  0.38528  0.97246  0.79934  1.0000
  H   H640      1.0  0.16716  0.88679  0.92518  1.0000
  Fe  Fe68      1.0  0.34012  0.96756  0.82652  1.0000
  C   C531      1.0  0.43968  0.88438  0.79134  1.0000
  S   S144      1.0  0.36105  0.96186  0.76889  1.0000
  S   S145      1.0  0.31366  0.95543  0.79737  1.0000
  H   H641      1.0  0.21247  0.74959  0.76582  1.0000
  S   S146      1.0  0.02915  0.64311  0.76462  1.0000
  H   H642      1.0  0.02767  0.52320  0.76829  1.0000
  H   H643      1.0  0.30494  0.92939  0.74640  1.0000
  H   H644      1.0  0.17065  0.70790  0.75673  1.0000
  Fe  Fe69      1.0  0.24061  0.95423  0.96836  1.0000
  S   S147      1.0  0.20315  0.95357  0.96519  1.0000
  S   S148      1.0  0.25339  0.93944  0.93881  1.0000
  C   C532      1.0  0.12016  0.85926  0.99267  1.0000
  C   C533      1.0  0.41559  0.88188  0.78898  1.0000
  H   H645      1.0  0.37840  0.88815  0.80722  1.0000
  C   C534      1.0  0.46812  0.95120  0.81980  1.0000
  C   C535      1.0  0.03847  0.68480  0.85065  1.0000
  H   H646      1.0  0.43111  0.94735  0.82471  1.0000
  H   H647      1.0  0.21656  0.88907  0.96084  1.0000
  H   H648      1.0  0.01655  0.66674  0.79896  1.0000
  C   C536      1.0  0.10888  0.78976  0.94895  1.0000
  H   H649      1.0  0.05247  0.64900  0.83549  1.0000
  H   H650      1.0  0.44233  0.87155  0.80212  1.0000
  C   C537      1.0  0.45130  0.97476  0.79958  1.0000
  Fe  Fe70      1.0  0.99715  0.60317  0.77826  1.0000
  C   C538      1.0  0.06368  0.69575  0.81856  1.0000
  H   H651      1.0  0.13181  0.77151  0.95075  1.0000
  H   H652      1.0  0.19803  0.90759  0.93803  1.0000
  C   C539      1.0  0.43375  0.91897  0.76465  1.0000
  C   C540      1.0  0.30778  0.96815  0.88049  1.0000
  C   C541      1.0  0.28936  0.94080  0.88315  1.0000
  C   C542      1.0  0.27305  0.93257  0.90097  1.0000
  C   C543      1.0  0.27454  0.95143  0.91642  1.0000
  H   H653      1.0  0.03711  0.64319  0.80981  1.0000
  S   S149      1.0  0.00324  0.58122  0.80495  1.0000
  H   H654      1.0  0.28786  0.92590  0.87162  1.0000
  H   H655      1.0  0.25924  0.91134  0.90282  1.0000
  H   H656      1.0  0.99862  0.66045  0.82294  1.0000
  C   C544      1.0  0.41185  0.89912  0.77555  1.0000
  C   C545      1.0  0.03545  0.66875  0.86858  1.0000
  S   S150      1.0  0.00649  0.71051  0.98215  1.0000
  C   C546      1.0  0.01743  0.67436  0.81562  1.0000
  S   S151      1.0  0.25942  0.99176  0.98999  1.0000
  H   H657      1.0  0.03254  0.70738  0.90874  1.0000
  C   C547      1.0  0.03209  0.50759  0.77097  1.0000
  Fe  Fe71      1.0  0.34773  0.98922  0.78085  1.0000
  H   H658      1.0  0.03337  0.64913  0.86707  1.0000
  Fe  Fe72      1.0  0.00306  0.74735  0.98505  1.0000
  H   H659      1.0  0.08046  0.69811  0.82797  1.0000
  C   C548      1.0  0.04021  0.70985  0.85488  1.0000
  H   H660      1.0  0.13096  0.85592  0.94349  1.0000
  H   H661      1.0  0.36563  0.91218  0.75716  1.0000
  H   H662      1.0  0.06614  0.71603  0.81736  1.0000
  C   C549      1.0  0.06702  0.81776  0.98536  1.0000
  N   N34       1.0  0.38621  0.89631  0.77365  1.0000
  H   H663      1.0  0.06479  0.68919  0.80190  1.0000
  C   C550      1.0  0.30926  0.98702  0.89593  1.0000
  H   H664      1.0  0.03066  0.66425  0.90261  1.0000
  H   H665      1.0  0.46549  0.93723  0.83213  1.0000
  C   C551      1.0  0.46067  0.90392  0.78035  1.0000
  C   C552      1.0  0.13229  0.83812  0.94439  1.0000
  H   H666      1.0  0.39290  0.92290  0.80058  1.0000
  C   C553      1.0  0.03383  0.67721  0.88926  1.0000
  C   C554      1.0  0.29277  0.97881  0.91364  1.0000
  H   H667      1.0  0.48693  0.59484  0.79643  1.0000
  H   H668      1.0  0.46576  0.52378  0.81147  1.0000
  C   C555      1.0  0.45767  0.92105  0.76696  1.0000
  H   H669      1.0  0.01777  0.63302  0.83291  1.0000
  Fe  Fe73      1.0  0.22117  0.98981  0.98842  1.0000
  H   H670      1.0  0.37194  0.86296  0.75096  1.0000
  C   C556      1.0  0.21161  0.73484  0.75440  1.0000
  S   S152      1.0  0.03356  0.79260  0.97982  1.0000
  H   H671      1.0  0.01916  0.69427  0.81415  1.0000
  H   H672      1.0  0.18795  0.87072  0.97623  1.0000
  N   N35       1.0  0.03903  0.67602  0.82838  1.0000
  C   C557      1.0  0.07707  0.84399  0.97759  1.0000
  C   C558      1.0  0.26309  0.87485  0.75393  1.0000
  H   H673      1.0  0.45893  0.55020  0.81563  1.0000
  H   H674      1.0  0.11052  0.88441  0.97501  1.0000
  C   C559      1.0  0.47440  0.98708  0.78820  1.0000
  C   C560      1.0  0.36648  0.86841  0.76629  1.0000
  H   H675      1.0  0.40003  0.86669  0.79812  1.0000
  H   H676      1.0  0.04254  0.72313  0.84210  1.0000
  C   C561      1.0  0.03649  0.64916  0.82671  1.0000
  H   H677      1.0  0.06447  0.69336  0.74531  1.0000
  H   H678      1.0  0.39852  0.93657  0.76359  1.0000
  C   C562      1.0  0.13199  0.79012  0.94872  1.0000
  H   H679      1.0  0.03892  0.73678  0.87844  1.0000
  H   H680      1.0  0.05414  0.61447  0.74816  1.0000
  H   H681      1.0  0.09081  0.77103  0.95126  1.0000
  C   C563      1.0  0.10332  0.86450  0.98116  1.0000
  C   C564      1.0  0.03829  0.71794  0.87563  1.0000
  C   C565      1.0  0.19768  0.86970  0.96159  1.0000
  H   H682      1.0  0.99127  0.79760  0.96021  1.0000
  H   H683      1.0  0.06450  0.84850  0.96860  1.0000
  H   H684      1.0  0.45600  0.53540  0.78938  1.0000
  C   C566      1.0  0.18813  0.71134  0.74936  1.0000
  C   C567      1.0  0.44840  0.95678  0.81551  1.0000
  C   C568      1.0  0.46780  0.54230  0.80453  1.0000
  H   H685      1.0  0.30504  0.95992  0.75089  1.0000
  C   C569      1.0  0.38524  0.91508  0.75836  1.0000
  C   C570      1.0  0.17888  0.88879  0.93970  1.0000
  C   C571      1.0  0.03492  0.70155  0.89276  1.0000
  H   H686      1.0  0.20010  0.84740  0.92480  1.0000
  H   H687      1.0  0.01754  0.83085  0.98488  1.0000
  S   S153      1.0  0.32947  0.98003  0.85845  1.0000
  H   H688      1.0  0.17279  0.81376  0.94650  1.0000
  H   H689      1.0  0.26532  0.89152  0.76369  1.0000
  C   C572      1.0  0.15626  0.83925  0.94414  1.0000
  C   C573      1.0  0.19494  0.86307  0.92329  1.0000
  H   H690      1.0  0.18289  0.85841  0.90842  1.0000
  H   H691      1.0  0.20224  0.85369  0.96387  1.0000
  C   C574      1.0  0.15534  0.81443  0.94628  1.0000
  H   H692      1.0  0.21347  0.88250  0.92104  1.0000
  C   C575      1.0  0.10904  0.81365  0.94662  1.0000
  H   H693      1.0  0.09104  0.81333  0.94718  1.0000
  N   N36       1.0  0.18134  0.86480  0.94218  1.0000
  H   H694      1.0  0.17012  0.89231  0.95394  1.0000
  H   H695      1.0  0.43321  0.93373  0.75478  1.0000
  H   H696      1.0  0.36368  0.85315  0.77812  1.0000
  C   C576      1.0  0.28192  0.86790  0.75507  1.0000
  H   H697      1.0  0.47435  0.93687  0.75909  1.0000
  H   H698      1.0  0.25196  0.75831  0.74793  1.0000
  C   C577      1.0  0.37895  0.90181  0.79478  1.0000
  H   H699      1.0  0.35942  0.89914  0.79401  1.0000
  C   C578      1.0  0.05644  0.65274  0.74836  1.0000
  C   C579      1.0  0.03335  0.50000  0.79171  1.0000
  H   H700      1.0  0.34718  0.86606  0.76373  1.0000
  H   H701      1.0  0.47956  0.90648  0.78279  1.0000
  C   C580      1.0  0.00849  0.84251  0.98738  1.0000
  H   H702      1.0  0.02979  0.50979  0.80501  1.0000
  H   H703      1.0  0.48381  0.57578  0.77245  1.0000
  H   H704      1.0  0.04541  0.87891  0.99317  1.0000
  C   C581      1.0  0.02467  0.87010  0.99211  1.0000
  Fe  Fe74      1.0  0.19033  0.92723  0.99410  1.0000
  H   H705      1.0  0.29441  0.99368  0.92528  1.0000
  Fe  Fe75      1.0  0.95190  0.30839  0.19440  1.0000
  S   S154      1.0  0.94090  0.32481  0.16674  1.0000
  S   S155      1.0  0.92420  0.26925  0.21134  1.0000
  N   N37       1.0  0.90779  0.23632  0.14029  1.0000
  C   C582      1.0  0.68031  0.07623  0.22052  1.0000
  H   H706      1.0  0.67047  0.04965  0.15385  1.0000
  C   C583      1.0  0.98599  0.26363  0.06600  1.0000
  H   H707      1.0  0.55309  0.04650  0.17401  1.0000
  Fe  Fe76      1.0  0.96972  0.36654  0.18057  1.0000
  S   S156      1.0  0.64594  0.03159  0.19583  1.0000
  C   C584      1.0  0.95553  0.44479  0.18929  1.0000
  H   H708      1.0  0.93928  0.23796  0.15822  1.0000
  C   C585      1.0  0.57887  0.07394  0.21282  1.0000
  H   H709      1.0  0.70782  0.11196  0.23921  1.0000
  H   H710      1.0  0.85445  0.10242  0.02006  1.0000
  H   H711      1.0  0.93055  0.26132  0.16746  1.0000
  H   H712      1.0  0.56269  0.45049  0.22376  1.0000
  H   H713      1.0  0.56292  0.07409  0.20514  1.0000
  S   S157      1.0  0.90279  0.13281  0.99843  1.0000
  H   H714      1.0  0.94782  0.26788  0.14342  1.0000
  Fe  Fe77      1.0  0.98393  0.22345  0.01477  1.0000
  C   C586      1.0  0.61411  0.48956  0.22439  1.0000
  C   C587      1.0  0.49250  0.48294  0.15957  1.0000
  C   C588      1.0  0.95794  0.27968  0.07774  1.0000
  Fe  Fe78      1.0  0.97425  0.32621  0.14975  1.0000
  C   C589      1.0  0.96429  0.26578  0.06257  1.0000
  C   C590      1.0  0.59566  0.09662  0.22572  1.0000
  H   H715      1.0  0.88758  0.22532  0.16998  1.0000
  H   H716      1.0  0.54081  0.00547  0.22200  1.0000
  C   C591      1.0  0.88837  0.21591  0.15450  1.0000
  C   C592      1.0  0.93394  0.21265  0.09505  1.0000
  H   H717      1.0  0.95209  0.21506  0.09016  1.0000
  C   C593      1.0  0.58293  0.05203  0.21010  1.0000
  C   C594      1.0  0.89986  0.25577  0.13472  1.0000
  H   H718      1.0  0.88949  0.22118  0.23345  1.0000
  C   C595      1.0  0.70757  0.02114  0.08729  1.0000
  H   H719      1.0  0.88027  0.24577  0.12715  1.0000
  C   C596      1.0  0.48929  0.46002  0.19218  1.0000
  C   C597      1.0  0.66771  0.04795  0.21804  1.0000
  C   C598      1.0  0.58123  0.02384  0.18027  1.0000
  H   H720      1.0  0.59308  0.04252  0.17121  1.0000
  H   H721      1.0  0.60882  0.03833  0.22009  1.0000
  H   H722      1.0  0.89337  0.29465  0.21689  1.0000
  C   C599      1.0  0.88750  0.20748  0.10687  1.0000
  H   H723      1.0  0.86915  0.20510  0.11067  1.0000
  C   C600      1.0  0.89442  0.25906  0.22387  1.0000
  H   H724      1.0  0.76502  0.04071  0.11186  1.0000
  C   C601      1.0  0.66859  0.00235  0.14701  1.0000
  C   C602      1.0  0.88877  0.19514  0.08789  1.0000
  H   H725      1.0  0.94147  0.28168  0.07461  1.0000
  C   C603      1.0  0.68093  0.04817  0.13990  1.0000
  H   H726      1.0  0.69415  0.03950  0.17799  1.0000
  H   H727      1.0  0.81486  0.05713  0.01364  1.0000
  H   H728      1.0  0.59451  0.01824  0.18750  1.0000
  H   H729      1.0  0.65755  0.00156  0.16126  1.0000
  S   S158      1.0  0.97829  0.34956  0.20966  1.0000
  C   C604      1.0  0.83070  0.06418  0.00286  1.0000
  H   H730      1.0  0.56885  0.00725  0.16849  1.0000
  C   C605      1.0  0.55324  0.00371  0.21001  1.0000
  H   H731      1.0  0.55428  0.46207  0.20063  1.0000
  N   N38       1.0  0.69082  0.02999  0.14405  1.0000
  H   H732      1.0  0.56746  0.00072  0.21893  1.0000
  H   H733      1.0  0.95093  0.23699  0.12296  1.0000
  C   C606      1.0  0.97120  0.32732  0.02050  1.0000
  C   C607      1.0  0.70575  0.02969  0.12566  1.0000
  H   H734      1.0  0.95147  0.26357  0.00834  1.0000
  C   C608      1.0  0.73188  0.03659  0.12771  1.0000
  H   H735      1.0  0.95723  0.32573  0.00874  1.0000
  H   H736      1.0  0.74243  0.04262  0.14282  1.0000
  H   H737      1.0  0.97737  0.10492  0.02359  1.0000
  H   H738      1.0  0.66696  0.04094  0.12611  1.0000
  C   C609      1.0  0.93248  0.25143  0.15281  1.0000
  H   H739      1.0  0.91307  0.18857  0.06709  1.0000
  H   H740      1.0  0.72277  0.06027  0.16371  1.0000
  C   C610      1.0  0.96908  0.43333  0.18048  1.0000
  C   C611      1.0  0.91197  0.19779  0.08197  1.0000
  C   C612      1.0  0.54501  0.02911  0.18484  1.0000
  H   H741      1.0  0.95262  0.25713  0.04811  1.0000
  H   H742      1.0  0.93971  0.43289  0.19969  1.0000
  C   C613      1.0  0.50391  0.48197  0.17887  1.0000
  H   H743      1.0  0.53160  0.03046  0.19599  1.0000
  H   H744      1.0  0.66385  0.01201  0.23106  1.0000
  C   C614      1.0  0.88140  0.23395  0.23382  1.0000
  C   C615      1.0  0.86039  0.26665  0.23506  1.0000
  S   S159      1.0  0.96024  0.39974  0.18762  1.0000
  C   C616      1.0  0.57068  0.46222  0.20910  1.0000
  H   H745      1.0  0.69697  0.06894  0.13656  1.0000
  C   C617      1.0  0.60453  0.05422  0.22124  1.0000
  C   C618      1.0  0.97330  0.34068  0.03997  1.0000
  C   C619      1.0  0.70597  0.03928  0.16458  1.0000
  C   C620      1.0  0.74519  0.03559  0.10998  1.0000
  C   C621      1.0  0.90957  0.22298  0.12052  1.0000
  S   S160      1.0  0.96479  0.31014  0.11460  1.0000
  H   H746      1.0  0.87176  0.18368  0.07756  1.0000
  H   H747      1.0  0.87221  0.00961  0.00108  1.0000
  N   N39       1.0  0.59237  0.49016  0.21392  1.0000
  H   H748      1.0  0.96120  0.12308  0.01929  1.0000
  C   C622      1.0  0.93294  0.22519  0.11400  1.0000
  S   S161      1.0  0.97727  0.18137  0.01338  1.0000
  C   C623      1.0  0.84727  0.48695  0.22532  1.0000
  C   C624      1.0  0.97414  0.11717  0.01191  1.0000
  H   H749      1.0  0.67618  0.08747  0.20922  1.0000
  H   H750      1.0  0.91342  0.27081  0.12333  1.0000
  H   H751      1.0  0.86857  0.20548  0.14729  1.0000
  H   H752      1.0  0.89960  0.26725  0.14910  1.0000
  C   C625      1.0  0.96227  0.47153  0.18489  1.0000
  C   C626      1.0  0.81368  0.49285  0.23963  1.0000
  H   H753      1.0  0.89310  0.20027  0.15833  1.0000
  C   C627      1.0  0.97290  0.29134  0.09672  1.0000
  H   H754      1.0  0.57693  0.45098  0.19873  1.0000
  C   C628      1.0  0.88368  0.27532  0.22445  1.0000
  N   N40       1.0  0.56579  0.02775  0.19650  1.0000
  C   C629      1.0  0.67332  0.03374  0.23277  1.0000
  H   H755      1.0  0.53280  0.01058  0.17460  1.0000
  H   H756      1.0  0.71275  0.02558  0.16941  1.0000
  C   C630      1.0  0.62120  0.07698  0.23403  1.0000
  S   S162      1.0  0.98424  0.30812  0.17702  1.0000
  H   H757      1.0  0.67408  0.01582  0.10211  1.0000
  C   C631      1.0  0.69401  0.02186  0.10489  1.0000
  H   H758      1.0  0.74326  0.02683  0.07615  1.0000
  H   H759      1.0  0.95170  0.47990  0.19196  1.0000
  C   C632      1.0  0.85331  0.09001  0.00647  1.0000
  H   H760      1.0  0.85235  0.27948  0.23548  1.0000
  H   H761      1.0  0.69817  0.01497  0.07157  1.0000
  C   C633      1.0  0.69827  0.09020  0.23755  1.0000
  C   C634      1.0  0.73304  0.02784  0.08984  1.0000
  H   H762      1.0  0.49769  0.45894  0.20720  1.0000
  C   C635      1.0  0.61073  0.47674  0.24421  1.0000
  H   H763      1.0  0.59233  0.11318  0.22757  1.0000
  C   C636      1.0  0.98292  0.48747  0.17172  1.0000
  H   H764      1.0  0.96118  0.34897  0.04286  1.0000
  C   C637      1.0  0.84510  0.47106  0.24250  1.0000
  N   N41       1.0  0.98270  0.30033  0.99620  1.0000
  H   H765      1.0  0.57551  0.49286  0.24343  1.0000
  H   H766      1.0  0.63770  0.07820  0.24219  1.0000
  C   C638      1.0  0.91812  0.07647  0.00409  1.0000
  H   H767      1.0  0.86170  0.49163  0.21341  1.0000
  C   C639      1.0  0.61680  0.09816  0.23625  1.0000
  H   H768      1.0  0.87850  0.05339  0.01344  1.0000
  H   H769      1.0  0.85779  0.46317  0.24371  1.0000
  H   H770      1.0  0.91963  0.09514  0.00930  1.0000
  C   C640      1.0  0.89441  0.05262  0.00654  1.0000
  C   C641      1.0  0.98632  0.31562  0.01651  1.0000
  C   C642      1.0  0.89083  0.02797  0.99951  1.0000
  C   C643      1.0  0.95588  0.27687  0.99445  1.0000
  H   H771      1.0  0.65468  0.99474  0.13315  1.0000
  C   C644      1.0  0.93911  0.07636  0.99451  1.0000
  H   H772      1.0  0.86188  0.24060  0.34612  1.0000
  C   C645      1.0  0.73824  0.33172  0.34928  1.0000
  S   S163      1.0  0.75653  0.47918  0.33283  1.0000
  Fe  Fe79      1.0  0.66165  0.27725  0.37519  1.0000
  S   S164      1.0  0.67843  0.32068  0.38613  1.0000
  S   S165      1.0  0.69144  0.26443  0.37472  1.0000
  Fe  Fe80      1.0  0.60658  0.26719  0.37153  1.0000
  S   S166      1.0  0.62000  0.31001  0.38173  1.0000
  S   S167      1.0  0.56413  0.23329  0.36769  1.0000
  Fe  Fe81      1.0  0.65350  0.32221  0.36006  1.0000
  S   S168      1.0  0.66676  0.35445  0.33455  1.0000
  Fe  Fe82      1.0  0.64390  0.30492  0.40713  1.0000
  S   S169      1.0  0.64614  0.32177  0.44109  1.0000
  S   S170      1.0  0.63816  0.27927  0.34793  1.0000
  S   S171      1.0  0.62895  0.26158  0.39809  1.0000
  Fe  Fe83      1.0  0.74189  0.18189  0.30537  1.0000
  S   S172      1.0  0.74005  0.14487  0.31848  1.0000
  S   S173      1.0  0.71009  0.19177  0.30814  1.0000
  Fe  Fe84      1.0  0.79014  0.19716  0.27929  1.0000
  S   S174      1.0  0.79122  0.16102  0.29011  1.0000
  S   S175      1.0  0.81841  0.23231  0.25869  1.0000
  Fe  Fe85      1.0  0.74791  0.13708  0.28479  1.0000
  H   H773      1.0  0.72705  0.09002  0.34619  1.0000
  Fe  Fe86      1.0  0.78324  0.17096  0.32306  1.0000
  S   S176      1.0  0.81103  0.17267  0.34932  1.0000
  S   S177      1.0  0.74739  0.17246  0.27137  1.0000
  S   S178      1.0  0.78446  0.20870  0.31250  1.0000
  Fe  Fe87      1.0  0.81830  0.10627  0.46113  1.0000
  S   S179      1.0  0.84163  0.08608  0.46013  1.0000
  S   S180      1.0  0.79128  0.10534  0.43454  1.0000
  C   C646      1.0  0.50455  0.18259  0.29732  1.0000
  C   C647      1.0  0.48948  0.23565  0.42552  1.0000
  Fe  Fe88      1.0  0.87212  0.12268  0.47941  1.0000
  H   H774      1.0  0.81351  0.07115  0.37143  1.0000
  C   C648      1.0  0.53040  0.19793  0.30425  1.0000
  S   S181      1.0  0.84945  0.14353  0.47849  1.0000
  C   C649      1.0  0.94511  0.15769  0.47902  1.0000
  H   H775      1.0  0.49711  0.19336  0.28896  1.0000
  H   H776      1.0  0.74137  0.26172  0.30386  1.0000
  H   H777      1.0  0.75400  0.35158  0.28955  1.0000
  C   C650      1.0  0.78074  0.06246  0.38986  1.0000
  H   H778      1.0  0.84823  0.20580  0.25170  1.0000
  H   H779      1.0  0.69315  0.29113  0.33411  1.0000
  C   C651      1.0  0.54144  0.18627  0.31615  1.0000
  C   C652      1.0  0.80508  0.15422  0.37326  1.0000
  C   C653      1.0  0.82608  0.15629  0.38495  1.0000
  C   C654      1.0  0.82235  0.14193  0.40389  1.0000
  C   C655      1.0  0.79749  0.12531  0.41146  1.0000
  C   C656      1.0  0.77653  0.12351  0.39989  1.0000
  C   C657      1.0  0.78023  0.13774  0.38091  1.0000
  H   H780      1.0  0.84541  0.16901  0.37929  1.0000
  H   H781      1.0  0.83868  0.14354  0.41252  1.0000
  H   H782      1.0  0.75724  0.11092  0.40566  1.0000
  H   H783      1.0  0.76388  0.13619  0.37237  1.0000
  C   C658      1.0  0.70500  0.21154  0.32721  1.0000
  C   C659      1.0  0.68382  0.21489  0.32411  1.0000
  C   C660      1.0  0.67905  0.23056  0.33865  1.0000
  C   C661      1.0  0.69543  0.24304  0.35656  1.0000
  C   C662      1.0  0.71664  0.23975  0.35964  1.0000
  C   C663      1.0  0.72145  0.22415  0.34506  1.0000
  H   H784      1.0  0.67102  0.20527  0.31033  1.0000
  H   H785      1.0  0.66275  0.23299  0.33598  1.0000
  H   H786      1.0  0.72951  0.24944  0.37338  1.0000
  H   H787      1.0  0.73782  0.22180  0.34766  1.0000
  C   C664      1.0  0.64052  0.30583  0.46618  1.0000
  C   C665      1.0  0.63250  0.27854  0.46779  1.0000
  H   H788      1.0  0.50666  0.25317  0.37432  1.0000
  H   H789      1.0  0.63014  0.26660  0.45350  1.0000
  H   H790      1.0  0.78904  0.06042  0.40466  1.0000
  C   C666      1.0  0.73025  0.44509  0.33374  1.0000
  C   C667      1.0  0.72979  0.42894  0.35046  1.0000
  C   C668      1.0  0.71008  0.40147  0.35140  1.0000
  C   C669      1.0  0.69087  0.38956  0.33526  1.0000
  C   C670      1.0  0.69148  0.40564  0.31841  1.0000
  C   C671      1.0  0.71085  0.43328  0.31775  1.0000
  H   H791      1.0  0.74470  0.43781  0.36292  1.0000
  H   H792      1.0  0.70993  0.38947  0.36448  1.0000
  H   H793      1.0  0.67675  0.39667  0.30582  1.0000
  H   H794      1.0  0.71090  0.44533  0.30474  1.0000
  C   C672      1.0  0.51333  0.20983  0.35422  1.0000
  C   C673      1.0  0.53855  0.23222  0.35255  1.0000
  C   C674      1.0  0.54272  0.25272  0.33876  1.0000
  C   C675      1.0  0.52200  0.25049  0.32644  1.0000
  H   H795      1.0  0.50988  0.19389  0.36488  1.0000
  H   H796      1.0  0.56197  0.27006  0.33728  1.0000
  H   H797      1.0  0.52556  0.26625  0.31553  1.0000
  C   C676      1.0  0.87880  0.21647  0.32165  1.0000
  C   C677      1.0  0.89318  0.25622  0.29885  1.0000
  C   C678      1.0  0.89131  0.27776  0.29050  1.0000
  C   C679      1.0  0.91324  0.25284  0.29105  1.0000
  C   C680      1.0  0.90843  0.29483  0.27536  1.0000
  C   C681      1.0  0.93017  0.26997  0.27579  1.0000
  C   C682      1.0  0.92778  0.29091  0.26799  1.0000
  H   H798      1.0  0.64974  0.34208  0.48400  1.0000
  H   H799      1.0  0.87686  0.20285  0.30804  1.0000
  H   H800      1.0  0.87610  0.28111  0.29514  1.0000
  H   H801      1.0  0.91602  0.23685  0.29614  1.0000
  H   H802      1.0  0.90608  0.31055  0.26867  1.0000
  H   H803      1.0  0.69593  0.03658  0.26077  1.0000
  H   H804      1.0  0.51463  0.24506  0.45237  1.0000
  H   H805      1.0  0.82695  0.45391  0.27141  1.0000
  H   H806      1.0  0.86982  0.26887  0.33019  1.0000
  C   C683      1.0  0.87545  0.25391  0.33382  1.0000
  C   C684      1.0  0.64358  0.32097  0.48504  1.0000
  H   H807      1.0  0.80844  0.46032  0.29992  1.0000
  C   C685      1.0  0.76918  0.10345  0.32438  1.0000
  H   H808      1.0  0.49057  0.12228  0.31763  1.0000
  H   H809      1.0  0.77024  0.33124  0.26506  1.0000
  H   H810      1.0  0.84657  0.21355  0.28974  1.0000
  C   C686      1.0  0.51401  0.24753  0.43538  1.0000
  H   H811      1.0  0.68975  0.30809  0.31172  1.0000
  C   C687      1.0  0.73494  0.29293  0.31542  1.0000
  H   H812      1.0  0.73295  0.31169  0.35551  1.0000
  H   H813      1.0  0.95330  0.22034  0.48674  1.0000
  H   H814      1.0  0.54962  0.27350  0.39074  1.0000
  H   H815      1.0  0.54168  0.21933  0.30113  1.0000
  H   H816      1.0  0.72510  0.28135  0.32910  1.0000
  H   H817      1.0  0.70971  0.05433  0.33862  1.0000
  S   S182      1.0  0.91392  0.14788  0.46831  1.0000
  H   H818      1.0  0.86432  0.20331  0.33348  1.0000
  C   C688      1.0  0.76717  0.46484  0.26578  1.0000
  H   H819      1.0  0.77807  0.00340  0.46672  1.0000
  H   H820      1.0  0.94040  0.30353  0.25563  1.0000
  N   N42       1.0  0.72720  0.32964  0.32750  1.0000
  C   C689      1.0  0.75702  0.29539  0.28298  1.0000
  H   H821      1.0  0.56117  0.19862  0.32226  1.0000
  N   N43       1.0  0.56304  0.27479  0.43312  1.0000
  C   C690      1.0  0.57739  0.30411  0.42891  1.0000
  C   C691      1.0  0.56356  0.27193  0.45665  1.0000
  C   C692      1.0  0.57688  0.26251  0.42353  1.0000
  C   C693      1.0  0.53674  0.26187  0.42336  1.0000
  C   C694      1.0  0.53329  0.26346  0.40104  1.0000
  H   H822      1.0  0.97059  0.12553  0.44114  1.0000
  C   C695      1.0  0.70415  0.07605  0.25213  1.0000
  H   H823      1.0  0.96125  0.11170  0.47850  1.0000
  S   S183      1.0  0.72756  0.09266  0.27331  1.0000
  H   H824      1.0  0.56686  0.31381  0.43484  1.0000
  H   H825      1.0  0.59689  0.31484  0.43685  1.0000
  H   H826      1.0  0.58066  0.30822  0.41163  1.0000
  H   H827      1.0  0.55407  0.28138  0.46506  1.0000
  H   H828      1.0  0.58373  0.28212  0.46333  1.0000
  H   H829      1.0  0.55423  0.25037  0.46097  1.0000
  H   H830      1.0  0.57939  0.26580  0.40613  1.0000
  H   H831      1.0  0.59659  0.27126  0.43077  1.0000
  H   H832      1.0  0.56623  0.24027  0.42555  1.0000
  Fe  Fe89      1.0  0.82449  0.06899  0.49196  1.0000
  C   C696      1.0  0.84747  0.24166  0.24519  1.0000
  N   N44       1.0  0.79328  0.47361  0.27470  1.0000
  C   C697      1.0  0.79013  0.45363  0.29078  1.0000
  H   H833      1.0  0.77593  0.45110  0.30307  1.0000
  C   C698      1.0  0.69154  0.04775  0.24962  1.0000
  H   H834      1.0  0.73314  0.03503  0.32019  1.0000
  H   H835      1.0  0.73094  0.34056  0.36114  1.0000
  C   C699      1.0  0.74639  0.06407  0.37111  1.0000
  C   C700      1.0  0.81094  0.47677  0.25740  1.0000
  H   H836      1.0  0.96408  0.17837  0.45054  1.0000
  C   C701      1.0  0.75665  0.05988  0.38979  1.0000
  C   C702      1.0  0.78443  0.07272  0.35234  1.0000
  H   H837      1.0  0.79600  0.07776  0.33830  1.0000
  H   H838      1.0  0.75339  0.37196  0.32198  1.0000
  C   C703      1.0  0.73236  0.35686  0.32220  1.0000
  C   C704      1.0  0.69885  0.31131  0.32794  1.0000
  C   C705      1.0  0.96679  0.17311  0.46645  1.0000
  C   C706      1.0  0.62755  0.26663  0.48799  1.0000
  C   C707      1.0  0.49254  0.20779  0.34211  1.0000
  C   C708      1.0  0.63120  0.47686  0.25487  1.0000
  C   C709      1.0  0.76040  0.32064  0.27923  1.0000
  C   C710      1.0  0.79457  0.06874  0.37115  1.0000
  H   H839      1.0  0.72305  0.35645  0.30661  1.0000
  C   C711      1.0  0.74657  0.05594  0.31497  1.0000
  H   H840      1.0  0.89810  0.22504  0.32964  1.0000
  C   C712      1.0  0.72535  0.07476  0.33412  1.0000
  H   H841      1.0  0.68999  0.31974  0.33848  1.0000
  C   C713      1.0  0.73794  0.31854  0.31216  1.0000
  H   H842      1.0  0.71875  0.07922  0.31885  1.0000
  H   H843      1.0  0.75965  0.34444  0.34955  1.0000
  H   H844      1.0  0.89522  0.26509  0.34123  1.0000
  N   N45       1.0  0.87439  0.23808  0.31452  1.0000
  C   C714      1.0  0.52690  0.15896  0.32065  1.0000
  C   C715      1.0  0.75099  0.33215  0.29352  1.0000
  H   H845      1.0  0.77262  0.11915  0.33665  1.0000
  C   C716      1.0  0.76019  0.07093  0.35179  1.0000
  H   H846      1.0  0.76500  0.05754  0.31073  1.0000
  H   H847      1.0  0.73835  0.05874  0.29986  1.0000
  C   C717      1.0  0.74426  0.28154  0.30103  1.0000
  H   H848      1.0  0.78817  0.10614  0.32073  1.0000
  H   H849      1.0  0.76218  0.10800  0.30947  1.0000
  H   H850      1.0  0.84198  0.23925  0.30094  1.0000
  C   C718      1.0  0.50873  0.25172  0.39142  1.0000
  H   H851      1.0  0.83347  0.21008  0.31582  1.0000
  H   H852      1.0  0.72411  0.36450  0.33422  1.0000
  C   C719      1.0  0.84803  0.22471  0.30485  1.0000
  N   N46       1.0  0.75031  0.07610  0.33179  1.0000
  C   C720      1.0  0.48897  0.15475  0.30203  1.0000
  H   H853      1.0  0.72805  0.06265  0.37248  1.0000
  H   H854      1.0  0.76701  0.48041  0.25582  1.0000
  H   H855      1.0  0.75327  0.46101  0.27868  1.0000
  H   H856      1.0  0.94487  0.26666  0.26950  1.0000
  H   H857      1.0  0.53559  0.15006  0.33004  1.0000
  C   C721      1.0  0.49683  0.22799  0.32792  1.0000
  H   H858      1.0  0.78303  0.43343  0.28313  1.0000
  S   S184      1.0  0.79914  0.08668  0.49186  1.0000
  H   H859      1.0  0.74652  0.05600  0.40467  1.0000
  H   H860      1.0  0.62983  0.11580  0.24618  1.0000
  H   H861      1.0  0.90969  0.19263  0.48506  1.0000
  C   C722      1.0  0.82722  0.46592  0.25836  1.0000
  C   C723      1.0  0.65550  0.48940  0.24601  1.0000
  H   H862      1.0  0.62125  0.24549  0.48899  1.0000
  H   H863      1.0  0.75935  0.44600  0.25577  1.0000
  H   H864      1.0  0.67157  0.49026  0.25464  1.0000
  H   H865      1.0  0.76416  0.28640  0.27184  1.0000
  C   C724      1.0  0.97938  0.11602  0.47190  1.0000
  C   C725      1.0  0.50111  0.14331  0.31358  1.0000
  H   H866      1.0  0.59230  0.46687  0.25182  1.0000
  H   H867      1.0  0.62842  0.46760  0.27027  1.0000
  C   C726      1.0  0.98467  0.12392  0.45083  1.0000
  H   H868      1.0  0.91883  0.22667  0.49330  1.0000
  C   C727      1.0  0.85806  0.22525  0.24436  1.0000
  Fe  Fe90      1.0  0.74475  0.14638  0.69478  1.0000
  S   S185      1.0  0.74803  0.18699  0.69516  1.0000
  S   S186      1.0  0.72774  0.11921  0.72373  1.0000
  Fe  Fe91      1.0  0.77619  0.15906  0.65324  1.0000
  S   S187      1.0  0.78072  0.19998  0.65081  1.0000
  S   S188      1.0  0.79656  0.14223  0.63324  1.0000
  Fe  Fe92      1.0  0.78955  0.20449  0.68645  1.0000
  S   S189      1.0  0.82304  0.24552  0.69906  1.0000
  Fe  Fe93      1.0  0.73894  0.17951  0.65981  1.0000
  S   S190      1.0  0.70543  0.18175  0.64467  1.0000
  S   S191      1.0  0.78704  0.16464  0.68849  1.0000
  S   S192      1.0  0.73361  0.13774  0.65979  1.0000
  H   H869      1.0  0.82104  0.11942  0.60931  1.0000
  H   H870      1.0  0.80319  0.08685  0.54143  1.0000
  S   S193      1.0  0.73513  0.46395  0.66504  1.0000
  Fe  Fe94      1.0  0.62885  0.28105  0.56661  1.0000
  S   S194      1.0  0.62293  0.25013  0.59098  1.0000
  S   S195      1.0  0.62417  0.26550  0.53184  1.0000
  Fe  Fe95      1.0  0.64141  0.32422  0.60174  1.0000
  S   S196      1.0  0.63685  0.29664  0.62823  1.0000
  S   S197      1.0  0.64739  0.36619  0.60722  1.0000
  Fe  Fe96      1.0  0.65868  0.28339  0.60764  1.0000
  S   S198      1.0  0.69336  0.28133  0.61986  1.0000
  Fe  Fe97      1.0  0.60119  0.26522  0.60967  1.0000
  S   S199      1.0  0.56614  0.23672  0.62914  1.0000
  S   S200      1.0  0.66608  0.31371  0.58227  1.0000
  S   S201      1.0  0.60431  0.29349  0.58419  1.0000
  Fe  Fe98      1.0  0.83204  0.12279  0.50926  1.0000
  S   S202      1.0  0.85674  0.10437  0.51127  1.0000
  S   S203      1.0  0.82603  0.14827  0.53450  1.0000
  H   H871      1.0  0.68870  0.14140  0.67442  1.0000
  H   H872      1.0  0.49408  0.24653  0.60334  1.0000
  C   C728      1.0  0.71009  0.43679  0.64935  1.0000
  C   C729      1.0  0.70935  0.41215  0.64781  1.0000
  C   C730      1.0  0.69023  0.39027  0.63510  1.0000
  C   C731      1.0  0.67167  0.39286  0.62372  1.0000
  C   C732      1.0  0.67217  0.41734  0.62554  1.0000
  C   C733      1.0  0.69113  0.43911  0.63840  1.0000
  H   H873      1.0  0.72372  0.40997  0.65641  1.0000
  H   H874      1.0  0.68992  0.37146  0.63403  1.0000
  H   H875      1.0  0.65773  0.41944  0.61697  1.0000
  H   H876      1.0  0.69095  0.45760  0.63996  1.0000
  C   C734      1.0  0.50058  0.23774  0.61508  1.0000
  C   C735      1.0  0.52572  0.24226  0.61404  1.0000
  C   C736      1.0  0.53434  0.23091  0.62905  1.0000
  C   C737      1.0  0.51750  0.21502  0.64504  1.0000
  H   H877      1.0  0.87968  0.16446  0.52243  1.0000
  H   H878      1.0  0.53835  0.25435  0.60155  1.0000
  H   H879      1.0  0.52397  0.20619  0.65677  1.0000
  C   C738      1.0  0.60900  0.31216  0.67942  1.0000
  C   C739      1.0  0.63074  0.28181  0.50687  1.0000
  C   C740      1.0  0.70206  0.41940  0.56344  1.0000
  H   H880      1.0  0.59643  0.29094  0.68231  1.0000
  H   H881      1.0  0.64134  0.32107  0.51958  1.0000
  C   C741      1.0  0.69871  0.08868  0.73005  1.0000
  C   C742      1.0  0.67861  0.07377  0.71501  1.0000
  H   H882      1.0  0.68087  0.08002  0.69865  1.0000
  C   C743      1.0  0.84773  0.25209  0.71828  1.0000
  C   C744      1.0  0.86899  0.27862  0.72126  1.0000
  H   H883      1.0  0.74806  0.05114  0.62134  1.0000
  H   H884      1.0  0.87027  0.29445  0.71152  1.0000
  C   C745      1.0  0.70225  0.20988  0.63892  1.0000
  C   C746      1.0  0.72272  0.23658  0.64180  1.0000
  C   C747      1.0  0.71945  0.25814  0.63629  1.0000
  C   C748      1.0  0.69566  0.25337  0.62809  1.0000
  C   C749      1.0  0.67508  0.22666  0.62549  1.0000
  C   C750      1.0  0.67843  0.20509  0.63078  1.0000
  H   H885      1.0  0.74117  0.24065  0.64799  1.0000
  H   H886      1.0  0.73556  0.27869  0.63825  1.0000
  H   H887      1.0  0.65670  0.22261  0.61912  1.0000
  H   H888      1.0  0.66247  0.18454  0.62840  1.0000
  C   C751      1.0  0.80460  0.14436  0.60571  1.0000
  C   C752      1.0  0.79935  0.15906  0.59119  1.0000
  C   C753      1.0  0.80593  0.15987  0.56952  1.0000
  C   C754      1.0  0.81761  0.14585  0.56197  1.0000
  C   C755      1.0  0.82324  0.13152  0.57658  1.0000
  C   C756      1.0  0.81672  0.13074  0.59824  1.0000
  H   H889      1.0  0.79019  0.16978  0.59662  1.0000
  H   H890      1.0  0.80179  0.17137  0.55850  1.0000
  H   H891      1.0  0.83313  0.12155  0.57132  1.0000
  S   S204      1.0  0.81139  0.02729  0.50542  1.0000
  C   C757      1.0  0.60171  0.32646  0.66563  1.0000
  H   H892      1.0  0.70019  0.38378  0.57508  1.0000
  H   H893      1.0  0.93436  0.28584  0.69497  1.0000
  C   C758      1.0  0.63334  0.32495  0.68964  1.0000
  H   H894      1.0  0.53779  0.27790  0.65471  1.0000
  N   N47       1.0  0.57624  0.31348  0.65432  1.0000
  C   C759      1.0  0.55707  0.28685  0.66292  1.0000
  H   H895      1.0  0.89149  0.19305  0.65525  1.0000
  C   C760      1.0  0.62065  0.35389  0.66219  1.0000
  C   C761      1.0  0.73051  0.46189  0.58367  1.0000
  N   N48       1.0  0.68106  0.24734  0.54568  1.0000
  C   C762      1.0  0.69022  0.27521  0.55376  1.0000
  C   C763      1.0  0.67575  0.24637  0.52231  1.0000
  C   C764      1.0  0.65633  0.22847  0.55582  1.0000
  C   C765      1.0  0.70030  0.23988  0.55125  1.0000
  C   C766      1.0  0.70768  0.24036  0.57294  1.0000
  C   C767      1.0  0.71169  0.23136  0.53573  1.0000
  C   C768      1.0  0.72503  0.23249  0.57884  1.0000
  C   C769      1.0  0.72918  0.22365  0.54180  1.0000
  C   C770      1.0  0.73576  0.22412  0.56330  1.0000
  H   H896      1.0  0.76648  0.08866  0.54892  1.0000
  C   C771      1.0  0.95547  0.20905  0.54004  1.0000
  H   H897      1.0  0.69170  0.27708  0.57153  1.0000
  H   H898      1.0  0.66741  0.22562  0.51529  1.0000
  H   H899      1.0  0.69346  0.26062  0.51372  1.0000
  H   H900      1.0  0.66140  0.25235  0.51871  1.0000
  H   H901      1.0  0.65805  0.23006  0.57359  1.0000
  H   H902      1.0  0.64093  0.23261  0.55129  1.0000
  H   H903      1.0  0.64933  0.20715  0.55098  1.0000
  H   H904      1.0  0.69988  0.24669  0.58554  1.0000
  H   H905      1.0  0.70736  0.23035  0.51883  1.0000
  C   C772      1.0  0.77619  0.02283  0.55868  1.0000
  C   C773      1.0  0.90775  0.20513  0.49779  1.0000
  H   H906      1.0  0.74914  0.21794  0.56798  1.0000
  H   H907      1.0  0.94423  0.20149  0.55421  1.0000
  H   H908      1.0  0.68798  0.40839  0.55059  1.0000
  H   H909      1.0  0.90081  0.25457  0.66931  1.0000
  H   H910      1.0  0.69144  0.18132  0.69419  1.0000
  C   C774      1.0  0.83544  0.48962  0.70458  1.0000
  H   H911      1.0  0.85760  0.23053  0.66230  1.0000
  H   H912      1.0  0.91368  0.21233  0.55179  1.0000
  H   H913      1.0  0.81468  0.07489  0.56254  1.0000
  C   C775      1.0  0.56502  0.33089  0.65590  1.0000
  H   H914      1.0  0.85478  0.47903  0.68067  1.0000
  C   C776      1.0  0.70901  0.40547  0.57714  1.0000
  H   H915      1.0  0.55438  0.28850  0.68031  1.0000
  H   H916      1.0  0.60978  0.10398  0.70372  1.0000
  H   H917      1.0  0.78676  0.48185  0.71187  1.0000
  H   H918      1.0  0.81138  0.45498  0.67023  1.0000
  C   C777      1.0  0.62195  0.10414  0.71653  1.0000
  C   C778      1.0  0.79996  0.46126  0.67970  1.0000
  N   N49       1.0  0.91634  0.20127  0.51908  1.0000
  C   C779      1.0  0.91050  0.21639  0.53512  1.0000
  H   H919      1.0  0.88717  0.21920  0.64500  1.0000
  H   H920      1.0  0.90477  0.16013  0.51189  1.0000
  H   H921      1.0  0.97691  0.15475  0.52332  1.0000
  C   C780      1.0  0.66307  0.11931  0.73448  1.0000
  C   C781      1.0  0.65108  0.35216  0.68647  1.0000
  C   C782      1.0  0.98635  0.22768  0.50438  1.0000
  H   H922      1.0  0.67000  0.36197  0.69427  1.0000
  H   H923      1.0  0.65763  0.15496  0.66980  1.0000
  H   H924      1.0  0.73153  0.40820  0.60485  1.0000
  H   H925      1.0  0.69687  0.16871  0.71803  1.0000
  H   H926      1.0  0.63368  0.12074  0.67414  1.0000
  C   C783      1.0  0.87720  0.19935  0.65276  1.0000
  C   C784      1.0  0.96033  0.21971  0.50253  1.0000
  H   H927      1.0  0.70614  0.45660  0.55541  1.0000
  C   C785      1.0  0.90296  0.24661  0.68413  1.0000
  C   C786      1.0  0.64470  0.36660  0.67283  1.0000
  H   H928      1.0  0.86203  0.16309  0.68334  1.0000
  H   H929      1.0  0.67678  0.28193  0.54881  1.0000
  H   H930      1.0  0.78338  0.01527  0.54562  1.0000
  H   H931      1.0  0.74302  0.08952  0.61259  1.0000
  C   C787      1.0  0.63884  0.30911  0.50527  1.0000
  H   H932      1.0  0.56113  0.30022  0.62209  1.0000
  C   C788      1.0  0.64628  0.14062  0.68253  1.0000
  H   H933      1.0  0.57580  0.34958  0.64667  1.0000
  H   H934      1.0  0.86211  0.18474  0.64100  1.0000
  H   H935      1.0  0.92268  0.23855  0.53289  1.0000
  H   H936      1.0  0.67089  0.17501  0.71656  1.0000
  H   H937      1.0  0.59370  0.32856  0.62388  1.0000
  C   C789      1.0  0.76512  0.05723  0.56867  1.0000
  C   C790      1.0  0.76171  0.07913  0.56423  1.0000
  C   C791      1.0  0.75964  0.04715  0.58970  1.0000
  C   C792      1.0  0.94896  0.15103  0.49955  1.0000
  C   C793      1.0  0.75153  0.05860  0.60523  1.0000
  C   C794      1.0  0.74848  0.08012  0.60032  1.0000
  H   H938      1.0  0.81108  0.06179  0.53580  1.0000
  C   C795      1.0  0.57964  0.30933  0.63149  1.0000
  C   C796      1.0  0.85006  0.17223  0.68067  1.0000
  C   C797      1.0  0.65543  0.05070  0.72119  1.0000
  H   H939      1.0  0.75156  0.10737  0.57620  1.0000
  C   C798      1.0  0.90998  0.22887  0.72334  1.0000
  C   C799      1.0  0.49240  0.21060  0.64613  1.0000
  H   H940      1.0  0.88698  0.19879  0.49747  1.0000
  H   H941      1.0  0.88986  0.21056  0.53391  1.0000
  H   H942      1.0  0.78460  0.45978  0.66870  1.0000
  N   N50       1.0  0.66336  0.13923  0.69905  1.0000
  H   H943      1.0  0.73905  0.02397  0.53506  1.0000
  C   C800      1.0  0.85439  0.48423  0.69726  1.0000
  C   C801      1.0  0.67847  0.12916  0.68836  1.0000
  H   H944      1.0  0.74939  0.45636  0.61142  1.0000
  C   C802      1.0  0.88641  0.21896  0.68883  1.0000
  H   H945      1.0  0.76654  0.03089  0.51972  1.0000
  C   C803      1.0  0.97417  0.15987  0.50737  1.0000
  H   H946      1.0  0.68394  0.13089  0.73548  1.0000
  H   H947      1.0  0.78957  0.02745  0.57263  1.0000
  C   C804      1.0  0.68134  0.16721  0.70739  1.0000
  H   H948      1.0  0.63859  0.31358  0.69988  1.0000
  H   H949      1.0  0.88824  0.48249  0.70509  1.0000
  H   H950      1.0  0.73631  0.48696  0.62225  1.0000
  C   C805      1.0  0.75331  0.09017  0.57981  1.0000
  C   C806      1.0  0.80221  0.06858  0.54780  1.0000
  C   C807      1.0  0.65210  0.04187  0.74238  1.0000
  C   C808      1.0  0.89054  0.21058  0.70896  1.0000
  C   C809      1.0  0.60946  0.08610  0.73292  1.0000
  H   H951      1.0  0.90467  0.30537  0.73899  1.0000
  H   H952      1.0  0.63989  0.03971  0.70949  1.0000
  H   H953      1.0  0.83187  0.19644  0.65785  1.0000
  H   H954      1.0  0.76192  0.03080  0.59469  1.0000
  H   H955      1.0  0.93259  0.13911  0.50942  1.0000
  H   H956      1.0  0.58703  0.29546  0.62963  1.0000
  H   H957      1.0  0.84008  0.17136  0.69569  1.0000
  H   H958      1.0  0.56277  0.27165  0.66037  1.0000
  H   H959      1.0  0.66582  0.10788  0.68248  1.0000
  N   N51       1.0  0.86578  0.20036  0.67327  1.0000
  H   H960      1.0  0.69346  0.12989  0.69925  1.0000
  H   H961      1.0  0.63412  0.14782  0.68958  1.0000
  C   C810      1.0  0.84797  0.21017  0.66921  1.0000
  H   H962      1.0  0.90468  0.16754  0.53979  1.0000
  C   C811      1.0  0.92228  0.26471  0.69867  1.0000
  H   H963      1.0  0.61736  0.36563  0.65079  1.0000
  H   H964      1.0  0.56468  0.33683  0.67285  1.0000
  N   N52       1.0  0.77547  0.04698  0.55223  1.0000
  H   H965      1.0  0.87876  0.19017  0.71423  1.0000
  H   H966      1.0  0.54485  0.32042  0.64926  1.0000
  H   H967      1.0  0.83457  0.15883  0.66872  1.0000
  H   H968      1.0  0.83941  0.21159  0.68435  1.0000
  N   N53       1.0  0.81612  0.48884  0.68935  1.0000
  C   C812      1.0  0.72666  0.41928  0.59394  1.0000
  H   H969      1.0  0.70956  0.28986  0.54761  1.0000
  H   H970      1.0  0.75664  0.00580  0.56246  1.0000
  C   C813      1.0  0.64928  0.12126  0.71678  1.0000
  C   C814      1.0  0.90073  0.17212  0.52354  1.0000
  H   H971      1.0  0.73761  0.21712  0.52975  1.0000
  H   H972      1.0  0.73003  0.23274  0.59561  1.0000
  H   H973      1.0  0.79015  0.44614  0.69227  1.0000
  H   H974      1.0  0.76001  0.05691  0.52482  1.0000
  C   C815      1.0  0.94408  0.21030  0.52044  1.0000
  C   C816      1.0  0.75955  0.03941  0.53217  1.0000
  C   C817      1.0  0.98146  0.21684  0.54163  1.0000
  H   H975      1.0  0.65873  0.38764  0.67006  1.0000
  C   C818      1.0  0.71264  0.44722  0.56649  1.0000
  C   C819      1.0  0.87358  0.48606  0.71110  1.0000
  C   C820      1.0  0.73698  0.44696  0.59742  1.0000
  H   H976      1.0  0.58865  0.07287  0.73232  1.0000
  C   C821      1.0  0.92577  0.25584  0.71823  1.0000
  H   H977      1.0  0.94030  0.27001  0.72976  1.0000
  C   C822      1.0  0.87430  0.49300  0.73263  1.0000
  C   C823      1.0  0.84632  0.23182  0.73099  1.0000
  C   C824      1.0  0.88850  0.28491  0.73690  1.0000
  H   H978      1.0  0.83008  0.21136  0.72899  1.0000
  H   H979      1.0  0.91238  0.22240  0.73891  1.0000
  H   H980      1.0  0.70891  0.48275  0.60733  1.0000
  N   N54       1.0  0.74109  0.49102  0.58812  1.0000
  C   C825      1.0  0.73036  0.49422  0.60827  1.0000
  H   H981      1.0  0.97812  0.08914  0.96529  1.0000
  S   S205      1.0  0.97112  0.34947  0.76963  1.0000
  H   H982      1.0  0.83215  0.25310  0.76898  1.0000
  C   C826      1.0  0.96922  0.45559  0.77494  1.0000
  H   H983      1.0  0.86405  0.22242  0.75682  1.0000
  S   S206      1.0  0.94895  0.21141  0.99396  1.0000
  Fe  Fe99      1.0  0.94796  0.30817  0.78328  1.0000
  S   S207      1.0  0.90975  0.27145  0.77086  1.0000
  S   S208      1.0  0.95054  0.32403  0.81706  1.0000
  H   H984      1.0  0.95260  0.26434  0.97965  1.0000
  H   H985      1.0  0.87085  0.28631  0.78891  1.0000
  S   S209      1.0  0.97226  0.40149  0.81491  1.0000
  H   H986      1.0  0.94937  0.10779  0.96125  1.0000
  S   S210      1.0  0.96784  0.18049  0.96156  1.0000
  C   C827      1.0  0.73371  0.04245  0.87066  1.0000
  H   H987      1.0  0.94540  0.12480  0.98368  1.0000
  C   C828      1.0  0.82876  0.04749  0.98552  1.0000
  H   H988      1.0  0.79401  0.06691  0.89073  1.0000
  H   H989      1.0  0.89874  0.37787  0.77766  1.0000
  H   H990      1.0  0.89401  0.31470  0.81527  1.0000
  Fe  Fe100     1.0  0.97537  0.22293  0.96574  1.0000
  C   C829      1.0  0.96213  0.27343  0.90624  1.0000
  S   S211      1.0  0.59517  0.99676  0.81141  1.0000
  H   H991      1.0  0.84895  0.04486  0.95844  1.0000
  C   C830      1.0  0.97123  0.47151  0.81120  1.0000
  C   C831      1.0  0.97126  0.42952  0.80432  1.0000
  H   H992      1.0  0.66139  0.09987  0.76394  1.0000
  C   C832      1.0  0.97178  0.44889  0.81862  1.0000
  C   C833      1.0  0.96825  0.28579  0.88608  1.0000
  H   H993      1.0  0.80913  0.04451  0.93948  1.0000
  H   H994      1.0  0.97664  0.13782  0.97290  1.0000
  H   H995      1.0  0.90812  0.00777  0.98470  1.0000
  H   H996      1.0  0.97281  0.44651  0.83565  1.0000
  C   C834      1.0  0.91383  0.34303  0.78069  1.0000
  H   H997      1.0  0.49420  0.49028  0.77917  1.0000
  C   C835      1.0  0.80044  0.04830  0.92517  1.0000
  C   C836      1.0  0.97011  0.47519  0.78925  1.0000
  H   H998      1.0  0.96901  0.41828  0.77103  1.0000
  H   H999      1.0  0.91311  0.32345  0.78044  1.0000
  H   H1000     1.0  0.77154  0.07202  0.86055  1.0000
  C   C837      1.0  0.87229  0.08342  0.97522  1.0000
  C   C838      1.0  0.83756  0.27412  0.76934  1.0000
  H   H1001     1.0  0.77472  0.99939  0.93877  1.0000
  H   H1002     1.0  0.93270  0.35852  0.78816  1.0000
  C   C839      1.0  0.85961  0.29338  0.78095  1.0000
  H   H1003     1.0  0.71994  0.00617  0.91534  1.0000
  S   S212      1.0  0.80071  0.01431  0.98011  1.0000
  Fe  Fe101     1.0  0.94332  0.16977  0.99088  1.0000
  H   H1004     1.0  0.94598  0.27171  0.91469  1.0000
  H   H1005     1.0  0.91082  0.34910  0.82367  1.0000
  C   C840      1.0  0.95849  0.11881  0.97666  1.0000
  C   C841      1.0  0.76053  0.05766  0.87267  1.0000
  H   H1006     1.0  0.71093  0.09082  0.76292  1.0000
  H   H1007     1.0  0.67030  0.04986  0.77361  1.0000
  H   H1008     1.0  0.74217  0.02580  0.94694  1.0000
  H   H1009     1.0  0.98555  0.30689  0.96223  1.0000
  C   C842      1.0  0.67245  0.05632  0.75727  1.0000
  Fe  Fe102     1.0  0.98636  0.32185  0.82131  1.0000
  H   H1010     1.0  0.76852  0.99613  0.91035  1.0000
  S   S213      1.0  0.62193  0.01314  0.74924  1.0000
  Fe  Fe103     1.0  0.97600  0.36548  0.80350  1.0000
  C   C843      1.0  0.76433  0.00296  0.92566  1.0000
  H   H1011     1.0  0.95688  0.29345  0.87936  1.0000
  C   C844      1.0  0.69552  0.07959  0.75114  1.0000
  H   H1012     1.0  0.91355  0.34840  0.76375  1.0000
  C   C845      1.0  0.75920  0.03574  0.90628  1.0000
  C   C846      1.0  0.97650  0.26309  0.91546  1.0000
  N   N55       1.0  0.77181  0.03170  0.92508  1.0000
  H   H1013     1.0  0.88814  0.09048  0.96446  1.0000
  C   C847      1.0  0.77323  0.05448  0.89019  1.0000
  H   H1014     1.0  0.80760  0.07030  0.92583  1.0000
  S   S214      1.0  0.96797  0.24820  0.94138  1.0000
  C   C848      1.0  0.73191  0.02072  0.90374  1.0000
  C   C849      1.0  0.96975  0.43296  0.78236  1.0000
  N   N56       1.0  0.89214  0.34142  0.79241  1.0000
  C   C850      1.0  0.89623  0.36902  0.79371  1.0000
  C   C851      1.0  0.89315  0.33336  0.81464  1.0000
  H   H1015     1.0  0.88000  0.36901  0.80171  1.0000
  C   C852      1.0  0.86770  0.32118  0.78125  1.0000
  H   H1016     1.0  0.91424  0.38340  0.80307  1.0000
  H   H1017     1.0  0.80825  0.04345  0.91096  1.0000
  H   H1018     1.0  0.77272  0.03646  0.95943  1.0000
  C   C853      1.0  0.76331  0.03884  0.94490  1.0000
  H   H1019     1.0  0.97322  0.32444  0.97642  1.0000
  C   C854      1.0  0.83055  0.30902  0.75724  1.0000
  C   C855      1.0  0.91107  0.02703  0.99022  1.0000
  C   C856      1.0  0.88673  0.26474  0.74997  1.0000
  N   N57       1.0  0.96357  0.10212  0.99120  1.0000
  C   C857      1.0  0.71944  0.02405  0.88618  1.0000
  H   H1020     1.0  0.87604  0.32987  0.82358  1.0000
  C   C858      1.0  0.84988  0.05742  0.97183  1.0000
  H   H1021     1.0  0.97195  0.48625  0.82249  1.0000
  C   C859      1.0  0.87435  0.10001  0.99270  1.0000
  H   H1022     1.0  0.72390  0.04491  0.85707  1.0000
  H   H1023     1.0  0.76810  0.06014  0.94488  1.0000
  C   C860      1.0  0.85241  0.32847  0.76903  1.0000
  C   C861      1.0  0.86561  0.23818  0.74682  1.0000
  C   C862      1.0  0.49235  0.47786  0.81160  1.0000
  C   C863      1.0  0.82323  0.28194  0.75730  1.0000
  H   H1024     1.0  0.85721  0.34911  0.76795  1.0000
  C   C864      1.0  0.98397  0.09869  0.98161  1.0000
  C   C865      1.0  0.93492  0.05081  0.98770  1.0000
  H   H1025     1.0  0.69855  0.01221  0.88458  1.0000
  S   S215      1.0  0.98257  0.30390  0.78795  1.0000
  H   H1026     1.0  0.80677  0.26700  0.74762  1.0000
  H   H1027     1.0  0.96841  0.45814  0.75793  1.0000
  H   H1028     1.0  0.81944  0.31499  0.74762  1.0000
  H   H1029     1.0  0.94963  0.04864  0.98017  1.0000
  C   C866      1.0  0.62365  0.08462  0.74995  1.0000
  H   H1030     1.0  0.94136  0.28300  0.99374  1.0000
  H   H1031     1.0  0.61399  0.07012  0.76235  1.0000
  C   C867      1.0  0.98732  0.31778  0.97769  1.0000
  C   C868      1.0  0.65036  0.10140  0.75084  1.0000
  H   H1032     1.0  0.64454  0.97392  0.05600  1.0000
  Fe  Fe104     1.0  0.94493  0.56878  0.19634  1.0000
  S   S216      1.0  0.93948  0.54597  0.16500  1.0000
  S   S217      1.0  0.91820  0.55711  0.22506  1.0000
  H   H1033     1.0  0.63431  0.87398  0.22057  1.0000
  H   H1034     1.0  0.94808  0.67795  0.07487  1.0000
  Fe  Fe105     1.0  0.96179  0.58740  0.15015  1.0000
  S   S218      1.0  0.94757  0.59500  0.11784  1.0000
  H   H1035     1.0  0.92713  0.71612  0.07322  1.0000
  S   S219      1.0  0.96470  0.60950  0.18123  1.0000
  Fe  Fe106     1.0  0.59831  0.60853  0.19304  1.0000
  S   S220      1.0  0.57259  0.58557  0.16451  1.0000
  S   S221      1.0  0.59772  0.64434  0.20825  1.0000
  Fe  Fe107     1.0  0.62904  0.58029  0.18873  1.0000
  S   S222      1.0  0.60545  0.55556  0.15962  1.0000
  S   S223      1.0  0.66509  0.58024  0.20007  1.0000
  Fe  Fe108     1.0  0.60923  0.59429  0.14816  1.0000
  S   S224      1.0  0.61511  0.61045  0.11382  1.0000
  Fe  Fe109     1.0  0.57072  0.54874  0.17792  1.0000
  C   C869      1.0  0.68324  0.75440  0.10471  1.0000
  S   S225      1.0  0.63471  0.61912  0.17614  1.0000
  S   S226      1.0  0.59453  0.57156  0.20764  1.0000
  Fe  Fe110     1.0  0.60770  0.94329  0.15378  1.0000
  S   S227      1.0  0.62692  0.95352  0.18677  1.0000
  S   S228      1.0  0.63099  0.93533  0.12854  1.0000
  Fe  Fe111     1.0  0.56229  0.94955  0.17025  1.0000
  S   S229      1.0  0.57968  0.96059  0.20356  1.0000
  S   S230      1.0  0.52788  0.95390  0.15908  1.0000
  H   H1036     1.0  0.75970  0.77136  0.04360  1.0000
  Fe  Fe112     1.0  0.58716  0.92633  0.19947  1.0000
  S   S231      1.0  0.58045  0.90198  0.22992  1.0000
  S   S232      1.0  0.56793  0.91381  0.16653  1.0000
  Fe  Fe113     1.0  0.97838  0.69354  0.00948  1.0000
  H   H1037     1.0  0.69211  0.62718  0.23654  1.0000
  C   C870      1.0  0.51502  0.59774  0.21960  1.0000
  Fe  Fe114     1.0  0.71886  0.69164  0.01428  1.0000
  S   S233      1.0  0.75733  0.73046  0.01091  1.0000
  S   S234      1.0  0.70699  0.67242  0.04747  1.0000
  Fe  Fe115     1.0  0.70600  0.95817  0.01007  1.0000
  S   S235      1.0  0.74046  0.95351  0.01551  1.0000
  S   S236      1.0  0.68184  0.96502  0.03530  1.0000
  H   H1038     1.0  0.53176  0.59985  0.18125  1.0000
  H   H1039     1.0  0.93708  0.67020  0.03739  1.0000
  H   H1040     1.0  0.60871  0.85032  0.10242  1.0000
  C   C871      1.0  0.96888  0.78557  0.99758  1.0000
  N   N58       1.0  0.65503  0.87047  0.03895  1.0000
  C   C872      1.0  0.64959  0.63548  0.00221  1.0000
  C   C873      1.0  0.84658  0.66271  0.05230  1.0000
  C   C874      1.0  0.62789  0.88962  0.04989  1.0000
  C   C875      1.0  0.64573  0.94512  0.10289  1.0000
  C   C876      1.0  0.66427  0.93859  0.09715  1.0000
  C   C877      1.0  0.67579  0.94485  0.07688  1.0000
  C   C878      1.0  0.66862  0.95734  0.06164  1.0000
  C   C879      1.0  0.65030  0.96418  0.06748  1.0000
  C   C880      1.0  0.63906  0.95828  0.08789  1.0000
  H   H1041     1.0  0.67848  0.51186  0.21979  1.0000
  H   H1042     1.0  0.91840  0.64755  0.07942  1.0000
  C   C881      1.0  0.86402  0.71757  0.00861  1.0000
  C   C882      1.0  0.64151  0.62906  0.09633  1.0000
  C   C883      1.0  0.63733  0.63944  0.07750  1.0000
  C   C884      1.0  0.65699  0.65290  0.06252  1.0000
  C   C885      1.0  0.68127  0.65604  0.06598  1.0000
  C   C886      1.0  0.68562  0.64616  0.08500  1.0000
  C   C887      1.0  0.66600  0.63284  0.10006  1.0000
  H   H1043     1.0  0.61856  0.63676  0.07436  1.0000
  H   H1044     1.0  0.65323  0.66075  0.04833  1.0000
  H   H1045     1.0  0.70430  0.64855  0.08806  1.0000
  H   H1046     1.0  0.66969  0.62504  0.11435  1.0000
  C   C888      1.0  0.95969  0.61854  0.09647  1.0000
  H   H1047     1.0  0.96401  0.60841  0.22925  1.0000
  Fe  Fe116     1.0  0.61805  0.98651  0.18856  1.0000
  C   C889      1.0  0.60510  0.87831  0.08306  1.0000
  H   H1048     1.0  0.60629  0.56681  0.07893  1.0000
  C   C890      1.0  0.67968  0.89682  0.03949  1.0000
  H   H1049     1.0  0.88120  0.68293  0.03516  1.0000
  C   C891      1.0  0.98411  0.64223  0.09737  1.0000
  H   H1050     1.0  0.68862  0.74262  0.03493  1.0000
  C   C892      1.0  0.61384  0.86094  0.08754  1.0000
  C   C893      1.0  0.97658  0.65525  0.06189  1.0000
  H   H1051     1.0  0.96994  0.65011  0.21471  1.0000
  H   H1052     1.0  0.62476  0.96335  0.09178  1.0000
  C   C894      1.0  0.67583  0.57173  0.22366  1.0000
  H   H1053     1.0  0.65659  0.86216  0.00536  1.0000
  H   H1054     1.0  0.53353  0.61646  0.21592  1.0000
  H   H1055     1.0  0.49709  0.58176  0.17856  1.0000
  H   H1056     1.0  0.59760  0.59274  0.01773  1.0000
  H   H1057     1.0  0.69026  0.94006  0.07312  1.0000
  H   H1058     1.0  0.67969  0.69401  0.10457  1.0000
  H   H1059     1.0  0.74128  0.79703  0.03580  1.0000
  C   C895      1.0  0.85688  0.56852  0.22348  1.0000
  C   C896      1.0  0.87871  0.56755  0.21736  1.0000
  C   C897      1.0  0.89129  0.55998  0.23199  1.0000
  C   C898      1.0  0.91673  0.66392  0.04041  1.0000
  H   H1060     1.0  0.84706  0.57392  0.21187  1.0000
  H   H1061     1.0  0.88547  0.57216  0.20121  1.0000
  H   H1062     1.0  0.71206  0.79081  0.04695  1.0000
  C   C899      1.0  0.92729  0.66976  0.07797  1.0000
  Fe  Fe117     1.0  0.97813  0.55056  0.17270  1.0000
  H   H1063     1.0  0.74396  0.74131  0.05832  1.0000
  C   C900      1.0  0.94390  0.61339  0.07804  1.0000
  C   C901      1.0  0.57555  0.85205  0.22080  1.0000
  H   H1064     1.0  0.65053  0.57870  0.07074  1.0000
  H   H1065     1.0  0.92668  0.67869  0.09366  1.0000
  H   H1066     1.0  0.93989  0.62679  0.04687  1.0000
  H   H1067     1.0  0.57742  0.85725  0.20414  1.0000
  C   C902      1.0  0.63912  0.50189  0.21566  1.0000
  C   C903      1.0  0.58579  0.65172  0.23155  1.0000
  C   C904      1.0  0.65936  0.50161  0.22637  1.0000
  C   C905      1.0  0.67030  0.61012  0.99784  1.0000
  H   H1068     1.0  0.66900  0.59726  0.03674  1.0000
  H   H1069     1.0  0.80301  0.50299  0.23827  1.0000
  H   H1070     1.0  0.88305  0.64563  0.09430  1.0000
  H   H1071     1.0  0.63735  0.91423  0.23765  1.0000
  H   H1072     1.0  0.59358  0.88144  0.09450  1.0000
  H   H1073     1.0  0.59635  0.69120  0.22081  1.0000
  H   H1074     1.0  0.59921  0.52465  0.23288  1.0000
  C   C906      1.0  0.87381  0.65110  0.08224  1.0000
  C   C907      1.0  0.83418  0.64789  0.07011  1.0000
  C   C908      1.0  0.67699  0.66017  0.22452  1.0000
  H   H1075     1.0  0.64320  0.82904  0.04434  1.0000
  H   H1076     1.0  0.51571  0.59536  0.23717  1.0000
  H   H1077     1.0  0.57284  0.81386  0.21470  1.0000
  S   S237      1.0  0.53602  0.50766  0.18747  1.0000
  H   H1078     1.0  0.74120  0.80434  0.06365  1.0000
  C   C909      1.0  0.58327  0.50383  0.22842  1.0000
  H   H1079     1.0  0.70653  0.71312  0.07369  1.0000
  H   H1080     1.0  0.60557  0.49511  0.18155  1.0000
  H   H1081     1.0  0.83796  0.63032  0.09880  1.0000
  H   H1082     1.0  0.50331  0.49953  0.14906  1.0000
  H   H1083     1.0  0.70360  0.72314  0.03840  1.0000
  H   H1084     1.0  0.90539  0.64148  0.04085  1.0000
  C   C910      1.0  0.70021  0.57434  0.22397  1.0000
  H   H1085     1.0  0.66401  0.64865  0.01486  1.0000
  H   H1086     1.0  0.67641  0.76559  0.11360  1.0000
  C   C911      1.0  0.87258  0.67182  0.04937  1.0000
  H   H1087     1.0  0.68581  0.62430  0.00944  1.0000
  C   C912      1.0  0.67649  0.72868  0.11108  1.0000
  C   C913      1.0  0.49867  0.95191  0.16752  1.0000
  H   H1088     1.0  0.68335  0.81618  0.00203  1.0000
  H   H1089     1.0  0.75837  0.77356  0.07223  1.0000
  N   N59       1.0  0.91460  0.67627  0.06062  1.0000
  C   C914      1.0  0.62958  0.85769  0.07321  1.0000
  C   C915      1.0  0.64454  0.61862  0.23972  1.0000
  C   C916      1.0  0.60942  0.58908  0.02851  1.0000
  H   H1090     1.0  0.61488  0.52627  0.19611  1.0000
  H   H1091     1.0  0.63589  0.84418  0.07783  1.0000
  C   C917      1.0  0.48844  0.94335  0.18779  1.0000
  H   H1092     1.0  0.69630  0.78201  0.99877  1.0000
  H   H1093     1.0  0.49302  0.96633  0.13766  1.0000
  H   H1094     1.0  0.60563  0.90646  0.06100  1.0000
  H   H1095     1.0  0.66860  0.59010  0.99830  1.0000
  H   H1096     1.0  0.71791  0.75173  0.02170  1.0000
  H   H1097     1.0  0.66445  0.71987  0.12476  1.0000
  C   C918      1.0  0.92930  0.70607  0.05879  1.0000
  C   C919      1.0  0.57603  0.86999  0.23631  1.0000
  C   C920      1.0  0.63746  0.87722  0.23775  1.0000
  H   H1098     1.0  0.96448  0.79019  0.01373  1.0000
  H   H1099     1.0  0.62900  0.62179  0.23372  1.0000
  C   C921      1.0  0.57297  0.82743  0.22687  1.0000
  C   C922      1.0  0.66103  0.84940  0.04419  1.0000
  C   C923      1.0  0.63716  0.87208  0.05389  1.0000
  H   H1100     1.0  0.49940  0.60173  0.21565  1.0000
  H   H1101     1.0  0.92506  0.59512  0.07697  1.0000
  H   H1102     1.0  0.66976  0.92850  0.10851  1.0000
  H   H1103     1.0  0.67704  0.91351  0.03449  1.0000
  H   H1104     1.0  0.62468  0.84537  0.01597  1.0000
  C   C924      1.0  0.70292  0.82259  0.99798  1.0000
  C   C925      1.0  0.63466  0.59575  0.02306  1.0000
  H   H1105     1.0  0.64143  0.88071  0.01051  1.0000
  H   H1106     1.0  0.71202  0.58163  0.21004  1.0000
  C   C926      1.0  0.63885  0.58094  0.05864  1.0000
  H   H1107     1.0  0.95029  0.71416  0.05688  1.0000
  H   H1108     1.0  0.70276  0.78549  0.08266  1.0000
  H   H1109     1.0  0.67495  0.98763  0.14915  1.0000
  C   C927      1.0  0.59924  0.57837  0.04830  1.0000
  H   H1110     1.0  0.83600  0.66711  0.04056  1.0000
  C   C928      1.0  0.59925  0.50473  0.19354  1.0000
  H   H1111     1.0  0.68155  0.64976  0.21172  1.0000
  H   H1112     1.0  0.51444  0.56488  0.17403  1.0000
  C   C929      1.0  0.61390  0.57423  0.06331  1.0000
  C   C930      1.0  0.95226  0.63142  0.06088  1.0000
  N   N60       1.0  0.72271  0.76183  0.05538  1.0000
  C   C931      1.0  0.72952  0.78972  0.05043  1.0000
  C   C932      1.0  0.74718  0.76201  0.05756  1.0000
  C   C933      1.0  0.70753  0.74403  0.03685  1.0000
  C   C934      1.0  0.70753  0.75127  0.07490  1.0000
  C   C935      1.0  0.70049  0.72528  0.08201  1.0000
  C   C936      1.0  0.69848  0.76564  0.08686  1.0000
  C   C937      1.0  0.68513  0.71416  0.09975  1.0000
  C   C938      1.0  0.51374  0.58029  0.18433  1.0000
  H   H1113     1.0  0.68866  0.90217  0.05584  1.0000
  H   H1114     1.0  0.92299  0.71269  0.04464  1.0000
  N   N61       1.0  0.64533  0.60793  0.00227  1.0000
  C   C939      1.0  0.66092  0.56247  0.24189  1.0000
  H   H1115     1.0  0.53289  0.55359  0.20409  1.0000
  H   H1116     1.0  0.63375  0.90224  0.03608  1.0000
  H   H1117     1.0  0.67162  0.85388  0.05984  1.0000
  C   C940      1.0  0.61190  0.89241  0.06418  1.0000
  H   H1118     1.0  0.55210  0.58862  0.21159  1.0000
  H   H1119     1.0  0.64228  0.56056  0.24206  1.0000
  H   H1120     1.0  0.90978  0.66989  0.02624  1.0000
  N   N62       1.0  0.51156  0.57381  0.20733  1.0000
  H   H1121     1.0  0.56742  0.50539  0.22081  1.0000
  C   C941      1.0  0.53300  0.56995  0.21372  1.0000
  H   H1122     1.0  0.81397  0.64077  0.07229  1.0000
  C   C942      1.0  0.88709  0.66646  0.06428  1.0000
  S   S238      1.0  0.60062  0.97770  0.15517  1.0000
  H   H1123     1.0  0.69391  0.89667  0.02861  1.0000
  H   H1124     1.0  0.58014  0.57390  0.05234  1.0000
  C   C943      1.0  0.64387  0.86440  0.01682  1.0000
  H   H1125     1.0  0.72801  0.56894  0.24181  1.0000
  C   C944      1.0  0.84775  0.64206  0.08503  1.0000
  C   C945      1.0  0.64925  0.59166  0.03890  1.0000
  H   H1126     1.0  0.87087  0.72134  0.02509  1.0000
  S   S239      1.0  0.90830  0.71604  0.00088  1.0000
  S   S240      1.0  0.70988  0.87399  0.99710  1.0000
  H   H1127     1.0  0.63161  0.63555  0.00498  1.0000
  C   C946      1.0  0.83139  0.49757  0.22378  1.0000
  H   H1128     1.0  0.82979  0.71900  0.01560  1.0000
  S   S241      1.0  0.97698  0.73153  0.01321  1.0000
  H   H1129     1.0  0.64704  0.60630  0.22727  1.0000
  H   H1130     1.0  0.64389  0.51261  0.20090  1.0000
  H   H1131     1.0  0.66161  0.66295  0.21749  1.0000
  H   H1132     1.0  0.67387  0.84830  0.03216  1.0000
  C   C947      1.0  0.58774  0.67693  0.23345  1.0000
  H   H1133     1.0  0.97961  0.88755  0.99684  1.0000
  C   C948      1.0  0.70939  0.56719  0.24200  1.0000
  H   H1134     1.0  0.63588  0.84034  0.24171  1.0000
  H   H1135     1.0  0.54092  0.98486  0.20022  1.0000
  S   S242      1.0  0.98237  0.57083  0.20482  1.0000
  H   H1136     1.0  0.83359  0.51050  0.21067  1.0000
  H   H1137     1.0  0.69442  0.68055  0.22760  1.0000
  H   H1138     1.0  0.49804  0.93716  0.19892  1.0000
  H   H1139     1.0  0.58250  0.50475  0.18605  1.0000
  C   C949      1.0  0.84059  0.71628  0.00327  1.0000
  H   H1140     1.0  0.93382  0.62039  0.23194  1.0000
  H   H1141     1.0  0.53177  0.56448  0.23079  1.0000
  C   C950      1.0  0.98107  0.62068  0.24006  1.0000
  C   C951      1.0  0.71023  0.80303  0.99613  1.0000
  H   H1142     1.0  0.92983  0.79403  0.99554  1.0000
  H   H1143     1.0  0.49279  0.52384  0.18794  1.0000
  H   H1144     1.0  0.95640  0.76344  0.99449  1.0000
  C   C952      1.0  0.98693  0.66179  0.22575  1.0000
  H   H1145     1.0  0.63683  0.66456  0.24274  1.0000
  Fe  Fe118     1.0  0.58601  0.76335  0.32955  1.0000
  S   S243      1.0  0.55297  0.72125  0.33503  1.0000
  S   S244      1.0  0.62305  0.78988  0.34976  1.0000
  Fe  Fe119     1.0  0.56302  0.76632  0.28591  1.0000
  S   S245      1.0  0.52855  0.72410  0.28827  1.0000
  H   H1146     1.0  0.89661  0.61433  0.25099  1.0000
  Fe  Fe120     1.0  0.52721  0.73566  0.32259  1.0000
  Fe  Fe121     1.0  0.55678  0.71269  0.30016  1.0000
  S   S246      1.0  0.55471  0.67316  0.29080  1.0000
  S   S247      1.0  0.56024  0.77869  0.31943  1.0000
  S   S248      1.0  0.59128  0.75393  0.29547  1.0000
  Fe  Fe122     1.0  0.78815  0.57782  0.32348  1.0000
  S   S249      1.0  0.74755  0.54296  0.32668  1.0000
  S   S250      1.0  0.80849  0.61577  0.34548  1.0000
  Fe  Fe123     1.0  0.79437  0.55514  0.28030  1.0000
  H   H1147     1.0  0.70801  0.65663  0.25375  1.0000
  Fe  Fe124     1.0  0.74174  0.54788  0.29157  1.0000
  S   S251      1.0  0.70381  0.54585  0.28260  1.0000
  S   S252      1.0  0.78156  0.58430  0.28903  1.0000
  S   S253      1.0  0.80381  0.55141  0.31448  1.0000
  H   H1148     1.0  0.79710  0.70070  0.42892  1.0000
  H   H1149     1.0  0.72700  0.64669  0.42364  1.0000
  H   H1150     1.0  0.64277  0.92114  0.27684  1.0000
  C   C953      1.0  0.62000  0.82986  0.30101  1.0000
  C   C954      1.0  0.86048  0.55543  0.25913  1.0000
  C   C955      1.0  0.68070  0.85731  0.43370  1.0000
  Fe  Fe125     1.0  0.67909  0.80473  0.47176  1.0000
  S   S254      1.0  0.64378  0.78035  0.44905  1.0000
  S   S255      1.0  0.72049  0.83166  0.46279  1.0000
  Fe  Fe126     1.0  0.83263  0.66351  0.46895  1.0000
  S   S256      1.0  0.84651  0.70470  0.45659  1.0000
  S   S257      1.0  0.82091  0.62657  0.44745  1.0000
  H   H1151     1.0  0.68369  0.85382  0.41675  1.0000
  H   H1152     1.0  0.79150  0.49853  0.29962  1.0000
  H   H1153     1.0  0.80476  0.51562  0.27539  1.0000
  C   C956      1.0  0.97165  0.78242  0.47695  1.0000
  H   H1154     1.0  0.95168  0.74807  0.42716  1.0000
  C   C957      1.0  0.64135  0.68120  0.27410  1.0000
  C   C958      1.0  0.57085  0.82037  0.24848  1.0000
  C   C959      1.0  0.79087  0.68713  0.41438  1.0000
  H   H1155     1.0  0.61971  0.84445  0.42835  1.0000
  H   H1156     1.0  0.94446  0.65700  0.30604  1.0000
  C   C960      1.0  0.77562  0.98723  0.47667  1.0000
  C   C961      1.0  0.80372  0.50000  0.28607  1.0000
  C   C962      1.0  0.97494  0.70009  0.44377  1.0000
  C   C963      1.0  0.75858  0.96001  0.47003  1.0000
  H   H1157     1.0  0.63773  0.87176  0.39858  1.0000
  H   H1158     1.0  0.89168  0.54832  0.26443  1.0000
  H   H1159     1.0  0.74811  0.95556  0.45493  1.0000
  H   H1160     1.0  0.65807  0.54733  0.27368  1.0000
  H   H1161     1.0  0.82354  0.50771  0.29268  1.0000
  C   C964      1.0  0.93711  0.62917  0.24795  1.0000
  C   C965      1.0  0.63919  0.89996  0.24735  1.0000
  H   H1162     1.0  0.63708  0.83449  0.41075  1.0000
  H   H1163     1.0  0.90135  0.63206  0.28799  1.0000
  C   C966      1.0  0.74916  0.60908  0.36163  1.0000
  S   S258      1.0  0.75374  0.51872  0.28059  1.0000
  H   H1164     1.0  0.85389  0.55106  0.27530  1.0000
  C   C967      1.0  0.81223  0.61825  0.37383  1.0000
  C   C968      1.0  0.82324  0.64383  0.38415  1.0000
  C   C969      1.0  0.82616  0.64673  0.40663  1.0000
  C   C970      1.0  0.81807  0.62405  0.41906  1.0000
  C   C971      1.0  0.80735  0.59855  0.40875  1.0000
  C   C972      1.0  0.80443  0.59562  0.38627  1.0000
  H   H1165     1.0  0.82936  0.66143  0.37465  1.0000
  H   H1166     1.0  0.83471  0.66647  0.41431  1.0000
  H   H1167     1.0  0.80113  0.58086  0.41820  1.0000
  H   H1168     1.0  0.79602  0.57584  0.37858  1.0000
  H   H1169     1.0  0.75305  0.63066  0.44195  1.0000
  H   H1170     1.0  0.62060  0.84537  0.31208  1.0000
  C   C973      1.0  0.96220  0.64353  0.25765  1.0000
  H   H1171     1.0  0.78694  0.64624  0.43641  1.0000
  H   H1172     1.0  0.64882  0.69607  0.30672  1.0000
  C   C974      1.0  0.62859  0.78552  0.37707  1.0000
  C   C975      1.0  0.60841  0.76907  0.39046  1.0000
  C   C976      1.0  0.61353  0.76739  0.41228  1.0000
  C   C977      1.0  0.63884  0.78189  0.42104  1.0000
  C   C978      1.0  0.65909  0.79776  0.40752  1.0000
  C   C979      1.0  0.65394  0.79984  0.38578  1.0000
  H   H1173     1.0  0.58881  0.75788  0.38407  1.0000
  H   H1174     1.0  0.59770  0.75486  0.42250  1.0000
  H   H1175     1.0  0.67873  0.80843  0.41382  1.0000
  H   H1176     1.0  0.66976  0.81244  0.37559  1.0000
  H   H1177     1.0  0.61937  0.81406  0.31126  1.0000
  C   C980      1.0  0.77073  0.64987  0.43776  1.0000
  C   C981      1.0  0.74556  0.66596  0.42136  1.0000
  H   H1178     1.0  0.75952  0.60855  0.41461  1.0000
  C   C982      1.0  0.75208  0.63441  0.36001  1.0000
  H   H1179     1.0  0.74953  0.67928  0.43581  1.0000
  C   C983      1.0  0.94874  0.68905  0.43878  1.0000
  C   C984      1.0  0.63580  0.84062  0.42745  1.0000
  N   N63       1.0  0.91102  0.69337  0.42777  1.0000
  C   C985      1.0  0.89656  0.68083  0.44729  1.0000
  C   C986      1.0  0.90408  0.71322  0.42085  1.0000
  C   C987      1.0  0.90217  0.67220  0.41055  1.0000
  C   C988      1.0  0.93900  0.70553  0.43238  1.0000
  C   C989      1.0  0.94253  0.64938  0.28974  1.0000
  H   H1180     1.0  0.58003  0.70331  0.25262  1.0000
  H   H1181     1.0  0.68337  0.62431  0.26374  1.0000
  S   S259      1.0  0.73329  0.90468  0.47330  1.0000
  C   C990      1.0  0.75715  0.61657  0.39990  1.0000
  H   H1182     1.0  0.90329  0.69606  0.46072  1.0000
  H   H1183     1.0  0.87544  0.67203  0.44468  1.0000
  H   H1184     1.0  0.89885  0.66402  0.45265  1.0000
  H   H1185     1.0  0.91409  0.72329  0.40604  1.0000
  H   H1186     1.0  0.90887  0.72895  0.43360  1.0000
  H   H1187     1.0  0.88300  0.70341  0.41730  1.0000
  H   H1188     1.0  0.90404  0.65493  0.41530  1.0000
  H   H1189     1.0  0.88137  0.66334  0.40614  1.0000
  H   H1190     1.0  0.91342  0.68056  0.39584  1.0000
  C   C991      1.0  0.98337  0.74446  0.43608  1.0000
  H   H1191     1.0  0.93608  0.66753  0.44030  1.0000
  C   C992      1.0  0.57100  0.83815  0.26398  1.0000
  H   H1192     1.0  0.66786  0.86994  0.31116  1.0000
  C   C993      1.0  0.64155  0.86125  0.27285  1.0000
  S   S260      1.0  0.81902  0.56261  0.25064  1.0000
  H   H1193     1.0  0.62730  0.68707  0.27111  1.0000
  H   H1194     1.0  0.73500  0.75634  0.47004  1.0000
  C   C994      1.0  0.56537  0.64048  0.26609  1.0000
  H   H1195     1.0  0.55678  0.62631  0.27879  1.0000
  C   C995      1.0  0.66293  0.91360  0.39422  1.0000
  C   C996      1.0  0.95718  0.73371  0.43123  1.0000
  Fe  Fe127     1.0  0.87681  0.71906  0.48327  1.0000
  H   H1196     1.0  0.96922  0.79840  0.47107  1.0000
  H   H1197     1.0  0.64515  0.88834  0.29919  1.0000
  H   H1198     1.0  0.60150  0.82050  0.29161  1.0000
  C   C997      1.0  0.94970  0.75732  0.48150  1.0000
  N   N64       1.0  0.48856  0.76690  0.27046  1.0000
  C   C998      1.0  0.69420  0.55719  0.26000  1.0000
  H   H1199     1.0  0.80690  0.68406  0.41020  1.0000
  C   C999      1.0  0.78198  0.74105  0.47852  1.0000
  N   N65       1.0  0.66062  0.86442  0.43537  1.0000
  H   H1200     1.0  0.52766  0.78783  0.28326  1.0000
  N   N66       1.0  0.98470  0.64739  0.24571  1.0000
  Fe  Fe128     1.0  0.82064  0.70729  0.48087  1.0000
  H   H1201     1.0  0.69969  0.87341  0.44043  1.0000
  N   N67       1.0  0.64219  0.84112  0.28666  1.0000
  H   H1202     1.0  0.62219  0.80618  0.26523  1.0000
  C   C1000     1.0  0.56714  0.66565  0.26790  1.0000
  C   C1001     1.0  0.57352  0.86273  0.25790  1.0000
  Fe  Fe129     1.0  0.76233  0.51643  0.31538  1.0000
  C   C1002     1.0  0.66469  0.65963  0.26142  1.0000
  H   H1203     1.0  0.74263  0.67619  0.40774  1.0000
  H   H1204     1.0  0.69120  0.95610  0.39293  1.0000
  H   H1205     1.0  0.77558  0.66405  0.45170  1.0000
  C   C1003     1.0  0.57475  0.63357  0.24809  1.0000
  H   H1206     1.0  0.74573  0.59657  0.34737  1.0000
  H   H1207     1.0  0.97815  0.60863  0.25452  1.0000
  C   C1004     1.0  0.64694  0.66824  0.25793  1.0000
  C   C1005     1.0  0.75522  0.93858  0.48264  1.0000
  C   C1006     1.0  0.75743  0.65094  0.37829  1.0000
  H   H1208     1.0  0.50612  0.75791  0.29672  1.0000
  C   C1007     1.0  0.64079  0.81810  0.27451  1.0000
  C   C1008     1.0  0.66637  0.85410  0.29994  1.0000
  C   C1009     1.0  0.64335  0.88476  0.28209  1.0000
  H   H1209     1.0  0.78867  0.69858  0.40136  1.0000
  C   C1010     1.0  0.69109  0.91395  0.42998  1.0000
  H   H1210     1.0  0.64183  0.80364  0.28535  1.0000
  H   H1211     1.0  0.68038  0.68215  0.31385  1.0000
  C   C1011     1.0  0.75886  0.73860  0.47095  1.0000
  H   H1212     1.0  0.64515  0.87783  0.46007  1.0000
  H   H1213     1.0  0.64889  0.85025  0.46729  1.0000
  C   C1012     1.0  0.63843  0.85797  0.25021  1.0000
  N   N68       1.0  0.76680  0.66091  0.41781  1.0000
  H   H1214     1.0  0.98194  0.68726  0.44900  1.0000
  C   C1013     1.0  0.65482  0.88965  0.40498  1.0000
  H   H1215     1.0  0.75057  0.64135  0.34440  1.0000
  H   H1216     1.0  0.56941  0.83320  0.28066  1.0000
  H   H1217     1.0  0.66756  0.83918  0.31014  1.0000
  C   C1014     1.0  0.57851  0.68390  0.25148  1.0000
  H   H1218     1.0  0.63024  0.82253  0.43715  1.0000
  S   S261      1.0  0.91846  0.75285  0.47755  1.0000
  H   H1219     1.0  0.75950  0.67040  0.37619  1.0000
  H   H1220     1.0  0.68360  0.86361  0.28975  1.0000
  C   C1015     1.0  0.66862  0.88921  0.42339  1.0000
  H   H1221     1.0  0.67552  0.83878  0.44259  1.0000
  H   H1222     1.0  0.51410  0.80292  0.25335  1.0000
  H   H1223     1.0  0.67652  0.88328  0.46659  1.0000
  C   C1016     1.0  0.65769  0.86924  0.45825  1.0000
  C   C1017     1.0  0.75140  0.60008  0.38154  1.0000
  C   C1018     1.0  0.49406  0.79172  0.25937  1.0000
  S   S262      1.0  0.78820  0.71490  0.47189  1.0000
  H   H1224     1.0  0.98247  0.66441  0.28780  1.0000
  S   S263      1.0  0.56830  0.78927  0.25504  1.0000
  H   H1225     1.0  0.65206  0.91354  0.38030  1.0000
  C   C1019     1.0  0.76048  0.64269  0.39880  1.0000
  C   C1020     1.0  0.96429  0.65351  0.27900  1.0000
  H   H1226     1.0  0.74964  0.58053  0.38258  1.0000
  H   H1227     1.0  0.71632  0.95633  0.42456  1.0000
  H   H1228     1.0  0.65700  0.82506  0.26337  1.0000
  H   H1229     1.0  0.70277  0.91503  0.44364  1.0000
  C   C1021     1.0  0.64211  0.90372  0.26947  1.0000
  C   C1022     1.0  0.91823  0.63537  0.27964  1.0000
  H   H1230     1.0  0.50423  0.78726  0.30097  1.0000
  H   H1231     1.0  0.57392  0.87647  0.27004  1.0000
  H   H1232     1.0  0.74539  0.72111  0.46120  1.0000
  C   C1023     1.0  0.69906  0.93773  0.41910  1.0000
  C   C1024     1.0  0.68496  0.93758  0.40128  1.0000
  C   C1025     1.0  0.75287  0.75857  0.47592  1.0000
  C   C1026     1.0  0.65341  0.68620  0.29418  1.0000
  H   H1233     1.0  0.69036  0.65918  0.28635  1.0000
  C   C1027     1.0  0.67114  0.67829  0.29814  1.0000
  C   C1028     1.0  0.67674  0.66510  0.28210  1.0000
  C   C1029     1.0  0.67002  0.55513  0.25987  1.0000
  H   H1234     1.0  0.63750  0.60636  0.25428  1.0000
  H   H1235     1.0  0.49156  0.73214  0.26255  1.0000
  S   S264      1.0  0.49221  0.73386  0.33759  1.0000
  C   C1030     1.0  0.88206  0.55406  0.25292  1.0000
  C   C1031     1.0  0.68902  0.63802  0.24999  1.0000
  C   C1032     1.0  0.91557  0.62538  0.25877  1.0000
  C   C1033     1.0  0.50746  0.77539  0.28859  1.0000
  Fe  Fe130     1.0  0.72095  0.86257  0.48575  1.0000
  C   C1034     1.0  0.49294  0.75002  0.25506  1.0000
  S   S265      1.0  0.67895  0.83620  0.49336  1.0000
  C   C1035     1.0  0.95328  0.73687  0.48898  1.0000
  Fe  Fe131     1.0  0.73011  0.81492  0.49153  1.0000
  C   C1036     1.0  0.76996  0.78132  0.48860  1.0000
  H   H1236     1.0  0.51254  0.76149  0.24825  1.0000
  C   C1037     1.0  0.97844  0.74176  0.49230  1.0000
  H   H1237     1.0  0.49782  0.72181  0.39037  1.0000
  H   H1238     1.0  0.49244  0.80609  0.27031  1.0000
  H   H1239     1.0  0.93682  0.71727  0.49218  1.0000
  H   H1240     1.0  0.48970  0.75229  0.41244  1.0000
  S   S266      1.0  0.80478  0.66476  0.49164  1.0000
  C   C1038     1.0  0.79916  0.76390  0.49105  1.0000
  H   H1241     1.0  0.57347  0.61429  0.24711  1.0000
  C   C1039     1.0  0.84745  0.56226  0.24432  1.0000
  N   N69       1.0  0.66898  0.64447  0.24435  1.0000
  Fe  Fe132     1.0  0.56825  0.75450  0.64308  1.0000
  S   S267      1.0  0.54520  0.71240  0.65537  1.0000
  S   S268      1.0  0.57670  0.75627  0.60727  1.0000
  Fe  Fe133     1.0  0.56599  0.77937  0.68666  1.0000
  S   S269      1.0  0.54259  0.73855  0.70156  1.0000
  S   S270      1.0  0.58686  0.82165  0.70297  1.0000
  Fe  Fe134     1.0  0.56944  0.72794  0.68566  1.0000
  S   S271      1.0  0.59256  0.70956  0.69871  1.0000
  Fe  Fe135     1.0  0.51975  0.72574  0.66994  1.0000
  S   S272      1.0  0.59416  0.76947  0.67236  1.0000
  S   S273      1.0  0.54152  0.76715  0.65608  1.0000
  Fe  Fe136     1.0  0.76861  0.56089  0.64199  1.0000
  S   S274      1.0  0.72971  0.53231  0.65594  1.0000
  S   S275      1.0  0.76992  0.57072  0.60637  1.0000
  Fe  Fe137     1.0  0.79798  0.55940  0.68278  1.0000
  S   S276      1.0  0.83965  0.57295  0.69285  1.0000
  Fe  Fe138     1.0  0.74637  0.55729  0.68662  1.0000
  S   S277      1.0  0.72864  0.57767  0.70590  1.0000
  S   S278      1.0  0.78467  0.53531  0.65169  1.0000
  S   S279      1.0  0.78449  0.58711  0.67188  1.0000
  Fe  Fe139     1.0  0.69136  0.81952  0.51992  1.0000
  S   S280      1.0  0.68118  0.81725  0.55538  1.0000
  S   S281      1.0  0.73357  0.84801  0.51369  1.0000
  Fe  Fe140     1.0  0.83734  0.68247  0.51600  1.0000
  S   S282      1.0  0.85210  0.72534  0.50638  1.0000
  S   S283      1.0  0.83443  0.67763  0.55226  1.0000
  C   C1040     1.0  0.88073  0.57580  0.71492  1.0000
  C   C1041     1.0  0.69600  0.58687  0.72976  1.0000
  H   H1242     1.0  0.49490  0.69398  0.61945  1.0000
  H   H1243     1.0  0.50375  0.70785  0.56124  1.0000
  H   H1244     1.0  0.84354  0.52867  0.67894  1.0000
  C   C1042     1.0  0.50878  0.70707  0.57828  1.0000
  C   C1043     1.0  0.51057  0.74793  0.58894  1.0000
  H   H1245     1.0  0.74187  0.50217  0.55533  1.0000
  H   H1246     1.0  0.76679  0.92858  0.51196  1.0000
  H   H1247     1.0  0.71061  0.60798  0.72837  1.0000
  H   H1248     1.0  0.91344  0.57800  0.73146  1.0000
  H   H1249     1.0  0.75439  0.68615  0.57042  1.0000
  C   C1044     1.0  0.69976  0.56709  0.72006  1.0000
  H   H1250     1.0  0.73302  0.68831  0.51421  1.0000
  C   C1045     1.0  0.82957  0.50811  0.67211  1.0000
  H   H1251     1.0  0.54340  0.66939  0.71732  1.0000
  H   H1252     1.0  0.61450  0.93410  0.74121  1.0000
  C   C1046     1.0  0.60599  0.88901  0.68110  1.0000
  C   C1047     1.0  0.73475  0.50433  0.57107  1.0000
  H   H1253     1.0  0.56853  0.55915  0.72243  1.0000
  C   C1048     1.0  0.78613  0.97197  0.50872  1.0000
  N   N70       1.0  0.60677  0.58495  0.71038  1.0000
  C   C1049     1.0  0.78846  0.60078  0.59179  1.0000
  C   C1050     1.0  0.78584  0.59926  0.56931  1.0000
  C   C1051     1.0  0.79986  0.62243  0.55697  1.0000
  C   C1052     1.0  0.81664  0.64756  0.56698  1.0000
  C   C1053     1.0  0.81919  0.64914  0.58945  1.0000
  C   C1054     1.0  0.80530  0.62592  0.60179  1.0000
  H   H1254     1.0  0.77288  0.57999  0.56134  1.0000
  H   H1255     1.0  0.79763  0.62079  0.53973  1.0000
  H   H1256     1.0  0.83207  0.66843  0.59743  1.0000
  H   H1257     1.0  0.80754  0.62749  0.61903  1.0000
  H   H1258     1.0  0.81588  0.51001  0.66136  1.0000
  H   H1259     1.0  0.94648  0.71553  0.56232  1.0000
  C   C1055     1.0  0.57864  0.83741  0.72348  1.0000
  C   C1056     1.0  0.79314  0.78381  0.49606  1.0000
  H   H1260     1.0  0.57598  0.54524  0.69987  1.0000
  C   C1057     1.0  0.58358  0.68236  0.71635  1.0000
  H   H1261     1.0  0.61211  0.54027  0.70078  1.0000
  Fe  Fe141     1.0  0.74721  0.50852  0.66753  1.0000
  H   H1262     1.0  0.73693  0.51570  0.61193  1.0000
  H   H1263     1.0  0.71364  0.49614  0.56966  1.0000
  C   C1058     1.0  0.60587  0.77441  0.59308  1.0000
  C   C1059     1.0  0.60520  0.76995  0.57082  1.0000
  C   C1060     1.0  0.62787  0.78332  0.55891  1.0000
  C   C1061     1.0  0.65159  0.80128  0.56917  1.0000
  C   C1062     1.0  0.65220  0.80588  0.59143  1.0000
  C   C1063     1.0  0.62950  0.79263  0.60331  1.0000
  H   H1264     1.0  0.58705  0.75594  0.56270  1.0000
  H   H1265     1.0  0.62707  0.77948  0.54186  1.0000
  H   H1266     1.0  0.67043  0.81967  0.59954  1.0000
  H   H1267     1.0  0.63033  0.79655  0.62034  1.0000
  S   S284      1.0  0.76125  0.53142  0.69936  1.0000
  H   H1268     1.0  0.56844  0.90476  0.72860  1.0000
  C   C1064     1.0  0.55822  0.66568  0.72284  1.0000
  C   C1065     1.0  0.68067  0.53988  0.72201  1.0000
  H   H1269     1.0  0.96374  0.78955  0.53139  1.0000
  C   C1066     1.0  0.59719  0.59901  0.69704  1.0000
  H   H1270     1.0  0.76719  0.68168  0.51264  1.0000
  H   H1271     1.0  0.64832  0.54104  0.68452  1.0000
  C   C1067     1.0  0.64457  0.93287  0.67872  1.0000
  C   C1068     1.0  0.61328  0.95044  0.73345  1.0000
  C   C1069     1.0  0.63365  0.94422  0.69142  1.0000
  C   C1070     1.0  0.76965  0.50570  0.59059  1.0000
  C   C1071     1.0  0.85498  0.56930  0.71606  1.0000
  H   H1272     1.0  0.55764  0.91282  0.70430  1.0000
  C   C1072     1.0  0.59810  0.86244  0.73248  1.0000
  H   H1273     1.0  0.53182  0.75822  0.59199  1.0000
  C   C1073     1.0  0.75593  0.75699  0.54316  1.0000
  H   H1274     1.0  0.53223  0.63135  0.74126  1.0000
  S   S285      1.0  0.68852  0.78582  0.49917  1.0000
  C   C1074     1.0  0.58431  0.55780  0.71481  1.0000
  C   C1075     1.0  0.60253  0.67704  0.72371  1.0000
  H   H1275     1.0  0.58960  0.97274  0.71281  1.0000
  H   H1276     1.0  0.56247  0.93159  0.72868  1.0000
  H   H1277     1.0  0.74568  0.66368  0.53412  1.0000
  N   N71       1.0  0.49739  0.71849  0.59265  1.0000
  C   C1076     1.0  0.63076  0.90530  0.67358  1.0000
  C   C1077     1.0  0.57038  0.92153  0.71885  1.0000
  C   C1078     1.0  0.67106  0.60817  0.68439  1.0000
  H   H1278     1.0  0.81721  0.76645  0.49674  1.0000
  H   H1279     1.0  0.50770  0.75195  0.57214  1.0000
  H   H1280     1.0  0.66399  0.94543  0.67307  1.0000
  H   H1281     1.0  0.49575  0.72440  0.62638  1.0000
  C   C1079     1.0  0.55195  0.64407  0.73646  1.0000
  N   N72       1.0  0.63755  0.73776  0.64302  1.0000
  C   C1080     1.0  0.64284  0.71868  0.65404  1.0000
  C   C1081     1.0  0.64539  0.76145  0.65759  1.0000
  C   C1082     1.0  0.60921  0.72405  0.63927  1.0000
  C   C1083     1.0  0.65229  0.74651  0.62312  1.0000
  C   C1084     1.0  0.67969  0.76168  0.62408  1.0000
  C   C1085     1.0  0.64022  0.74021  0.60240  1.0000
  C   C1086     1.0  0.69403  0.77097  0.60557  1.0000
  C   C1087     1.0  0.65480  0.74919  0.58400  1.0000
  C   C1088     1.0  0.68158  0.76489  0.58558  1.0000
  H   H1282     1.0  0.66348  0.72822  0.65901  1.0000
  H   H1283     1.0  0.63151  0.71122  0.66888  1.0000
  H   H1284     1.0  0.63763  0.70080  0.64350  1.0000
  H   H1285     1.0  0.66590  0.77171  0.66301  1.0000
  H   H1286     1.0  0.63407  0.75547  0.67248  1.0000
  H   H1287     1.0  0.64240  0.77669  0.64969  1.0000
  H   H1288     1.0  0.59867  0.71824  0.65449  1.0000
  H   H1289     1.0  0.60392  0.73754  0.63126  1.0000
  H   H1290     1.0  0.60143  0.70506  0.62949  1.0000
  H   H1291     1.0  0.69025  0.76690  0.63919  1.0000
  H   H1292     1.0  0.61954  0.72920  0.59991  1.0000
  H   H1293     1.0  0.71489  0.78343  0.60668  1.0000
  H   H1294     1.0  0.64525  0.74512  0.56840  1.0000
  H   H1295     1.0  0.69263  0.77296  0.57128  1.0000
  C   C1089     1.0  0.60836  0.92822  0.69924  1.0000
  N   N73       1.0  0.77587  0.70463  0.54235  1.0000
  C   C1090     1.0  0.80322  0.72253  0.53681  1.0000
  C   C1091     1.0  0.77473  0.69890  0.56545  1.0000
  C   C1092     1.0  0.76599  0.67865  0.53023  1.0000
  C   C1093     1.0  0.76134  0.71813  0.53769  1.0000
  C   C1094     1.0  0.73985  0.70707  0.52304  1.0000
  C   C1095     1.0  0.76881  0.74342  0.54776  1.0000
  C   C1096     1.0  0.72689  0.72067  0.51882  1.0000
  H   H1296     1.0  0.68824  0.62697  0.68039  1.0000
  C   C1097     1.0  0.73500  0.74562  0.52874  1.0000
  H   H1297     1.0  0.57591  0.88603  0.69954  1.0000
  H   H1298     1.0  0.81467  0.71291  0.54008  1.0000
  H   H1299     1.0  0.80480  0.72734  0.51955  1.0000
  H   H1300     1.0  0.78406  0.71763  0.57568  1.0000
  H   H1301     1.0  0.78488  0.68799  0.56936  1.0000
  C   C1098     1.0  0.67352  0.57965  0.74119  1.0000
  H   H1302     1.0  0.60115  0.60034  0.74011  1.0000
  H   H1303     1.0  0.77749  0.66917  0.53405  1.0000
  H   H1304     1.0  0.79686  0.97642  0.52371  1.0000
  H   H1305     1.0  0.88954  0.49506  0.74328  1.0000
  H   H1306     1.0  0.78507  0.75326  0.55892  1.0000
  H   H1307     1.0  0.59063  0.58906  0.68090  1.0000
  H   H1308     1.0  0.78443  0.49572  0.68743  1.0000
  C   C1099     1.0  0.98520  0.74222  0.55358  1.0000
  H   H1309     1.0  0.68667  0.58390  0.67450  1.0000
  H   H1310     1.0  0.61205  0.62058  0.69493  1.0000
  H   H1311     1.0  0.53025  0.71842  0.58007  1.0000
  C   C1100     1.0  0.59486  0.90012  0.69379  1.0000
  C   C1101     1.0  0.55345  0.82635  0.73052  1.0000
  H   H1312     1.0  0.61862  0.98080  0.70054  1.0000
  H   H1313     1.0  0.72567  0.75668  0.52465  1.0000
  H   H1314     1.0  0.71106  0.71238  0.50712  1.0000
  H   H1315     1.0  0.68321  0.52441  0.71470  1.0000
  H   H1316     1.0  0.58066  0.59911  0.70451  1.0000
  C   C1102     1.0  0.50330  0.71538  0.61507  1.0000
  H   H1317     1.0  0.64535  0.96556  0.69545  1.0000
  H   H1318     1.0  0.89078  0.58306  0.70014  1.0000
  H   H1319     1.0  0.63329  0.96742  0.73098  1.0000
  C   C1103     1.0  0.65028  0.60833  0.69359  1.0000
  C   C1104     1.0  0.59858  0.96384  0.70283  1.0000
  H   H1320     1.0  0.58833  0.95768  0.68696  1.0000
  H   H1321     1.0  0.50211  0.68574  0.58176  1.0000
  C   C1105     1.0  0.95939  0.73471  0.55529  1.0000
  H   H1322     1.0  0.58967  0.54681  0.72618  1.0000
  H   H1323     1.0  0.74380  0.52642  0.57459  1.0000
  C   C1106     1.0  0.67018  0.58393  0.68093  1.0000
  C   C1107     1.0  0.84235  0.56006  0.73537  1.0000
  C   C1108     1.0  0.62792  0.58405  0.69967  1.0000
  H   H1324     1.0  0.53825  0.80713  0.72383  1.0000
  N   N74       1.0  0.92275  0.74256  0.54926  1.0000
  C   C1109     1.0  0.91493  0.73756  0.57187  1.0000
  C   C1110     1.0  0.91659  0.76259  0.54126  1.0000
  C   C1111     1.0  0.90679  0.71716  0.53651  1.0000
  C   C1112     1.0  0.95034  0.75133  0.54768  1.0000
  C   C1113     1.0  0.96878  0.77593  0.53829  1.0000
  H   H1325     1.0  0.82265  0.55518  0.73662  1.0000
  N   N75       1.0  0.59763  0.94057  0.71329  1.0000
  H   H1326     1.0  0.63933  0.89638  0.66402  1.0000
  H   H1327     1.0  0.61770  0.87110  0.72730  1.0000
  H   H1328     1.0  0.92728  0.75584  0.58223  1.0000
  H   H1329     1.0  0.89444  0.73176  0.57364  1.0000
  H   H1330     1.0  0.91623  0.72064  0.57847  1.0000
  H   H1331     1.0  0.92780  0.78225  0.55028  1.0000
  H   H1332     1.0  0.89579  0.75552  0.54290  1.0000
  H   H1333     1.0  0.92054  0.76611  0.52391  1.0000
  H   H1334     1.0  0.90899  0.70041  0.54215  1.0000
  H   H1335     1.0  0.88590  0.70992  0.53731  1.0000
  H   H1336     1.0  0.91200  0.72017  0.51941  1.0000
  C   C1114     1.0  0.76909  0.94476  0.50208  1.0000
  H   H1337     1.0  0.77820  0.52793  0.59261  1.0000
  H   H1338     1.0  0.76261  0.77684  0.55026  1.0000
  H   H1339     1.0  0.65218  0.62771  0.69644  1.0000
  C   C1115     1.0  0.61666  0.59994  0.73111  1.0000
  C   C1116     1.0  0.89370  0.57303  0.73271  1.0000
  C   C1117     1.0  0.64851  0.55975  0.68660  1.0000
  H   H1340     1.0  0.80657  0.80137  0.50578  1.0000
  S   S286      1.0  0.76331  0.80691  0.49612  1.0000
  H   H1341     1.0  0.84056  0.50210  0.66180  1.0000
  C   C1118     1.0  0.62770  0.55965  0.69596  1.0000
  H   H1342     1.0  0.52439  0.72562  0.61831  1.0000
  H   H1343     1.0  0.59552  0.86741  0.67751  1.0000
  H   H1344     1.0  0.50372  0.75802  0.59998  1.0000
  H   H1345     1.0  0.81289  0.74199  0.54608  1.0000
  H   H1346     1.0  0.63215  0.62134  0.72922  1.0000
  H   H1347     1.0  0.98095  0.72590  0.49835  1.0000
  H   H1348     1.0  0.62483  0.59041  0.74121  1.0000
  H   H1349     1.0  0.80919  0.51703  0.70638  1.0000
  H   H1350     1.0  0.77624  0.49980  0.60499  1.0000
  H   H1351     1.0  0.77835  0.50211  0.57636  1.0000
  C   C1119     1.0  0.78960  0.99339  0.49605  1.0000
  C   C1120     1.0  0.65446  0.55243  0.74317  1.0000
  C   C1121     1.0  0.79845  0.49616  0.69933  1.0000
  H   H1352     1.0  0.62224  0.68987  0.71893  1.0000
  C   C1122     1.0  0.59630  0.65556  0.73751  1.0000
  H   H1353     1.0  0.64361  0.51154  0.73482  1.0000
  C   C1123     1.0  0.85562  0.49770  0.74044  1.0000
  H   H1354     1.0  0.82306  0.50074  0.73384  1.0000
  C   C1124     1.0  0.83644  0.49611  0.72674  1.0000
  C   C1125     1.0  0.65822  0.53266  0.73348  1.0000
  C   C1126     1.0  0.57091  0.63891  0.74398  1.0000
  S   S287      1.0  0.86414  0.67748  0.49444  1.0000
  H   H1355     1.0  0.61118  0.65210  0.74327  1.0000
  Fe  Fe142     1.0  0.93753  0.56860  0.78131  1.0000
  S   S288      1.0  0.94048  0.54455  0.80799  1.0000
  S   S289      1.0  0.89611  0.55908  0.77489  1.0000
  H   H1356     1.0  0.68227  0.59075  0.84367  1.0000
  Fe  Fe143     1.0  0.97077  0.54285  0.78885  1.0000
  C   C1127     1.0  0.96856  0.65735  0.88463  1.0000
  C   C1128     1.0  0.98126  0.83016  0.98597  1.0000
  H   H1357     1.0  0.60783  0.89508  0.75527  1.0000
  S   S290      1.0  0.96610  0.56495  0.76115  1.0000
  S   S291      1.0  0.96799  0.60841  0.79643  1.0000
  Fe  Fe144     1.0  0.56003  0.54127  0.80621  1.0000
  S   S292      1.0  0.56708  0.54958  0.77135  1.0000
  C   C1129     1.0  0.90585  0.57930  0.88105  1.0000
  Fe  Fe145     1.0  0.61281  0.59282  0.81975  1.0000
  S   S293      1.0  0.62242  0.60463  0.78520  1.0000
  S   S294      1.0  0.64605  0.62072  0.84376  1.0000
  Fe  Fe146     1.0  0.58100  0.59297  0.78037  1.0000
  S   S295      1.0  0.94285  0.67284  0.98742  1.0000
  Fe  Fe147     1.0  0.60809  0.56072  0.77837  1.0000
  S   S296      1.0  0.62536  0.54177  0.75705  1.0000
  S   S297      1.0  0.57226  0.58439  0.81532  1.0000
  S   S298      1.0  0.60024  0.54923  0.81286  1.0000
  Fe  Fe148     1.0  0.55467  0.96127  0.80454  1.0000
  S   S299      1.0  0.56405  0.95319  0.77173  1.0000
  C   C1130     1.0  0.72542  0.60735  0.79119  1.0000
  Fe  Fe149     1.0  0.60523  0.96670  0.82421  1.0000
  S   S300      1.0  0.61777  0.95941  0.79209  1.0000
  S   S301      1.0  0.62388  0.97178  0.85813  1.0000
  Fe  Fe150     1.0  0.57619  0.92634  0.78644  1.0000
  S   S302      1.0  0.55875  0.88250  0.77414  1.0000
  S   S303      1.0  0.56429  0.93209  0.81904  1.0000
  Fe  Fe151     1.0  0.97086  0.69207  0.96033  1.0000
  S   S304      1.0  0.96856  0.72980  0.96214  1.0000
  H   H1358     1.0  0.91483  0.58185  0.91481  1.0000
  H   H1359     1.0  0.97747  0.59989  0.90433  1.0000
  H   H1360     1.0  0.68634  0.61680  0.80063  1.0000
  H   H1361     1.0  0.75341  0.58888  0.75330  1.0000
  Fe  Fe152     1.0  0.70770  0.68511  0.96543  1.0000
  S   S305      1.0  0.74524  0.72378  0.95915  1.0000
  S   S306      1.0  0.67339  0.65272  0.94418  1.0000
  H   H1362     1.0  0.52731  0.56571  0.78491  1.0000
  H   H1363     1.0  0.68209  0.93906  0.87974  1.0000
  H   H1364     1.0  0.87027  0.59242  0.83015  1.0000
  C   C1131     1.0  0.53860  0.59265  0.86063  1.0000
  H   H1365     1.0  0.71077  0.61456  0.83104  1.0000
  H   H1366     1.0  0.49909  0.53410  0.83328  1.0000
  Fe  Fe153     1.0  0.70659  0.95137  0.96038  1.0000
  S   S307      1.0  0.74054  0.94552  0.96350  1.0000
  S   S308      1.0  0.69108  0.94780  0.92542  1.0000
  C   C1132     1.0  0.62712  0.59168  0.98433  1.0000
  C   C1133     1.0  0.49415  0.98151  0.79252  1.0000
  H   H1367     1.0  0.88199  0.53845  0.84873  1.0000
  C   C1134     1.0  0.86926  0.70940  0.97169  1.0000
  H   H1368     1.0  0.52679  0.61714  0.81631  1.0000
  H   H1369     1.0  0.91638  0.55840  0.84457  1.0000
  C   C1135     1.0  0.56719  0.86562  0.75478  1.0000
  H   H1370     1.0  0.56137  0.88746  0.84523  1.0000
  C   C1136     1.0  0.96998  0.63966  0.86959  1.0000
  H   H1371     1.0  0.67096  0.59521  0.74823  1.0000
  C   C1137     1.0  0.85535  0.55738  0.75319  1.0000
  H   H1372     1.0  0.70678  0.58282  0.83845  1.0000
  H   H1373     1.0  0.63268  0.88501  0.91264  1.0000
  C   C1138     1.0  0.64455  0.97256  0.89828  1.0000
  H   H1374     1.0  0.61164  0.91082  0.90521  1.0000
  H   H1375     1.0  0.93647  0.60467  0.83432  1.0000
  C   C1139     1.0  0.64328  0.96549  0.87640  1.0000
  S   S309      1.0  0.52396  0.50478  0.82038  1.0000
  C   C1140     1.0  0.65903  0.96748  0.91343  1.0000
  C   C1141     1.0  0.67261  0.95518  0.90700  1.0000
  C   C1142     1.0  0.67167  0.94848  0.88506  1.0000
  C   C1143     1.0  0.65719  0.95356  0.86991  1.0000
  H   H1376     1.0  0.91103  0.62164  0.92185  1.0000
  C   C1144     1.0  0.97298  0.61856  0.87647  1.0000
  H   H1377     1.0  0.63563  0.59961  0.96847  1.0000
  C   C1145     1.0  0.93662  0.79087  0.97996  1.0000
  C   C1146     1.0  0.65292  0.62941  0.87181  1.0000
  C   C1147     1.0  0.63477  0.61578  0.88753  1.0000
  C   C1148     1.0  0.64141  0.62325  0.90944  1.0000
  C   C1149     1.0  0.66623  0.64452  0.91610  1.0000
  C   C1150     1.0  0.68434  0.65816  0.90037  1.0000
  C   C1151     1.0  0.67774  0.65060  0.87848  1.0000
  H   H1378     1.0  0.61563  0.59943  0.88283  1.0000
  H   H1379     1.0  0.62716  0.61246  0.92132  1.0000
  H   H1380     1.0  0.70349  0.67453  0.90506  1.0000
  H   H1381     1.0  0.69202  0.66141  0.86660  1.0000
  H   H1382     1.0  0.92480  0.76866  0.97635  1.0000
  H   H1383     1.0  0.90057  0.64218  0.89232  1.0000
  H   H1384     1.0  0.62190  0.57024  0.98474  1.0000
  C   C1152     1.0  0.97502  0.61595  0.89867  1.0000
  H   H1385     1.0  0.91519  0.59397  0.81128  1.0000
  H   H1386     1.0  0.59252  0.90807  0.87013  1.0000
  C   C1153     1.0  0.69660  0.59255  0.83181  1.0000
  H   H1387     1.0  0.65674  0.94811  0.85324  1.0000
  H   H1388     1.0  0.55013  0.59989  0.87535  1.0000
  C   C1154     1.0  0.90142  0.62422  0.88913  1.0000
  H   H1389     1.0  0.95081  0.83973  0.98876  1.0000
  H   H1390     1.0  0.91811  0.62017  0.82868  1.0000
  H   H1391     1.0  0.90883  0.56260  0.87905  1.0000
  C   C1155     1.0  0.83124  0.71169  0.98201  1.0000
  C   C1156     1.0  0.89767  0.61341  0.86831  1.0000
  C   C1157     1.0  0.90939  0.59019  0.90183  1.0000
  H   H1392     1.0  0.60526  0.92058  0.83481  1.0000
  C   C1158     1.0  0.89968  0.59053  0.86360  1.0000
  H   H1393     1.0  0.89382  0.62357  0.85584  1.0000
  C   C1159     1.0  0.97044  0.65463  0.90683  1.0000
  C   C1160     1.0  0.89723  0.55491  0.83928  1.0000
  H   H1394     1.0  0.51509  0.59967  0.78284  1.0000
  N   N76       1.0  0.89644  0.58003  0.84128  1.0000
  C   C1161     1.0  0.91742  0.60067  0.82836  1.0000
  H   H1395     1.0  0.86792  0.56477  0.81541  1.0000
  C   C1162     1.0  0.84593  0.70834  0.96633  1.0000
  S   S310      1.0  0.96782  0.67744  0.92495  1.0000
  Fe  Fe154     1.0  0.60522  0.98715  0.77898  1.0000
  H   H1396     1.0  0.84535  0.55020  0.76798  1.0000
  H   H1397     1.0  0.89418  0.54726  0.82235  1.0000
  Fe  Fe155     1.0  0.94264  0.71176  0.99006  1.0000
  H   H1398     1.0  0.61354  0.85006  0.84955  1.0000
  Fe  Fe156     1.0  0.75816  0.98110  0.98729  1.0000
  C   C1163     1.0  0.87133  0.57400  0.83186  1.0000
  H   H1399     1.0  0.50660  0.53393  0.79649  1.0000
  H   H1400     1.0  0.71555  0.54413  0.76011  1.0000
  H   H1401     1.0  0.96607  0.67339  0.87902  1.0000
  C   C1164     1.0  0.54781  0.84037  0.74608  1.0000
  S   S311      1.0  0.51493  0.95450  0.81411  1.0000
  Fe  Fe157     1.0  0.97231  0.58460  0.82211  1.0000
  C   C1165     1.0  0.50681  0.55070  0.78807  1.0000
  H   H1402     1.0  0.85507  0.55971  0.84184  1.0000
  H   H1403     1.0  0.83910  0.70476  0.94984  1.0000
  S   S312      1.0  0.68601  0.92244  0.98675  1.0000
  H   H1404     1.0  0.63312  0.85459  0.88467  1.0000
  N   N77       1.0  0.49512  0.56318  0.80079  1.0000
  S   S313      1.0  0.74630  0.78706  0.98887  1.0000
  H   H1405     1.0  0.97085  0.80736  0.94727  1.0000
  S   S314      1.0  0.97453  0.59505  0.85831  1.0000
  C   C1166     1.0  0.74564  0.85780  0.98887  1.0000
  H   H1406     1.0  0.96895  0.64261  0.85275  1.0000
  H   H1407     1.0  0.51164  0.99119  0.78356  1.0000
  H   H1408     1.0  0.72866  0.62571  0.79893  1.0000
  C   C1167     1.0  0.90723  0.61261  0.90586  1.0000
  C   C1168     1.0  0.75304  0.83831  0.98732  1.0000
  C   C1169     1.0  0.52489  0.60178  0.82691  1.0000
  S   S315      1.0  0.80171  0.71011  0.97406  1.0000
  H   H1409     1.0  0.95819  0.77304  0.95475  1.0000
  C   C1170     1.0  0.49117  0.96340  0.80835  1.0000
  H   H1410     1.0  0.87996  0.70659  0.95932  1.0000
  N   N78       1.0  0.68406  0.58012  0.81070  1.0000
  C   C1171     1.0  0.67217  0.59489  0.80217  1.0000
  C   C1172     1.0  0.66291  0.55196  0.81439  1.0000
  C   C1173     1.0  0.70333  0.58190  0.79553  1.0000
  C   C1174     1.0  0.70032  0.55904  0.78395  1.0000
  C   C1175     1.0  0.71853  0.56166  0.76924  1.0000
  C   C1176     1.0  0.73993  0.58692  0.76535  1.0000
  H   H1411     1.0  0.66291  0.58651  0.78617  1.0000
  H   H1412     1.0  0.65707  0.59340  0.81283  1.0000
  H   H1413     1.0  0.67054  0.53951  0.82052  1.0000
  H   H1414     1.0  0.65105  0.54207  0.79951  1.0000
  H   H1415     1.0  0.64928  0.55129  0.82643  1.0000
  H   H1416     1.0  0.68373  0.53898  0.78547  1.0000
  H   H1417     1.0  0.85653  0.50349  0.75717  1.0000
  H   H1418     1.0  0.75986  0.62940  0.77294  1.0000
  N   N79       1.0  0.58942  0.87750  0.83474  1.0000
  C   C1177     1.0  0.58880  0.85703  0.81967  1.0000
  C   C1178     1.0  0.56255  0.87143  0.83629  1.0000
  C   C1179     1.0  0.60539  0.90430  0.82525  1.0000
  C   C1180     1.0  0.60023  0.87813  0.85627  1.0000
  C   C1181     1.0  0.60019  0.89516  0.87285  1.0000
  C   C1182     1.0  0.61223  0.86326  0.86115  1.0000
  C   C1183     1.0  0.61127  0.89706  0.89303  1.0000
  C   C1184     1.0  0.62356  0.86560  0.88136  1.0000
  C   C1185     1.0  0.62318  0.88255  0.89722  1.0000
  H   H1419     1.0  0.57732  0.83633  0.82597  1.0000
  H   H1420     1.0  0.57975  0.85659  0.80388  1.0000
  H   H1421     1.0  0.60855  0.86155  0.81616  1.0000
  H   H1422     1.0  0.55022  0.85206  0.84438  1.0000
  H   H1423     1.0  0.55358  0.86981  0.82021  1.0000
  C   C1186     1.0  0.74339  0.60973  0.77632  1.0000
  H   H1424     1.0  0.62588  0.90997  0.82431  1.0000
  H   H1425     1.0  0.59832  0.90459  0.80881  1.0000
  N   N80       1.0  0.96468  0.80085  0.98095  1.0000
  H   H1426     1.0  0.75951  0.87878  0.98596  1.0000
  Fe  Fe158     1.0  0.76439  0.70998  0.98305  1.0000
  C   C1187     1.0  0.49522  0.58435  0.78768  1.0000
  H   H1427     1.0  0.97533  0.63131  0.93066  1.0000
  S   S316      1.0  0.72476  0.98766  0.98316  1.0000
  Fe  Fe159     1.0  0.72102  0.91846  0.99116  1.0000
  H   H1428     1.0  0.49661  0.54238  0.77235  1.0000
  C   C1188     1.0  0.73544  0.81069  0.99076  1.0000
  C   C1189     1.0  0.50957  0.57370  0.82147  1.0000
  H   H1429     1.0  0.65700  0.64518  0.98664  1.0000
  H   H1430     1.0  0.55104  0.63245  0.84992  1.0000
  H   H1431     1.0  0.93173  0.80067  0.96717  1.0000
  H   H1432     1.0  0.77260  0.84471  0.98318  1.0000
  S   S317      1.0  0.72716  0.67054  0.98781  1.0000
  H   H1433     1.0  0.74349  0.98925  0.92853  1.0000
  H   H1434     1.0  0.65949  0.97294  0.93012  1.0000
  C   C1190     1.0  0.88110  0.56381  0.75200  1.0000
  H   H1435     1.0  0.52401  0.55081  0.86665  1.0000
  Fe  Fe160     1.0  0.73623  0.74231  0.98752  1.0000
  C   C1191     1.0  0.53908  0.61095  0.84626  1.0000
  S   S318      1.0  0.97076  0.50413  0.77868  1.0000
  C   C1192     1.0  0.97157  0.79451  0.95991  1.0000
  S   S319      1.0  0.69755  0.70440  0.99238  1.0000
  C   C1193     1.0  0.52384  0.56506  0.85577  1.0000
  C   C1194     1.0  0.98761  0.87487  0.99419  1.0000
  S   S320      1.0  0.56144  0.61103  0.76097  1.0000
  H   H1436     1.0  0.52820  0.83165  0.75125  1.0000
  C   C1195     1.0  0.59248  0.87636  0.74812  1.0000
  C   C1196     1.0  0.87859  0.71403  0.99293  1.0000
  C   C1197     1.0  0.50951  0.55566  0.83654  1.0000
  C   C1198     1.0  0.97385  0.63383  0.91372  1.0000
  H   H1437     1.0  0.60909  0.59213  0.98445  1.0000
  H   H1438     1.0  0.67728  0.61829  0.98170  1.0000
  H   H1439     1.0  0.63404  0.98189  0.90362  1.0000
  C   C1199     1.0  0.97122  0.84722  0.98951  1.0000
  H   H1440     1.0  0.60485  0.95814  0.74508  1.0000
  C   C1200     1.0  0.72045  0.85018  0.99424  1.0000
