data_image0
_chemical_formula_structural       SHC6HCSFeHSH2C6HFeH5SHCHSH2S2FeSC6H4SFeSC6H2SFeHSFeNH5CHSHNH3NHCSH3CH2CHC2FeHC2H3C2H2SCNC5H7CHCHNHCH3CH4CHC2HNC4H6FeHSCH4SHCH8CHCHC2H6SFe2H2SH3C4H5FeH2SH4CSH2FeH4C2HSH2SH3FeSHFeSCFeS2C6H4FeS2C4SH5SH3CSH2CH3NC4SCH9NHSHSH2C3NCHC6HCH4NHCH2C2H2CHNC4SNH2CSH6CH4SC2HCHSHC7H2SFeNSH2C6HFeH3FeHSC2HSH2S2FeSC6H4SFeSC6H2SFeHSFeH4SHCHCHSCNH2SCHCSHC2H5SHFeH6CH3SHNC5H2CH2CH2C2HNHSCHSCH4CH4NC4H3CH5NC2H2CH3CH8SH4FeHFeS2H3CFeCSCSHCH2C3HCHSHFe2S2H2CSCSH3CH2SC2H3SH4FeSCFeSHFeS2C6H4FeS2C4SCH2C2H6CHNH4NC4H4C2H5NC5H2CHNCHC2H10NH3CH5CNC4HSH4CHCH6SCH2CHSC8H4S3HFeHFeSC2SH2SCSFeHSC6H4SH2SFeSC6H4S2H2FeHFeC2HSH3Fe2HFeHFe2H2C4H6SFeS2NC4H2CH2SCHSH2NC4HFeHC2H7NC4H2SHCH9SHNC3SH6C2SH4FeCSFeH2FeCH2SHS2H2S2H2FeSC6H4SCSHFeHFeHFeSH2SHS2HSFe2SC6H5FeC6HSH2FeH3CH2FeCH2FeH2SHSC4H3FeHCNC4H2CH3CHFeHSH2NC4HFeH4CFeH4SH2NC4H2S2H3CHSHNC3H3SH4C3HCFeH2C6H4SCH2FeHFeSH2SH2SCSFeHSC6H4SH3FeSC6H4SHSHFeHFeHCHSH2CFe2HFeHFeCH3C4H5SFeHSNC4SH4SHSCHSNC4H5CSH2C2H2NC4HSH3CH4SFeH3SNC4H2SHCFeCH3FeHFeS2FeH2CS4H2SH3FeSC6H4SHSFe2HFeHFeSH2SH2SFeSFe2SC6H7C6H4FeH7SHFeH2SCHC4H3CH2SNC5H7CSHCHNC4FeH8SH2SCNC4SH2SH2FeCH3NC3HSHCFeCHC2H2C2FeS2CH2CHFeSHFeSHFeS2C6H4FeS2C6H2CH4S2H7FeHCHSHSC5H9CH2CFeHFeH2SHCHC3HNCH2CSHCNCS2H2SH4NC4H8CH2NCHC2H2SH3CSH2NC4H2C2H7NH5CH2CHSCFeH2S2CSFeH4CH2SFeSC6H4SFeSC6H2SFeCSFeH4CHCSNHC6HFeCFe2SH2C7HSH5S2H3SCH3C2HNHC2H6CH5NC4NH13FeHCHNHSCHC2SHCHNSH4S2H3C2HC2H3C2SCH3C3H3C2H8SH2CHSH3C2HC2HFeSCFeS2FeS2C6H4FeS2C4SH3CHSH5SHCHCHFeHCHSCHSC4FeH3CNH4C3H2FeCHSH3C2HCH7C2NCH7SHNC4H7C2H2NCHCH3CH3CSH2NC4H5SH5NH2C2HFeH2SHC3HCSCHSH2SH4CHSFeSC6H4SFeSC6H2SFeHSFeH3C2HCNSH2C6HFeH3CHSC6HSH3FeHSH2SHCH2SHC2H3NHCFeCHCHSH2CH3CNC4H6SNHSH2C2FeCNCH5C2SH2FeNSH5SH2C2H7CH2CHC2H5CSCH2CH8SH3C6H7SH2C6HFeCFeHSH3SH3CH6SFeSC6H4SFeSC6H2SFeHSFeHSHNHFeH2SCSCH3C2H4FeHCH2SH4CSHNC4NCH4CHCHSCNH3SC2H4CNFeH2NC5H2CHCHCH2CHC2SHCSCH3CH2CH3FeH6SH2SHS2HFeH2SH2CHCHCHC2HFeH3SHSH2C3H4CH2CH5CS2CH2CH3NHSH2FeSHFeSHFeS2C6H4FeS2C4H4CHNC4HC2HFeH2S2H2NSHSH3SCHNCHC3H6SH2NHCHCH2C3HNC4HC2H6SH5CH2CSFeSH2CHC6H5FeHSH2C6HFeHFeHSH3SCH3SH2SHCSFeSC6H4SFeSC6H2SFeHSFeHC2HCNSCH3CSH5S2HC2FeH5CH2C2SHNC5H4C3H4NH4C2H4CH4NC4NH3C2NH3CH3CH3SHCH4CH2CH9FeC2SH2CHCHSH3CFeCFeHSHCHC4H3SCH16SH3SC2FeSHFeSHFeS2C6H4FeS2C4H4CH2NC4H2SCH4FeHSNHSH2CHC2HNC4HSC2H3CHCNH2NHCSH4NC4HSH2CFeH5S2H10S2HCH2SFeHS2FeH6C3FeH3FeH2CS2HSH2CHC6H5SH2FeHFeSHCSH2S2Fe2HSC6H4SH3FeSC6H4SHFeHFeHNC4HCH4CH3SNC5SH3CH2CH2FeNC6HFeHCHS2CH2C2SHNCHC2H4SHS2HCHFeSHCFeH3Fe2SHCH2C3H7Fe2SCHC6HSH2SCSHFeHSHS2H4SHCHFeSC6H4SH2CFe2HCFeS2HSFe3HSFeHSC6H6NC4H3NHSCH3C2HNC4H4SH2FeH3S2HSNC4SCH5CH4C2H3SH2CHC2HCHC2HFe2HCSH2SHFeH3FeSC4H4FeHCHSH2SHS3C6HCH4CHFeHFeSH2SH2S2Fe3SC6H4SCHSFeSC6H4SFe2HFeSNC4H2CH2FeHFeSH2NC4SH3SH7CNC4HCH9CH2SHNC2H3FeC2H5SC3H2CS2HFeHSC2FeHC3H5CHCHSFeHSC6HSH2SH2FeHCHS2H3S2HC2FeSC6H4SCSHFeHFeHFeS2HSFe3HSFeHSC6H4CH2NC4H11CHNC4H2SFeCH2SHCH2SHNC4H7CH2SNFeH3SH2C2SC2H2FeC2HCH4CH7FeH2SHCHC2HSH4FeH2S2HCHC4HCH2FeSHFeSCFeS2C6H4FeS2C4HCH5CHSH2S2NHCHSH3NCH4SCH2CNC4H7CH2SNCSC3H2SH2CH2CNC4H2CH3CHCH2NH2CHCH4CH4FeSH2CSNHC6HFeH9NH4C6HSHFeHS2FeSC6H4SFeSC6H2SFeHSFeH2CHCSCHSH7C2SHNC2H3CHC2H4NHNC4FeHCH2C2H6CFeC2HC4H3SH3NSCHCHCSH6CH4C2H2CH3CSHCS2HSH3CHCH8SCHCH3SH7CFeC2SH2SC2H4CHFeH3SH3C4H3CFeSHFeSHFeS2C6H4FeS2C5H4SHSHSH3FeHSC3HCH2NCH2SH4CHNC4HCH2SH2CHC2NH2C2HNH2SHCHCHNC4H3FeH3CH2CNHCH5CHS2H4CSH3C6HFeH3FeHSH4CHSHSC6HSHFeHSFeSC6H4SFeSC6H2SFeCSFeH2C5H3CH6C4HNHCH3CH2CH3C2HNC4HSCHSHCH7FeHNH4CH3S2HSNSH4CSCHCHCH4CHCHNFeHCH2SCH2NH2SCH9SC2HC
_chemical_formula_sum              "S512 H2048 C1280 Fe256 N128"
_cell_length_a       35.5922
_cell_length_b       35.5894
_cell_length_c       42.0945
_cell_angle_alpha    90
_cell_angle_beta     90
_cell_angle_gamma    90

_space_group_name_H-M_alt    "P 1"
_space_group_IT_number       1

loop_
  _space_group_symop_operation_xyz
  'x, y, z'

loop_
  _atom_site_type_symbol
  _atom_site_label
  _atom_site_symmetry_multiplicity
  _atom_site_fract_x
  _atom_site_fract_y
  _atom_site_fract_z
  _atom_site_occupancy
  S   S1        1.0  0.24808  0.32977  0.03400  1.0000
  H   H1        1.0  0.02832  0.10737  0.15758  1.0000
  C   C1        1.0  0.09128  0.10401  0.21882  1.0000
  C   C2        1.0  0.05701  0.10942  0.20299  1.0000
  C   C3        1.0  0.05464  0.10329  0.16997  1.0000
  C   C4        1.0  0.08642  0.09117  0.15317  1.0000
  C   C5        1.0  0.12028  0.08559  0.16923  1.0000
  C   C6        1.0  0.12280  0.09227  0.20185  1.0000
  H   H2        1.0  0.03260  0.11858  0.21608  1.0000
  C   C7        1.0  0.07226  0.31008  0.03422  1.0000
  S   S2        1.0  0.20421  0.03967  0.24640  1.0000
  Fe  Fe1       1.0  0.02657  0.16409  0.03073  1.0000
  H   H3        1.0  0.05910  0.28946  0.01769  1.0000
  S   S3        1.0  0.02767  0.16934  0.08394  1.0000
  H   H4        1.0  0.11491  0.23028  0.14162  1.0000
  H   H5        1.0  0.21940  0.01956  0.04904  1.0000
  C   C8        1.0  0.41293  0.14762  0.22256  1.0000
  C   C9        1.0  0.44873  0.15111  0.20902  1.0000
  C   C10       1.0  0.45238  0.15980  0.17652  1.0000
  C   C11       1.0  0.42015  0.16539  0.15798  1.0000
  C   C12       1.0  0.38467  0.16138  0.17157  1.0000
  C   C13       1.0  0.38111  0.15238  0.20369  1.0000
  H   H6        1.0  0.47345  0.14728  0.22351  1.0000
  Fe  Fe2       1.0  0.03988  0.10770  0.08315  1.0000
  H   H7        1.0  0.35981  0.16487  0.15714  1.0000
  H   H8        1.0  0.35354  0.14940  0.21399  1.0000
  H   H9        1.0  0.19224  0.05818  0.03387  1.0000
  H   H10       1.0  0.35579  0.23472  0.15063  1.0000
  H   H11       1.0  0.05663  0.24524  0.06078  1.0000
  S   S4        1.0  0.47711  0.08941  0.09280  1.0000
  H   H12       1.0  0.14801  0.03201  0.11125  1.0000
  C   C14       1.0  0.22848  0.25038  0.17015  1.0000
  H   H13       1.0  0.34729  0.27881  0.09680  1.0000
  S   S5        1.0  0.46292  0.15301  0.03702  1.0000
  H   H14       1.0  0.40640  0.24236  0.18958  1.0000
  H   H15       1.0  0.16449  0.01712  0.18801  1.0000
  S   S6        1.0  0.30440  0.20258  0.24325  1.0000
  S   S7        1.0  0.22765  0.08121  0.16370  1.0000
  Fe  Fe3       1.0  0.21642  0.14302  0.16657  1.0000
  S   S8        1.0  0.17015  0.17215  0.14026  1.0000
  C   C15       1.0  0.15845  0.14122  0.03572  1.0000
  C   C16       1.0  0.19317  0.13647  0.05084  1.0000
  C   C17       1.0  0.19726  0.14583  0.08313  1.0000
  C   C18       1.0  0.16673  0.16070  0.09992  1.0000
  C   C19       1.0  0.13264  0.16685  0.08437  1.0000
  C   C20       1.0  0.12841  0.15683  0.05244  1.0000
  H   H16       1.0  0.21642  0.12467  0.03785  1.0000
  H   H17       1.0  0.22383  0.14162  0.09505  1.0000
  H   H18       1.0  0.10901  0.17801  0.09740  1.0000
  H   H19       1.0  0.10173  0.16098  0.04076  1.0000
  S   S9        1.0  0.21452  0.14485  0.21979  1.0000
  Fe  Fe4       1.0  0.28830  0.09802  0.16502  1.0000
  S   S10       1.0  0.33420  0.07325  0.13502  1.0000
  C   C21       1.0  0.33945  0.11339  0.03237  1.0000
  C   C22       1.0  0.30445  0.10987  0.04725  1.0000
  C   C23       1.0  0.30235  0.09862  0.07928  1.0000
  C   C24       1.0  0.33535  0.09057  0.09609  1.0000
  C   C25       1.0  0.37009  0.09415  0.08107  1.0000
  C   C26       1.0  0.37210  0.10545  0.04934  1.0000
  H   H20       1.0  0.27922  0.11609  0.03412  1.0000
  H   H21       1.0  0.27535  0.09540  0.09077  1.0000
  S   S11       1.0  0.29310  0.09587  0.21823  1.0000
  Fe  Fe5       1.0  0.27619  0.15628  0.21627  1.0000
  H   H22       1.0  0.28518  0.02235  0.16582  1.0000
  S   S12       1.0  0.27684  0.15968  0.16309  1.0000
  Fe  Fe6       1.0  0.23133  0.08447  0.21693  1.0000
  N   N1        1.0  0.41291  0.02638  0.19355  1.0000
  H   H23       1.0  0.39721  0.29187  0.14967  1.0000
  H   H24       1.0  0.39559  0.08849  0.09409  1.0000
  H   H25       1.0  0.14495  0.07690  0.15624  1.0000
  H   H26       1.0  0.47935  0.22745  0.08704  1.0000
  H   H27       1.0  0.22983  0.22373  0.15800  1.0000
  C   C27       1.0  0.23604  0.28337  0.15355  1.0000
  H   H28       1.0  0.34823  0.19159  0.09736  1.0000
  S   S13       1.0  0.24933  0.27993  0.11355  1.0000
  H   H29       1.0  0.10996  0.27836  0.15482  1.0000
  N   N2        1.0  0.09581  0.29114  0.05835  1.0000
  H   H30       1.0  0.39902  0.10748  0.03775  1.0000
  H   H31       1.0  0.19745  0.03148  0.10246  1.0000
  H   H32       1.0  0.39812  0.06938  0.22704  1.0000
  N   N3        1.0  0.16124  0.01931  0.06267  1.0000
  H   H33       1.0  0.14464  0.28953  0.02840  1.0000
  C   C28       1.0  0.46564  0.25901  0.04522  1.0000
  S   S14       1.0  0.08499  0.08100  0.11248  1.0000
  H   H34       1.0  0.02675  0.02425  0.09080  1.0000
  H   H35       1.0  0.09248  0.29134  0.21080  1.0000
  H   H36       1.0  0.16841  0.07009  0.08979  1.0000
  C   C29       1.0  0.16928  0.03900  0.09284  1.0000
  H   H37       1.0  0.38273  0.28400  0.06662  1.0000
  H   H38       1.0  0.04890  0.32605  0.04545  1.0000
  C   C30       1.0  0.41071  0.00287  0.08863  1.0000
  H   H39       1.0  0.38875  0.24947  0.09710  1.0000
  C   C31       1.0  0.43072  0.05276  0.17091  1.0000
  C   C32       1.0  0.38630  0.25770  0.20522  1.0000
  Fe  Fe7       1.0  0.46762  0.15143  0.09011  1.0000
  H   H40       1.0  0.13123  0.26329  0.22358  1.0000
  C   C33       1.0  0.46388  0.29448  0.03127  1.0000
  C   C34       1.0  0.38487  0.04668  0.21287  1.0000
  H   H41       1.0  0.31482  0.26450  0.15216  1.0000
  H   H42       1.0  0.45614  0.03258  0.22877  1.0000
  H   H43       1.0  0.05131  0.27954  0.09140  1.0000
  C   C35       1.0  0.47385  0.32632  0.04891  1.0000
  C   C36       1.0  0.23377  0.31803  0.16919  1.0000
  H   H44       1.0  0.10200  0.17786  0.17816  1.0000
  H   H45       1.0  0.45873  0.23441  0.03142  1.0000
  S   S15       1.0  0.42297  0.18036  0.11852  1.0000
  C   C37       1.0  0.48834  0.28642  0.09418  1.0000
  N   N4        1.0  0.09513  0.23647  0.18940  1.0000
  C   C38       1.0  0.11796  0.24950  0.16226  1.0000
  C   C39       1.0  0.10104  0.26205  0.21663  1.0000
  C   C40       1.0  0.05498  0.23640  0.18038  1.0000
  C   C41       1.0  0.10663  0.19792  0.19814  1.0000
  C   C42       1.0  0.33117  0.29745  0.20787  1.0000
  H   H46       1.0  0.39683  0.20062  0.05639  1.0000
  H   H47       1.0  0.33358  0.27630  0.02626  1.0000
  H   H48       1.0  0.30952  0.31328  0.19431  1.0000
  H   H49       1.0  0.08451  0.25316  0.23775  1.0000
  H   H50       1.0  0.45155  0.03832  0.15541  1.0000
  H   H51       1.0  0.11539  0.24808  0.02664  1.0000
  H   H52       1.0  0.40960  0.06638  0.15519  1.0000
  C   C43       1.0  0.48563  0.32226  0.08063  1.0000
  H   H53       1.0  0.04514  0.26508  0.17396  1.0000
  C   C44       1.0  0.33669  0.25047  0.16675  1.0000
  H   H54       1.0  0.39142  0.32707  0.17985  1.0000
  N   N5        1.0  0.35758  0.27780  0.18639  1.0000
  H   H55       1.0  0.14932  0.08838  0.21392  1.0000
  C   C45       1.0  0.22422  0.31936  0.20165  1.0000
  H   H56       1.0  0.31580  0.27739  0.22344  1.0000
  H   H57       1.0  0.29816  0.26851  0.05599  1.0000
  H   H58       1.0  0.14843  0.24980  0.16829  1.0000
  C   C46       1.0  0.47784  0.25501  0.07654  1.0000
  H   H59       1.0  0.47992  0.16311  0.16599  1.0000
  H   H60       1.0  0.09046  0.18719  0.21883  1.0000
  H   H61       1.0  0.37318  0.23635  0.22108  1.0000
  H   H62       1.0  0.04968  0.21786  0.15949  1.0000
  C   C47       1.0  0.21632  0.28600  0.21806  1.0000
  H   H63       1.0  0.36997  0.02747  0.22945  1.0000
  C   C48       1.0  0.12659  0.27034  0.04262  1.0000
  C   C49       1.0  0.07241  0.26459  0.07669  1.0000
  H   H64       1.0  0.08964  0.24677  0.09262  1.0000
  N   N6        1.0  0.34775  0.23507  0.06172  1.0000
  C   C50       1.0  0.36742  0.26312  0.08156  1.0000
  C   C51       1.0  0.32002  0.25438  0.04133  1.0000
  C   C52       1.0  0.32816  0.20751  0.08219  1.0000
  C   C53       1.0  0.37548  0.21538  0.04165  1.0000
  H   H65       1.0  0.03692  0.22609  0.20012  1.0000
  H   H66       1.0  0.37157  0.00707  0.16017  1.0000
  H   H67       1.0  0.44575  0.07575  0.18350  1.0000
  H   H68       1.0  0.34223  0.01622  0.06462  1.0000
  H   H69       1.0  0.40284  0.27752  0.22010  1.0000
  H   H70       1.0  0.32198  0.22938  0.18180  1.0000
  Fe  Fe8       1.0  0.47782  0.09208  0.03952  1.0000
  H   H71       1.0  0.36186  0.19374  0.02659  1.0000
  S   S16       1.0  0.44771  0.04728  0.01200  1.0000
  C   C54       1.0  0.44200  0.01030  0.21458  1.0000
  H   H72       1.0  0.14496  0.25592  0.06028  1.0000
  H   H73       1.0  0.03933  0.02073  0.03313  1.0000
  H   H74       1.0  0.13713  0.19648  0.20396  1.0000
  H   H75       1.0  0.30530  0.23418  0.02544  1.0000
  S   S17       1.0  0.04407  0.10369  0.03003  1.0000
  H   H76       1.0  0.21257  0.22590  0.21471  1.0000
  C   C55       1.0  0.21835  0.25167  0.20217  1.0000
  H   H77       1.0  0.11736  0.01771  0.02744  1.0000
  H   H78       1.0  0.36327  0.06019  0.19754  1.0000
  H   H79       1.0  0.37670  0.01903  0.03374  1.0000
  H   H80       1.0  0.30221  0.01552  0.22237  1.0000
  H   H81       1.0  0.39072  0.23530  0.02590  1.0000
  H   H82       1.0  0.31266  0.18637  0.06779  1.0000
  H   H83       1.0  0.30732  0.22134  0.09808  1.0000
  H   H84       1.0  0.34594  0.31792  0.22349  1.0000
  C   C56       1.0  0.19132  0.02764  0.03953  1.0000
  H   H85       1.0  0.12466  0.06313  0.04562  1.0000
  C   C57       1.0  0.37623  0.30555  0.16558  1.0000
  H   H86       1.0  0.42721  0.02248  0.07348  1.0000
  C   C58       1.0  0.11199  0.31959  0.07997  1.0000
  C   C59       1.0  0.12476  0.03221  0.04995  1.0000
  H   H87       1.0  0.13048  0.30640  0.09816  1.0000
  H   H88       1.0  0.35545  0.32071  0.15053  1.0000
  H   H89       1.0  0.18695  0.01215  0.01689  1.0000
  H   H90       1.0  0.39282  0.02025  0.10452  1.0000
  H   H91       1.0  0.10163  0.02636  0.06699  1.0000
  H   H92       1.0  0.08885  0.33036  0.01978  1.0000
  S   S18       1.0  0.05284  0.20955  0.00117  1.0000
  Fe  Fe9       1.0  0.04173  0.12085  0.28458  1.0000
  Fe  Fe10      1.0  0.49478  0.08360  0.34051  1.0000
  H   H93       1.0  0.36510  0.25298  0.34715  1.0000
  H   H94       1.0  0.28726  0.00526  0.45098  1.0000
  S   S19       1.0  0.04328  0.11961  0.33774  1.0000
  H   H95       1.0  0.40896  0.30819  0.34771  1.0000
  H   H96       1.0  0.45558  0.22745  0.30894  1.0000
  H   H97       1.0  0.12192  0.22938  0.45299  1.0000
  C   C60       1.0  0.02937  0.17701  0.44737  1.0000
  C   C61       1.0  0.03962  0.20887  0.46490  1.0000
  C   C62       1.0  0.04027  0.24404  0.45032  1.0000
  C   C63       1.0  0.03085  0.24767  0.41829  1.0000
  H   H98       1.0  0.36626  0.06567  0.35753  1.0000
  H   H99       1.0  0.02910  0.14971  0.45866  1.0000
  H   H100      1.0  0.04748  0.26865  0.46404  1.0000
  H   H101      1.0  0.08325  0.03850  0.48367  1.0000
  H   H102      1.0  0.03151  0.27499  0.40717  1.0000
  Fe  Fe11      1.0  0.45999  0.13113  0.28977  1.0000
  H   H103      1.0  0.19569  0.14800  0.32917  1.0000
  H   H104      1.0  0.44521  0.17887  0.44807  1.0000
  S   S20       1.0  0.45501  0.13209  0.34271  1.0000
  H   H105      1.0  0.31739  0.01619  0.35463  1.0000
  H   H106      1.0  0.35767  0.20187  0.40383  1.0000
  H   H107      1.0  0.11227  0.16568  0.31969  1.0000
  H   H108      1.0  0.32058  0.06542  0.31299  1.0000
  C   C64       1.0  0.46214  0.04186  0.47265  1.0000
  S   S21       1.0  0.40677  0.13657  0.26279  1.0000
  H   H109      1.0  0.10406  0.29547  0.44109  1.0000
  H   H110      1.0  0.14615  0.05182  0.46167  1.0000
  Fe  Fe12      1.0  0.00424  0.16866  0.33388  1.0000
  H   H111      1.0  0.35849  0.06566  0.28501  1.0000
  H   H112      1.0  0.20472  0.29258  0.46404  1.0000
  H   H113      1.0  0.38542  0.25972  0.47284  1.0000
  H   H114      1.0  0.40771  0.01637  0.28794  1.0000
  C   C65       1.0  0.07901  0.05596  0.40451  1.0000
  C   C66       1.0  0.15163  0.23894  0.45532  1.0000
  H   H115      1.0  0.35393  0.22007  0.47325  1.0000
  S   S22       1.0  0.00779  0.17344  0.28099  1.0000
  H   H116      1.0  0.44793  0.27608  0.34994  1.0000
  H   H117      1.0  0.17110  0.23912  0.39370  1.0000
  S   S23       1.0  0.09606  0.11285  0.25959  1.0000
  H   H118      1.0  0.17524  0.20881  0.26008  1.0000
  H   H119      1.0  0.47697  0.10025  0.46750  1.0000
  H   H120      1.0  0.40208  0.02999  0.35963  1.0000
  Fe  Fe13      1.0  0.21367  0.12861  0.46582  1.0000
  S   S24       1.0  0.26019  0.17064  0.46875  1.0000
  H   H121      1.0  0.33818  0.01897  0.41216  1.0000
  Fe  Fe14      1.0  0.29756  0.12022  0.46776  1.0000
  S   S25       1.0  0.25086  0.07831  0.47035  1.0000
  C   C67       1.0  0.21928  0.00221  0.33558  1.0000
  Fe  Fe15      1.0  0.26138  0.16497  0.41586  1.0000
  S   S26       1.0  0.30326  0.11822  0.41484  1.0000
  S   S27       1.0  0.26700  0.21816  0.38878  1.0000
  C   C68       1.0  0.27888  0.21202  0.34877  1.0000
  C   C69       1.0  0.28083  0.17628  0.33491  1.0000
  C   C70       1.0  0.28826  0.17272  0.30218  1.0000
  C   C71       1.0  0.29396  0.20499  0.28372  1.0000
  C   C72       1.0  0.29240  0.24036  0.29783  1.0000
  C   C73       1.0  0.28465  0.24386  0.33017  1.0000
  H   H122      1.0  0.27631  0.15161  0.34929  1.0000
  H   H123      1.0  0.29002  0.14525  0.29128  1.0000
  H   H124      1.0  0.29612  0.26521  0.28348  1.0000
  H   H125      1.0  0.28243  0.27138  0.34069  1.0000
  Fe  Fe16      1.0  0.25291  0.08104  0.41724  1.0000
  S   S28       1.0  0.21109  0.12760  0.41269  1.0000
  S   S29       1.0  0.24919  0.02699  0.39102  1.0000
  C   C74       1.0  0.23634  0.03233  0.35105  1.0000
  C   C75       1.0  0.24370  0.06558  0.33432  1.0000
  C   C76       1.0  0.23467  0.06812  0.30180  1.0000
  C   C77       1.0  0.21724  0.03777  0.28652  1.0000
  S   S30       1.0  0.48598  0.03024  0.36682  1.0000
  H   H126      1.0  0.36628  0.26571  0.27585  1.0000
  H   H127      1.0  0.25708  0.08884  0.34625  1.0000
  H   H128      1.0  0.24089  0.09340  0.28858  1.0000
  H   H129      1.0  0.32284  0.02968  0.28322  1.0000
  H   H130      1.0  0.05172  0.04179  0.39984  1.0000
  S   S31       1.0  0.22527  0.33070  0.33953  1.0000
  H   H131      1.0  0.40926  0.17769  0.47786  1.0000
  H   H132      1.0  0.16800  0.13501  0.29503  1.0000
  H   H133      1.0  0.21868  0.26123  0.43261  1.0000
  C   C78       1.0  0.47958  0.07083  0.42244  1.0000
  S   S32       1.0  0.35077  0.11685  0.49518  1.0000
  H   H134      1.0  0.14289  0.32260  0.33266  1.0000
  H   H135      1.0  0.44132  0.21671  0.47573  1.0000
  C   C79       1.0  0.34028  0.04701  0.29964  1.0000
  H   H136      1.0  0.04353  0.03488  0.45798  1.0000
  H   H137      1.0  0.39838  0.17162  0.40485  1.0000
  H   H138      1.0  0.44129  0.22573  0.40384  1.0000
  N   N7        1.0  0.16407  0.19336  0.30836  1.0000
  C   C80       1.0  0.18542  0.15786  0.30564  1.0000
  C   C81       1.0  0.15109  0.20502  0.27657  1.0000
  C   C82       1.0  0.13126  0.18777  0.32934  1.0000
  C   C83       1.0  0.18856  0.22297  0.32159  1.0000
  S   S33       1.0  0.49503  0.07918  0.28749  1.0000
  C   C84       1.0  0.02090  0.21613  0.40055  1.0000
  H   H139      1.0  0.21045  0.16143  0.29009  1.0000
  H   H140      1.0  0.40439  0.06557  0.32954  1.0000
  H   H141      1.0  0.37007  0.21751  0.31723  1.0000
  H   H142      1.0  0.07305  0.08662  0.40630  1.0000
  H   H143      1.0  0.15306  0.05461  0.41949  1.0000
  H   H144      1.0  0.13590  0.23232  0.27768  1.0000
  H   H145      1.0  0.11444  0.21406  0.33176  1.0000
  H   H146      1.0  0.19970  0.21505  0.34529  1.0000
  H   H147      1.0  0.09240  0.01571  0.30110  1.0000
  N   N8        1.0  0.36263  0.02315  0.32136  1.0000
  H   H148      1.0  0.21309  0.22820  0.30579  1.0000
  S   S34       1.0  0.45380  0.29308  0.49173  1.0000
  H   H149      1.0  0.17351  0.25029  0.32382  1.0000
  S   S35       1.0  0.00831  0.22218  0.36067  1.0000
  H   H150      1.0  0.13220  0.18362  0.26595  1.0000
  H   H151      1.0  0.12908  0.09177  0.44018  1.0000
  C   C85       1.0  0.47334  0.07366  0.45541  1.0000
  C   C86       1.0  0.47524  0.03612  0.40713  1.0000
  C   C87       1.0  0.02030  0.18064  0.41497  1.0000
  N   N9        1.0  0.15926  0.27212  0.43513  1.0000
  C   C88       1.0  0.19876  0.28411  0.43911  1.0000
  H   H152      1.0  0.32170  0.01000  0.48193  1.0000
  C   C89       1.0  0.13407  0.30321  0.44439  1.0000
  C   C90       1.0  0.15247  0.26240  0.40150  1.0000
  C   C91       1.0  0.07122  0.04912  0.46103  1.0000
  C   C92       1.0  0.42860  0.29083  0.33329  1.0000
  C   C93       1.0  0.38476  0.04720  0.34302  1.0000
  C   C94       1.0  0.35753  0.00177  0.42696  1.0000
  H   H153      1.0  0.15653  0.24513  0.48085  1.0000
  C   C95       1.0  0.38260  0.28504  0.29136  1.0000
  H   H154      1.0  0.42108  0.22144  0.27810  1.0000
  H   H155      1.0  0.40448  0.22113  0.34826  1.0000
  H   H156      1.0  0.39516  0.32953  0.40581  1.0000
  H   H157      1.0  0.06578  0.07974  0.46394  1.0000
  N   N10       1.0  0.09649  0.04157  0.43392  1.0000
  H   H158      1.0  0.43677  0.26245  0.43242  1.0000
  C   C96       1.0  0.46377  0.00479  0.42446  1.0000
  H   H159      1.0  0.16994  0.21475  0.44885  1.0000
  H   H160      1.0  0.14004  0.17887  0.35356  1.0000
  C   C97       1.0  0.13282  0.06074  0.43901  1.0000
  C   C98       1.0  0.38604  0.23776  0.33228  1.0000
  H   H161      1.0  0.45209  0.26153  0.27769  1.0000
  H   H162      1.0  0.35166  0.25396  0.44168  1.0000
  C   C99       1.0  0.36987  0.33315  0.41966  1.0000
  H   H163      1.0  0.48841  0.09514  0.40905  1.0000
  N   N11       1.0  0.39881  0.21620  0.43929  1.0000
  C   C100      1.0  0.42054  0.24152  0.41839  1.0000
  C   C101      1.0  0.37863  0.18822  0.41979  1.0000
  C   C102      1.0  0.37123  0.23840  0.45766  1.0000
  C   C103      1.0  0.42467  0.19653  0.46123  1.0000
  S   S36       1.0  0.15920  0.13438  0.49111  1.0000
  N   N12       1.0  0.40814  0.26413  0.31262  1.0000
  H   H164      1.0  0.40182  0.25763  0.40220  1.0000
  H   H165      1.0  0.36323  0.16797  0.43518  1.0000
  C   C104      1.0  0.43542  0.24267  0.29338  1.0000
  S   S37       1.0  0.20224  0.28616  0.25793  1.0000
  H   H166      1.0  0.12268  0.25386  0.39755  1.0000
  H   H167      1.0  0.01254  0.15621  0.40127  1.0000
  H   H168      1.0  0.20540  0.30865  0.42363  1.0000
  H   H169      1.0  0.13899  0.32857  0.42943  1.0000
  H   H170      1.0  0.13813  0.31155  0.46958  1.0000
  H   H171      1.0  0.09750  0.05151  0.38355  1.0000
  C   C105      1.0  0.45692  0.00770  0.45701  1.0000
  H   H172      1.0  0.44588  0.31074  0.31910  1.0000
  H   H173      1.0  0.15779  0.28698  0.38570  1.0000
  H   H174      1.0  0.37223  0.02119  0.44363  1.0000
  H   H175      1.0  0.04317  0.01795  0.31049  1.0000
  S   S38       1.0  0.33370  0.32404  0.36396  1.0000
  C   C106      1.0  0.20919  0.00512  0.30361  1.0000
  C   C107      1.0  0.10280  0.00065  0.43110  1.0000
  H   H176      1.0  0.39829  0.30500  0.27604  1.0000
  C   C108      1.0  0.33492  0.33295  0.40472  1.0000
  H   H177      1.0  0.36195  0.30198  0.30508  1.0000
  S   S39       1.0  0.08414  0.32796  0.37788  1.0000
  H   H178      1.0  0.38838  0.22439  0.52881  1.0000
  C   C109      1.0  0.19627  0.01999  0.55795  1.0000
  C   C110      1.0  0.09168  0.10145  0.71714  1.0000
  C   C111      1.0  0.05648  0.10232  0.70224  1.0000
  C   C112      1.0  0.05354  0.09483  0.66949  1.0000
  C   C113      1.0  0.08582  0.08587  0.65199  1.0000
  C   C114      1.0  0.12069  0.08458  0.66711  1.0000
  C   C115      1.0  0.12364  0.09251  0.69952  1.0000
  H   H179      1.0  0.03171  0.10908  0.71587  1.0000
  H   H180      1.0  0.20935  0.03121  0.53589  1.0000
  S   S40       1.0  0.24406  0.32159  0.53483  1.0000
  Fe  Fe17      1.0  0.02591  0.16048  0.53253  1.0000
  N   N13       1.0  0.15537  0.01433  0.55395  1.0000
  S   S41       1.0  0.02801  0.16421  0.58566  1.0000
  H   H181      1.0  0.05343  0.17757  0.67892  1.0000
  H   H182      1.0  0.02643  0.09545  0.65785  1.0000
  C   C116      1.0  0.40994  0.13790  0.72468  1.0000
  C   C117      1.0  0.44475  0.13470  0.70943  1.0000
  C   C118      1.0  0.44834  0.14489  0.67726  1.0000
  C   C119      1.0  0.41718  0.15884  0.66072  1.0000
  C   C120      1.0  0.38272  0.16254  0.67626  1.0000
  C   C121      1.0  0.37907  0.15190  0.70808  1.0000
  H   H183      1.0  0.46857  0.12375  0.72228  1.0000
  Fe  Fe18      1.0  0.03766  0.10222  0.58383  1.0000
  H   H184      1.0  0.35855  0.17285  0.66347  1.0000
  H   H185      1.0  0.35228  0.15472  0.71986  1.0000
  H   H186      1.0  0.13103  0.22301  0.72525  1.0000
  Fe  Fe19      1.0  0.48144  0.08985  0.54099  1.0000
  H   H187      1.0  0.14819  0.06177  0.52279  1.0000
  S   S42       1.0  0.48048  0.08570  0.59422  1.0000
  C   C122      1.0  0.48290  0.31916  0.58238  1.0000
  C   C123      1.0  0.21887  0.25126  0.67421  1.0000
  H   H188      1.0  0.36273  0.01739  0.72985  1.0000
  S   S43       1.0  0.46299  0.14989  0.53952  1.0000
  H   H189      1.0  0.13430  0.23775  0.65479  1.0000
  H   H190      1.0  0.39781  0.08233  0.59953  1.0000
  S   S44       1.0  0.49518  0.27756  0.63669  1.0000
  S   S45       1.0  0.22834  0.08404  0.66533  1.0000
  Fe  Fe20      1.0  0.21547  0.14544  0.66665  1.0000
  S   S46       1.0  0.16880  0.16968  0.63755  1.0000
  C   C124      1.0  0.16357  0.14374  0.53179  1.0000
  C   C125      1.0  0.19827  0.14146  0.54741  1.0000
  C   C126      1.0  0.20044  0.14838  0.58032  1.0000
  C   C127      1.0  0.16788  0.15798  0.59720  1.0000
  C   C128      1.0  0.13350  0.15999  0.58143  1.0000
  C   C129      1.0  0.13130  0.15272  0.54891  1.0000
  H   H191      1.0  0.22325  0.13445  0.53417  1.0000
  H   H192      1.0  0.22717  0.14715  0.59250  1.0000
  H   H193      1.0  0.10836  0.16671  0.59458  1.0000
  H   H194      1.0  0.10446  0.15413  0.53700  1.0000
  S   S47       1.0  0.21113  0.14866  0.71982  1.0000
  Fe  Fe21      1.0  0.28830  0.10249  0.66804  1.0000
  S   S48       1.0  0.33512  0.07608  0.64034  1.0000
  C   C130      1.0  0.34476  0.10553  0.53541  1.0000
  C   C131      1.0  0.30926  0.10578  0.54980  1.0000
  C   C132      1.0  0.30579  0.09772  0.58244  1.0000
  C   C133      1.0  0.33785  0.08895  0.60030  1.0000
  C   C134      1.0  0.37301  0.08853  0.58570  1.0000
  C   C135      1.0  0.37643  0.09691  0.55344  1.0000
  H   H195      1.0  0.28470  0.11236  0.53587  1.0000
  H   H196      1.0  0.27845  0.09760  0.59367  1.0000
  S   S49       1.0  0.29084  0.10135  0.72135  1.0000
  Fe  Fe22      1.0  0.27267  0.16143  0.71798  1.0000
  H   H197      1.0  0.34643  0.23980  0.65260  1.0000
  S   S50       1.0  0.27551  0.16389  0.66470  1.0000
  Fe  Fe23      1.0  0.22941  0.08858  0.71851  1.0000
  H   H198      1.0  0.05306  0.21273  0.64839  1.0000
  H   H199      1.0  0.38666  0.33101  0.68163  1.0000
  H   H200      1.0  0.09925  0.18347  0.72433  1.0000
  H   H201      1.0  0.14567  0.07849  0.65347  1.0000
  S   S51       1.0  0.04115  0.09967  0.53065  1.0000
  H   H202      1.0  0.29339  0.01769  0.72159  1.0000
  C   C136      1.0  0.22840  0.28213  0.65550  1.0000
  H   H203      1.0  0.19345  0.01139  0.68690  1.0000
  C   C137      1.0  0.46384  0.25568  0.54688  1.0000
  H   H204      1.0  0.38399  0.01453  0.53435  1.0000
  S   S52       1.0  0.23982  0.27469  0.61550  1.0000
  C   C138      1.0  0.22957  0.31806  0.66906  1.0000
  N   N14       1.0  0.10667  0.28556  0.56186  1.0000
  H   H205      1.0  0.07422  0.26606  0.72229  1.0000
  H   H206      1.0  0.02948  0.02447  0.58631  1.0000
  S   S53       1.0  0.45393  0.04333  0.51360  1.0000
  C   C139      1.0  0.08739  0.29393  0.53154  1.0000
  H   H207      1.0  0.15084  0.09182  0.71091  1.0000
  C   C140      1.0  0.46514  0.29072  0.53210  1.0000
  S   S54       1.0  0.08371  0.07449  0.61158  1.0000
  H   H208      1.0  0.43586  0.01374  0.57402  1.0000
  C   C141      1.0  0.48225  0.28369  0.59685  1.0000
  C   C142      1.0  0.22140  0.32284  0.70154  1.0000
  H   H209      1.0  0.28134  0.02243  0.66404  1.0000
  H   H210      1.0  0.13635  0.18694  0.69602  1.0000
  H   H211      1.0  0.39149  0.18984  0.55967  1.0000
  H   H212      1.0  0.09719  0.22624  0.55770  1.0000
  H   H213      1.0  0.05626  0.29351  0.53438  1.0000
  S   S55       1.0  0.00204  0.33001  0.70971  1.0000
  H   H214      1.0  0.31246  0.23695  0.68390  1.0000
  Fe  Fe24      1.0  0.46711  0.14711  0.59270  1.0000
  H   H215      1.0  0.29858  0.26547  0.55894  1.0000
  H   H216      1.0  0.10708  0.24179  0.59719  1.0000
  H   H217      1.0  0.34452  0.18744  0.60221  1.0000
  H   H218      1.0  0.09405  0.26842  0.65295  1.0000
  H   H219      1.0  0.15900  0.30864  0.54571  1.0000
  H   H220      1.0  0.39884  0.24551  0.68942  1.0000
  C   C143      1.0  0.37034  0.31034  0.66733  1.0000
  H   H221      1.0  0.04459  0.22491  0.72124  1.0000
  H   H222      1.0  0.35574  0.18570  0.53012  1.0000
  H   H223      1.0  0.45719  0.23097  0.53315  1.0000
  S   S56       1.0  0.42045  0.17325  0.62105  1.0000
  H   H224      1.0  0.30762  0.27230  0.65407  1.0000
  N   N15       1.0  0.09009  0.22450  0.68769  1.0000
  C   C144      1.0  0.06129  0.24465  0.70637  1.0000
  C   C145      1.0  0.11232  0.25198  0.66926  1.0000
  C   C146      1.0  0.11520  0.20367  0.70940  1.0000
  C   C147      1.0  0.07137  0.19789  0.66580  1.0000
  C   C148      1.0  0.13758  0.05054  0.54571  1.0000
  H   H225      1.0  0.14318  0.07227  0.56420  1.0000
  H   H226      1.0  0.30536  0.21955  0.60217  1.0000
  C   C149      1.0  0.47455  0.32269  0.54981  1.0000
  H   H227      1.0  0.40928  0.05786  0.65898  1.0000
  H   H228      1.0  0.15942  0.01116  0.65582  1.0000
  C   C150      1.0  0.42767  0.03939  0.67362  1.0000
  H   H229      1.0  0.20238  0.04045  0.57736  1.0000
  H   H230      1.0  0.36071  0.05356  0.70035  1.0000
  C   C151      1.0  0.09257  0.24961  0.57477  1.0000
  C   C152      1.0  0.14758  0.28246  0.55639  1.0000
  H   H231      1.0  0.39643  0.05529  0.72997  1.0000
  N   N16       1.0  0.35129  0.28285  0.68815  1.0000
  H   H232      1.0  0.40374  0.09645  0.54238  1.0000
  S   S57       1.0  0.29833  0.20809  0.74656  1.0000
  C   C153      1.0  0.38026  0.03585  0.71454  1.0000
  H   H233      1.0  0.38416  0.27542  0.56729  1.0000
  S   S58       1.0  0.00644  0.28139  0.62907  1.0000
  C   C154      1.0  0.47254  0.25215  0.57906  1.0000
  H   H234      1.0  0.47511  0.14245  0.66532  1.0000
  H   H235      1.0  0.34946  0.27418  0.59825  1.0000
  H   H236      1.0  0.44655  0.02377  0.65720  1.0000
  H   H237      1.0  0.36282  0.00458  0.65850  1.0000
  C   C155      1.0  0.21139  0.29167  0.72003  1.0000
  H   H238      1.0  0.15424  0.25868  0.54017  1.0000
  H   H239      1.0  0.12717  0.27221  0.68512  1.0000
  H   H240      1.0  0.44567  0.05827  0.68816  1.0000
  H   H241      1.0  0.06185  0.25069  0.57947  1.0000
  N   N17       1.0  0.34581  0.22879  0.56481  1.0000
  C   C156      1.0  0.37144  0.20626  0.54485  1.0000
  C   C157      1.0  0.32506  0.20363  0.58664  1.0000
  C   C158      1.0  0.31879  0.24899  0.54435  1.0000
  C   C159      1.0  0.36794  0.25636  0.58324  1.0000
  H   H242      1.0  0.04120  0.25949  0.69045  1.0000
  H   H243      1.0  0.31101  0.28331  0.72640  1.0000
  H   H244      1.0  0.47190  0.22483  0.59014  1.0000
  C   C160      1.0  0.37984  0.26113  0.70585  1.0000
  H   H245      1.0  0.36646  0.23981  0.72157  1.0000
  H   H246      1.0  0.30208  0.22913  0.52959  1.0000
  H   H247      1.0  0.39767  0.27986  0.72066  1.0000
  H   H248      1.0  0.39035  0.29628  0.65080  1.0000
  H   H249      1.0  0.11376  0.31118  0.60770  1.0000
  N   N18       1.0  0.40539  0.01368  0.69385  1.0000
  C   C161      1.0  0.32853  0.25689  0.66869  1.0000
  C   C162      1.0  0.32652  0.30307  0.71063  1.0000
  H   H250      1.0  0.38873  0.24210  0.59892  1.0000
  H   H251      1.0  0.20277  0.23191  0.72058  1.0000
  C   C163      1.0  0.20999  0.25604  0.70626  1.0000
  H   H252      1.0  0.21825  0.22354  0.66388  1.0000
  H   H253      1.0  0.04538  0.01905  0.52940  1.0000
  H   H254      1.0  0.40117  0.01223  0.60475  1.0000
  C   C164      1.0  0.09919  0.31617  0.58472  1.0000
  H   H255      1.0  0.30806  0.18264  0.57334  1.0000
  H   H256      1.0  0.35024  0.01190  0.56580  1.0000
  H   H257      1.0  0.16307  0.27710  0.57898  1.0000
  H   H258      1.0  0.09433  0.27274  0.51307  1.0000
  H   H259      1.0  0.14330  0.02108  0.60340  1.0000
  H   H260      1.0  0.10540  0.00298  0.69000  1.0000
  H   H261      1.0  0.09215  0.18104  0.65209  1.0000
  H   H262      1.0  0.33336  0.26900  0.52810  1.0000
  S   S59       1.0  0.20289  0.04264  0.74716  1.0000
  H   H263      1.0  0.10652  0.04785  0.54402  1.0000
  H   H264      1.0  0.44816  0.00898  0.72965  1.0000
  H   H265      1.0  0.09534  0.32205  0.52209  1.0000
  H   H266      1.0  0.06859  0.31875  0.58972  1.0000
  Fe  Fe25      1.0  0.49877  0.33082  0.66401  1.0000
  H   H267      1.0  0.13665  0.00875  0.72286  1.0000
  Fe  Fe26      1.0  0.24449  0.32748  0.58774  1.0000
  S   S60       1.0  0.49905  0.32576  0.71699  1.0000
  S   S61       1.0  0.05408  0.20573  0.50446  1.0000
  H   H268      1.0  0.34267  0.32272  0.72602  1.0000
  H   H269      1.0  0.30499  0.31999  0.69789  1.0000
  H   H270      1.0  0.34973  0.32658  0.65295  1.0000
  C   C165      1.0  0.13920  0.00030  0.58400  1.0000
  Fe  Fe27      1.0  0.04225  0.11818  0.78279  1.0000
  C   C166      1.0  0.48405  0.03643  0.90870  1.0000
  S   S62       1.0  0.44768  0.29794  0.99222  1.0000
  C   C167      1.0  0.22683  0.00300  0.83398  1.0000
  S   S63       1.0  0.04462  0.11882  0.83590  1.0000
  H   H271      1.0  0.30766  0.06715  0.81043  1.0000
  C   C168      1.0  0.46111  0.00887  0.95759  1.0000
  H   H272      1.0  0.34775  0.22615  0.97172  1.0000
  H   H273      1.0  0.10985  0.27666  0.97221  1.0000
  C   C169      1.0  0.03778  0.21094  0.96159  1.0000
  C   C170      1.0  0.03700  0.24563  0.94619  1.0000
  C   C171      1.0  0.02714  0.24794  0.91416  1.0000
  H   H274      1.0  0.12715  0.26877  0.77920  1.0000
  C   C172      1.0  0.32881  0.05036  0.79713  1.0000
  H   H275      1.0  0.04339  0.27091  0.95923  1.0000
  S   S64       1.0  0.34336  0.12846  0.99284  1.0000
  H   H276      1.0  0.09414  0.21889  0.85098  1.0000
  Fe  Fe28      1.0  0.45832  0.12362  0.79058  1.0000
  Fe  Fe29      1.0  0.00300  0.16562  0.83134  1.0000
  S   S65       1.0  0.09673  0.11246  0.75752  1.0000
  S   S66       1.0  0.45471  0.12523  0.84361  1.0000
  H   H277      1.0  0.05599  0.03555  0.97332  1.0000
  H   H278      1.0  0.15533  0.31487  0.90019  1.0000
  C   C173      1.0  0.38065  0.24019  0.83127  1.0000
  S   S67       1.0  0.00588  0.22006  0.85701  1.0000
  C   C174      1.0  0.46205  0.04395  0.97236  1.0000
  S   S68       1.0  0.15158  0.12624  0.99643  1.0000
  H   H279      1.0  0.09338  0.23099  0.77965  1.0000
  H   H280      1.0  0.29484  0.01784  0.94838  1.0000
  H   H281      1.0  0.41359  0.22433  0.77606  1.0000
  C   C175      1.0  0.37558  0.28790  0.79094  1.0000
  H   H282      1.0  0.49310  0.09601  0.90976  1.0000
  H   H283      1.0  0.14537  0.18369  0.77994  1.0000
  S   S69       1.0  0.33040  0.32617  0.86619  1.0000
  C   C176      1.0  0.12252  0.01500  0.83256  1.0000
  C   C177      1.0  0.13655  0.24448  0.91990  1.0000
  H   H284      1.0  0.34623  0.02665  0.90940  1.0000
  H   H285      1.0  0.14044  0.03398  0.81790  1.0000
  H   H286      1.0  0.01202  0.15546  0.89924  1.0000
  S   S70       1.0  0.19866  0.29612  0.75996  1.0000
  H   H287      1.0  0.18983  0.32297  0.93018  1.0000
  H   H288      1.0  0.02666  0.27493  0.90248  1.0000
  H   H289      1.0  0.14291  0.03114  0.97209  1.0000
  H   H290      1.0  0.32916  0.02305  0.97936  1.0000
  Fe  Fe30      1.0  0.20449  0.12712  0.96826  1.0000
  S   S71       1.0  0.24668  0.17370  0.96984  1.0000
  C   C178      1.0  0.33325  0.00428  0.83906  1.0000
  Fe  Fe31      1.0  0.28895  0.12743  0.96696  1.0000
  S   S72       1.0  0.24690  0.08102  0.97095  1.0000
  H   H291      1.0  0.11545  0.25635  0.90313  1.0000
  Fe  Fe32      1.0  0.24569  0.16881  0.91679  1.0000
  S   S73       1.0  0.29201  0.12653  0.91387  1.0000
  S   S74       1.0  0.24471  0.22199  0.88898  1.0000
  C   C179      1.0  0.25971  0.21670  0.84953  1.0000
  C   C180      1.0  0.25953  0.18163  0.83448  1.0000
  C   C181      1.0  0.27052  0.17857  0.80244  1.0000
  C   C182      1.0  0.28221  0.21063  0.78582  1.0000
  C   C183      1.0  0.28252  0.24542  0.80109  1.0000
  C   C184      1.0  0.27117  0.24845  0.83276  1.0000
  H   H292      1.0  0.25060  0.15713  0.84745  1.0000
  H   H293      1.0  0.27061  0.15151  0.79074  1.0000
  H   H294      1.0  0.29090  0.27025  0.78821  1.0000
  H   H295      1.0  0.27165  0.27544  0.84441  1.0000
  Fe  Fe33      1.0  0.24584  0.08438  0.91790  1.0000
  S   S75       1.0  0.19940  0.12654  0.91523  1.0000
  S   S76       1.0  0.24610  0.03014  0.89187  1.0000
  C   C185      1.0  0.23396  0.03516  0.85178  1.0000
  C   C186      1.0  0.23235  0.07049  0.83724  1.0000
  C   C187      1.0  0.22387  0.07338  0.80465  1.0000
  C   C188      1.0  0.21673  0.04079  0.78698  1.0000
  S   S77       1.0  0.40417  0.12372  0.76427  1.0000
  C   C189      1.0  0.01825  0.21557  0.89714  1.0000
  H   H296      1.0  0.23775  0.09535  0.85111  1.0000
  H   H297      1.0  0.22207  0.10062  0.79335  1.0000
  C   C190      1.0  0.47352  0.07562  0.95516  1.0000
  C   C191      1.0  0.31524  0.00223  0.96346  1.0000
  H   H298      1.0  0.10059  0.08012  0.90291  1.0000
  H   H299      1.0  0.13206  0.18526  0.85195  1.0000
  H   H300      1.0  0.34977  0.21099  0.90134  1.0000
  H   H301      1.0  0.35612  0.17590  0.93160  1.0000
  H   H302      1.0  0.13495  0.08358  0.93385  1.0000
  H   H303      1.0  0.44446  0.26454  0.77495  1.0000
  C   C192      1.0  0.42328  0.29329  0.83143  1.0000
  H   H304      1.0  0.43888  0.18755  0.94321  1.0000
  N   N19       1.0  0.40200  0.26675  0.81120  1.0000
  H   H305      1.0  0.14117  0.04964  0.90263  1.0000
  H   H306      1.0  0.12121  0.22454  0.93571  1.0000
  H   H307      1.0  0.09665  0.18238  0.82166  1.0000
  H   H308      1.0  0.36416  0.22006  0.81650  1.0000
  N   N20       1.0  0.13654  0.22688  0.81515  1.0000
  C   C193      1.0  0.11389  0.20225  0.83594  1.0000
  C   C194      1.0  0.11110  0.24932  0.79487  1.0000
  C   C195      1.0  0.15949  0.25240  0.83487  1.0000
  C   C196      1.0  0.16155  0.20363  0.79508  1.0000
  H   H309      1.0  0.17913  0.23656  0.85037  1.0000
  H   H310      1.0  0.39293  0.26697  0.90052  1.0000
  H   H311      1.0  0.43486  0.22370  0.97234  1.0000
  H   H312      1.0  0.44938  0.23020  0.80582  1.0000
  C   C197      1.0  0.42848  0.24551  0.79100  1.0000
  C   C198      1.0  0.12606  0.01300  0.95599  1.0000
  H   H313      1.0  0.09188  0.26702  0.80949  1.0000
  H   H314      1.0  0.38043  0.02935  0.94074  1.0000
  H   H315      1.0  0.17705  0.27126  0.81995  1.0000
  H   H316      1.0  0.05745  0.02674  0.90106  1.0000
  H   H317      1.0  0.17921  0.22134  0.77916  1.0000
  N   N21       1.0  0.35475  0.03057  0.81893  1.0000
  C   C199      1.0  0.38295  0.00930  0.80046  1.0000
  C   C200      1.0  0.07322  0.05549  0.95906  1.0000
  C   C201      1.0  0.01891  0.18056  0.91237  1.0000
  C   C202      1.0  0.02841  0.17824  0.94481  1.0000
  C   C203      1.0  0.47225  0.00512  0.92592  1.0000
  H   H318      1.0  0.05590  0.02765  0.80453  1.0000
  H   H319      1.0  0.39975  0.22353  0.84670  1.0000
  C   C204      1.0  0.48411  0.07185  0.92312  1.0000
  H   H320      1.0  0.38948  0.07930  0.82446  1.0000
  N   N22       1.0  0.15497  0.27457  0.93842  1.0000
  C   C205      1.0  0.12612  0.29553  0.95630  1.0000
  H   H321      1.0  0.10357  0.03295  0.84702  1.0000
  C   C206      1.0  0.17498  0.30053  0.91678  1.0000
  C   C207      1.0  0.18211  0.25771  0.96085  1.0000
  H   H322      1.0  0.09301  0.03006  0.77564  1.0000
  H   H323      1.0  0.36013  0.25526  0.84664  1.0000
  H   H324      1.0  0.44315  0.27840  0.84751  1.0000
  H   H325      1.0  0.40428  0.31066  0.84643  1.0000
  H   H326      1.0  0.35561  0.30468  0.80549  1.0000
  H   H327      1.0  0.05332  0.07371  0.94579  1.0000
  H   H328      1.0  0.35376  0.07427  0.85415  1.0000
  H   H329      1.0  0.15749  0.22795  0.90614  1.0000
  H   H330      1.0  0.02926  0.15128  0.95667  1.0000
  H   H331      1.0  0.31282  0.03036  0.78197  1.0000
  N   N23       1.0  0.09907  0.03556  0.93733  1.0000
  H   H332      1.0  0.47386  0.10291  0.96649  1.0000
  H   H333      1.0  0.39074  0.18109  0.90097  1.0000
  H   H334      1.0  0.10573  0.30922  0.93998  1.0000
  C   C208      1.0  0.37411  0.05838  0.83921  1.0000
  H   H335      1.0  0.08883  0.07381  0.97596  1.0000
  H   H336      1.0  0.43308  0.23605  0.90106  1.0000
  H   H337      1.0  0.35858  0.26876  0.77580  1.0000
  H   H338      1.0  0.37853  0.26647  0.97145  1.0000
  H   H339      1.0  0.34405  0.07000  0.78108  1.0000
  C   C209      1.0  0.11988  0.06340  0.91818  1.0000
  N   N24       1.0  0.39148  0.22428  0.93663  1.0000
  C   C210      1.0  0.36417  0.24535  0.95619  1.0000
  C   C211      1.0  0.37112  0.19689  0.91664  1.0000
  C   C212      1.0  0.41825  0.20401  0.95737  1.0000
  C   C213      1.0  0.41225  0.25084  0.91618  1.0000
  H   H340      1.0  0.18128  0.18667  0.80975  1.0000
  S   S78       1.0  0.08152  0.32753  0.87794  1.0000
  H   H341      1.0  0.16824  0.23698  0.97687  1.0000
  H   H342      1.0  0.19575  0.27958  0.97584  1.0000
  H   H343      1.0  0.20485  0.24271  0.94787  1.0000
  H   H344      1.0  0.14157  0.27066  0.85003  1.0000
  C   C214      1.0  0.21837  0.00576  0.80170  1.0000
  H   H345      1.0  0.40364  0.18397  0.97350  1.0000
  C   C215      1.0  0.07735  0.01059  0.91615  1.0000
  H   H346      1.0  0.39494  0.04467  0.85523  1.0000
  H   H347      1.0  0.34387  0.26115  0.94106  1.0000
  H   H348      1.0  0.42819  0.27161  0.93063  1.0000
  H   H349      1.0  0.40005  0.02834  0.78532  1.0000
  H   H350      1.0  0.13884  0.31816  0.97087  1.0000
  H   H351      1.0  0.39062  0.30807  0.77538  1.0000
  S   S79       1.0  0.00524  0.16860  0.77827  1.0000
  C   C216      1.0  0.07638  0.01048  0.79083  1.0000
  H   H352      1.0  0.19639  0.28562  0.90222  1.0000
  H   H353      1.0  0.44012  0.31319  0.81686  1.0000
  C   C217      1.0  0.36482  0.00959  0.92496  1.0000
  H   H354      1.0  0.31223  0.01932  0.85381  1.0000
  S   S80       1.0  0.49954  0.22150  0.86575  1.0000
  C   C218      1.0  0.01347  0.43244  0.07528  1.0000
  C   C219      1.0  0.41545  0.66281  0.15672  1.0000
  C   C220      1.0  0.09078  0.60214  0.22056  1.0000
  C   C221      1.0  0.05555  0.60231  0.20571  1.0000
  C   C222      1.0  0.05278  0.59480  0.17295  1.0000
  C   C223      1.0  0.08528  0.58677  0.15543  1.0000
  C   C224      1.0  0.12019  0.58657  0.17047  1.0000
  C   C225      1.0  0.12291  0.59421  0.20290  1.0000
  H   H355      1.0  0.03063  0.60836  0.21937  1.0000
  H   H356      1.0  0.02564  0.59458  0.16135  1.0000
  H   H357      1.0  0.14533  0.58107  0.15688  1.0000
  H   H358      1.0  0.15002  0.59377  0.21436  1.0000
  S   S81       1.0  0.08341  0.57450  0.11527  1.0000
  S   S82       1.0  0.15484  0.38140  0.00958  1.0000
  S   S83       1.0  0.21064  0.64620  0.21529  1.0000
  H   H359      1.0  0.15296  0.47409  0.09325  1.0000
  Fe  Fe34      1.0  0.29270  0.37381  0.03679  1.0000
  H   H360      1.0  0.12923  0.34038  0.06661  1.0000
  Fe  Fe35      1.0  0.20838  0.37827  0.03669  1.0000
  S   S84       1.0  0.25308  0.42224  0.03386  1.0000
  C   C226      1.0  0.16116  0.64061  0.02828  1.0000
  C   C227      1.0  0.40828  0.64359  0.22106  1.0000
  S   S85       1.0  0.20411  0.37831  0.08977  1.0000
  H   H361      1.0  0.00433  0.40829  0.08871  1.0000
  H   H362      1.0  0.19480  0.56498  0.06775  1.0000
  S   S86       1.0  0.04057  0.59953  0.03385  1.0000
  C   C228      1.0  0.38060  0.66499  0.17175  1.0000
  S   S87       1.0  0.46156  0.65159  0.03540  1.0000
  Fe  Fe36      1.0  0.25247  0.41821  0.08688  1.0000
  H   H363      1.0  0.44510  0.43217  0.05457  1.0000
  S   S88       1.0  0.25489  0.47195  0.11361  1.0000
  C   C229      1.0  0.26732  0.46515  0.15348  1.0000
  C   C230      1.0  0.26456  0.42972  0.16776  1.0000
  C   C231      1.0  0.27351  0.42528  0.20012  1.0000
  C   C232      1.0  0.28588  0.45625  0.21779  1.0000
  C   C233      1.0  0.28898  0.49138  0.20327  1.0000
  C   C234      1.0  0.27949  0.49583  0.17129  1.0000
  H   H364      1.0  0.25519  0.40600  0.15394  1.0000
  H   H365      1.0  0.27149  0.39796  0.21126  1.0000
  H   H366      1.0  0.29801  0.51540  0.21695  1.0000
  H   H367      1.0  0.28184  0.52310  0.16029  1.0000
  S   S89       1.0  0.22792  0.58350  0.15938  1.0000
  H   H368      1.0  0.20438  0.48289  0.05429  1.0000
  H   H369      1.0  0.09782  0.50860  0.18800  1.0000
  S   S90       1.0  0.00311  0.42399  0.21013  1.0000
  Fe  Fe37      1.0  0.28793  0.60180  0.16270  1.0000
  S   S91       1.0  0.33428  0.57598  0.13398  1.0000
  C   C235      1.0  0.34278  0.61547  0.03129  1.0000
  C   C236      1.0  0.30833  0.61838  0.04716  1.0000
  C   C237      1.0  0.30530  0.60678  0.07905  1.0000
  C   C238      1.0  0.33663  0.59177  0.09465  1.0000
  C   C239      1.0  0.37064  0.58840  0.07849  1.0000
  C   C240      1.0  0.37381  0.60056  0.04705  1.0000
  H   H370      1.0  0.28442  0.63023  0.03505  1.0000
  H   H371      1.0  0.27884  0.60895  0.09151  1.0000
  H   H372      1.0  0.39482  0.57717  0.09059  1.0000
  H   H373      1.0  0.40034  0.59825  0.03487  1.0000
  S   S92       1.0  0.29045  0.59900  0.21599  1.0000
  S   S93       1.0  0.27506  0.66330  0.16076  1.0000
  H   H374      1.0  0.18624  0.46543  0.21948  1.0000
  H   H375      1.0  0.36503  0.50725  0.15525  1.0000
  Fe  Fe38      1.0  0.22903  0.58615  0.21269  1.0000
  H   H376      1.0  0.19632  0.52886  0.09734  1.0000
  Fe  Fe39      1.0  0.46289  0.37218  0.21226  1.0000
  C   C241      1.0  0.13453  0.49163  0.07796  1.0000
  C   C242      1.0  0.01631  0.46756  0.09020  1.0000
  H   H377      1.0  0.11461  0.52283  0.02299  1.0000
  S   S94       1.0  0.46037  0.37464  0.15919  1.0000
  H   H378      1.0  0.22641  0.64906  0.08731  1.0000
  H   H379      1.0  0.45319  0.51827  0.22344  1.0000
  H   H380      1.0  0.10167  0.45946  0.14735  1.0000
  Fe  Fe40      1.0  0.46399  0.64886  0.08868  1.0000
  Fe  Fe41      1.0  0.03748  0.60173  0.08712  1.0000
  H   H381      1.0  0.16974  0.47810  0.02341  1.0000
  Fe  Fe42      1.0  0.04015  0.37362  0.20635  1.0000
  H   H382      1.0  0.47213  0.35391  0.03819  1.0000
  Fe  Fe43      1.0  0.21505  0.64488  0.16206  1.0000
  Fe  Fe44      1.0  0.00119  0.42023  0.15710  1.0000
  H   H383      1.0  0.20053  0.51840  0.02429  1.0000
  H   H384      1.0  0.44712  0.56526  0.18009  1.0000
  C   C243      1.0  0.02212  0.42889  0.04274  1.0000
  C   C244      1.0  0.03433  0.46039  0.02561  1.0000
  C   C245      1.0  0.03749  0.49504  0.04080  1.0000
  C   C246      1.0  0.02829  0.49866  0.07287  1.0000
  H   H385      1.0  0.14800  0.51275  0.14818  1.0000
  H   H386      1.0  0.40101  0.51017  0.10049  1.0000
  H   H387      1.0  0.04634  0.51937  0.02751  1.0000
  H   H388      1.0  0.42138  0.47879  0.22502  1.0000
  H   H389      1.0  0.36407  0.55955  0.19488  1.0000
  H   H390      1.0  0.13233  0.51131  0.21884  1.0000
  S   S95       1.0  0.29677  0.37384  0.08977  1.0000
  Fe  Fe45      1.0  0.47668  0.59065  0.03753  1.0000
  S   S96       1.0  0.00454  0.47376  0.13030  1.0000
  S   S97       1.0  0.47373  0.58686  0.09076  1.0000
  N   N25       1.0  0.39772  0.46807  0.06401  1.0000
  C   C247      1.0  0.37862  0.43993  0.08414  1.0000
  C   C248      1.0  0.42333  0.44867  0.04170  1.0000
  C   C249      1.0  0.36927  0.48969  0.04610  1.0000
  C   C250      1.0  0.41958  0.49399  0.08424  1.0000
  H   H391      1.0  0.44855  0.52861  0.15092  1.0000
  H   H392      1.0  0.35809  0.45341  0.10059  1.0000
  C   C251      1.0  0.19633  0.64018  0.04318  1.0000
  H   H393      1.0  0.10524  0.42331  0.17702  1.0000
  H   H394      1.0  0.40789  0.42880  0.02596  1.0000
  S   S98       1.0  0.09440  0.36998  0.23238  1.0000
  C   C252      1.0  0.44350  0.64177  0.20627  1.0000
  H   H395      1.0  0.38269  0.51141  0.03080  1.0000
  S   S99       1.0  0.45032  0.54509  0.00823  1.0000
  H   H396      1.0  0.35204  0.47098  0.03078  1.0000
  H   H397      1.0  0.11359  0.50602  0.09337  1.0000
  N   N26       1.0  0.14341  0.46929  0.18342  1.0000
  C   C253      1.0  0.16607  0.49508  0.16371  1.0000
  C   C254      1.0  0.16860  0.44704  0.20412  1.0000
  C   C255      1.0  0.12182  0.44369  0.16266  1.0000
  C   C256      1.0  0.11703  0.49140  0.20306  1.0000
  H   H398      1.0  0.40019  0.56232  0.22418  1.0000
  Fe  Fe46      1.0  0.27206  0.65910  0.21396  1.0000
  H   H399      1.0  0.18302  0.51447  0.17871  1.0000
  C   C257      1.0  0.19932  0.64884  0.07574  1.0000
  C   C258      1.0  0.16708  0.65821  0.09309  1.0000
  H   H400      1.0  0.15258  0.42772  0.21989  1.0000
  H   H401      1.0  0.39915  0.42370  0.09862  1.0000
  H   H402      1.0  0.41001  0.56134  0.15173  1.0000
  H   H403      1.0  0.46774  0.63297  0.21970  1.0000
  H   H404      1.0  0.44061  0.47865  0.09879  1.0000
  H   H405      1.0  0.09933  0.47281  0.21809  1.0000
  H   H406      1.0  0.18621  0.47946  0.14851  1.0000
  N   N27       1.0  0.40880  0.51962  0.18884  1.0000
  C   C259      1.0  0.38594  0.49256  0.17050  1.0000
  C   C260      1.0  0.38389  0.54236  0.20929  1.0000
  C   C261      1.0  0.43591  0.49880  0.20878  1.0000
  C   C262      1.0  0.42950  0.54468  0.16690  1.0000
  H   H407      1.0  0.18827  0.42950  0.18992  1.0000
  H   H408      1.0  0.15769  0.56138  0.09606  1.0000
  S   S100      1.0  0.40815  0.37118  0.23762  1.0000
  H   H409      1.0  0.03070  0.52567  0.08430  1.0000
  C   C263      1.0  0.44706  0.65101  0.17387  1.0000
  H   H410      1.0  0.36662  0.52436  0.22518  1.0000
  H   H411      1.0  0.22229  0.34605  0.21385  1.0000
  H   H412      1.0  0.36288  0.41935  0.06931  1.0000
  H   H413      1.0  0.34975  0.50486  0.06241  1.0000
  H   H414      1.0  0.14074  0.42711  0.14696  1.0000
  H   H415      1.0  0.43537  0.51474  0.06963  1.0000
  H   H416      1.0  0.11092  0.55768  0.05358  1.0000
  H   H417      1.0  0.45565  0.48216  0.19383  1.0000
  H   H418      1.0  0.14700  0.56169  0.02435  1.0000
  S   S101      1.0  0.04269  0.37329  0.15315  1.0000
  H   H419      1.0  0.43861  0.46897  0.02626  1.0000
  N   N28       1.0  0.15673  0.51905  0.05942  1.0000
  C   C264      1.0  0.13122  0.54121  0.03908  1.0000
  C   C265      1.0  0.17723  0.54455  0.08113  1.0000
  C   C266      1.0  0.18400  0.49869  0.03934  1.0000
  S   S102      1.0  0.34647  0.37184  0.01016  1.0000
  H   H420      1.0  0.36973  0.47354  0.18650  1.0000
  H   H421      1.0  0.22097  0.63285  0.02965  1.0000
  H   H422      1.0  0.11843  0.47237  0.06209  1.0000
  H   H423      1.0  0.01999  0.40190  0.03105  1.0000
  H   H424      1.0  0.49342  0.34660  0.09434  1.0000
  H   H425      1.0  0.40387  0.47468  0.15505  1.0000
  C   C267      1.0  0.37696  0.65505  0.20369  1.0000
  C   C268      1.0  0.12924  0.64993  0.04575  1.0000
  S   S103      1.0  0.20274  0.53937  0.24068  1.0000
  H   H426      1.0  0.10218  0.65073  0.03425  1.0000
  H   H427      1.0  0.47418  0.64968  0.16231  1.0000
  H   H428      1.0  0.34979  0.65636  0.21499  1.0000
  H   H429      1.0  0.23963  0.34357  0.15635  1.0000
  Fe  Fe47      1.0  0.02454  0.66024  0.03621  1.0000
  C   C269      1.0  0.13222  0.65881  0.07799  1.0000
  S   S104      1.0  0.02693  0.66356  0.08943  1.0000
  Fe  Fe48      1.0  0.24853  0.33394  0.08708  1.0000
  H   H430      1.0  0.08957  0.33559  0.09251  1.0000
  H   H431      1.0  0.10737  0.66578  0.09142  1.0000
  Fe  Fe49      1.0  0.04147  0.61759  0.28636  1.0000
  C   C270      1.0  0.30479  0.34415  0.45566  1.0000
  H   H432      1.0  0.14052  0.47444  0.27203  1.0000
  H   H433      1.0  0.05925  0.53382  0.46994  1.0000
  S   S105      1.0  0.04531  0.61635  0.33936  1.0000
  H   H434      1.0  0.14667  0.53286  0.46583  1.0000
  S   S106      1.0  0.28863  0.34552  0.28333  1.0000
  S   S107      1.0  0.41517  0.41988  0.38151  1.0000
  H   H435      1.0  0.37768  0.42427  0.43970  1.0000
  H   H436      1.0  0.47443  0.39684  0.33794  1.0000
  S   S108      1.0  0.27357  0.40969  0.33807  1.0000
  S   S109      1.0  0.04187  0.35192  0.45994  1.0000
  H   H437      1.0  0.11644  0.49213  0.46546  1.0000
  H   H438      1.0  0.31456  0.56235  0.30728  1.0000
  Fe  Fe50      1.0  0.21329  0.39238  0.33618  1.0000
  S   S110      1.0  0.16860  0.42152  0.36444  1.0000
  C   C271      1.0  0.16084  0.39225  0.46954  1.0000
  C   C272      1.0  0.19526  0.38761  0.45382  1.0000
  C   C273      1.0  0.19811  0.39599  0.42119  1.0000
  C   C274      1.0  0.16670  0.40976  0.40476  1.0000
  C   C275      1.0  0.13281  0.41499  0.42081  1.0000
  C   C276      1.0  0.12982  0.40584  0.45294  1.0000
  H   H439      1.0  0.21929  0.37694  0.46659  1.0000
  H   H440      1.0  0.22445  0.39214  0.40878  1.0000
  H   H441      1.0  0.10844  0.42503  0.40810  1.0000
  H   H442      1.0  0.10321  0.40883  0.46490  1.0000
  S   S111      1.0  0.20967  0.39372  0.28290  1.0000
  C   C277      1.0  0.12086  0.34317  0.28844  1.0000
  S   S112      1.0  0.20478  0.62235  0.41003  1.0000
  H   H443      1.0  0.25644  0.65355  0.34615  1.0000
  Fe  Fe51      1.0  0.27133  0.40583  0.28496  1.0000
  H   H444      1.0  0.40392  0.51909  0.27943  1.0000
  Fe  Fe52      1.0  0.20884  0.62111  0.46306  1.0000
  H   H445      1.0  0.13933  0.52590  0.31065  1.0000
  Fe  Fe53      1.0  0.29320  0.62075  0.46307  1.0000
  S   S113      1.0  0.25078  0.57449  0.46497  1.0000
  H   H446      1.0  0.37071  0.48076  0.27847  1.0000
  H   H447      1.0  0.05360  0.52161  0.30180  1.0000
  S   S114      1.0  0.29749  0.62209  0.41000  1.0000
  H   H448      1.0  0.40079  0.53229  0.35050  1.0000
  S   S115      1.0  0.40226  0.63073  0.26095  1.0000
  S   S116      1.0  0.48498  0.52917  0.36614  1.0000
  H   H449      1.0  0.14046  0.55163  0.39655  1.0000
  S   S117      1.0  0.45677  0.39968  0.46458  1.0000
  Fe  Fe54      1.0  0.25099  0.57990  0.41196  1.0000
  Fe  Fe55      1.0  0.28558  0.34820  0.33651  1.0000
  S   S118      1.0  0.25019  0.52635  0.38464  1.0000
  C   C278      1.0  0.23681  0.53142  0.34476  1.0000
  C   C279      1.0  0.23751  0.56641  0.32961  1.0000
  C   C280      1.0  0.22793  0.56924  0.29724  1.0000
  C   C281      1.0  0.21724  0.53703  0.28037  1.0000
  C   C282      1.0  0.21642  0.50229  0.29571  1.0000
  C   C283      1.0  0.22621  0.49953  0.32777  1.0000
  H   H450      1.0  0.24580  0.59103  0.34275  1.0000
  H   H451      1.0  0.22818  0.59624  0.28544  1.0000
  H   H452      1.0  0.20876  0.47731  0.28266  1.0000
  H   H453      1.0  0.22519  0.47263  0.33952  1.0000
  H   H454      1.0  0.31980  0.47784  0.31840  1.0000
  Fe  Fe56      1.0  0.47829  0.34063  0.46364  1.0000
  C   C284      1.0  0.41163  0.38513  0.27743  1.0000
  C   C285      1.0  0.44624  0.38595  0.29325  1.0000
  C   C286      1.0  0.44780  0.39589  0.32561  1.0000
  C   C287      1.0  0.41474  0.40530  0.34179  1.0000
  C   C288      1.0  0.38045  0.40470  0.32573  1.0000
  C   C289      1.0  0.37891  0.39461  0.29371  1.0000
  H   H455      1.0  0.47156  0.37848  0.28066  1.0000
  S   S119      1.0  0.49325  0.57721  0.28627  1.0000
  H   H456      1.0  0.35488  0.41141  0.33825  1.0000
  H   H457      1.0  0.35227  0.39440  0.28146  1.0000
  Fe  Fe57      1.0  0.46214  0.39700  0.41143  1.0000
  H   H458      1.0  0.14923  0.49947  0.43386  1.0000
  H   H459      1.0  0.27394  0.64817  0.28878  1.0000
  H   H460      1.0  0.09055  0.57331  0.47200  1.0000
  C   C290      1.0  0.47599  0.57054  0.42092  1.0000
  H   H461      1.0  0.37773  0.48366  0.40534  1.0000
  H   H462      1.0  0.09883  0.58050  0.39852  1.0000
  Fe  Fe58      1.0  0.02358  0.41201  0.45802  1.0000
  C   C291      1.0  0.47243  0.53553  0.40600  1.0000
  H   H463      1.0  0.05737  0.43823  0.31621  1.0000
  H   H464      1.0  0.39834  0.56829  0.32062  1.0000
  Fe  Fe59      1.0  0.45572  0.62748  0.28797  1.0000
  H   H465      1.0  0.29561  0.45908  0.39622  1.0000
  H   H466      1.0  0.03343  0.64712  0.46256  1.0000
  S   S120      1.0  0.47800  0.33618  0.41042  1.0000
  H   H467      1.0  0.29749  0.41913  0.42211  1.0000
  S   S121      1.0  0.04870  0.45840  0.48705  1.0000
  C   C292      1.0  0.46962  0.57376  0.45383  1.0000
  C   C293      1.0  0.45873  0.54208  0.47134  1.0000
  C   C294      1.0  0.45368  0.50768  0.45601  1.0000
  C   C295      1.0  0.46089  0.50433  0.42353  1.0000
  H   H468      1.0  0.28744  0.45980  0.46902  1.0000
  H   H469      1.0  0.27971  0.34839  0.46962  1.0000
  H   H470      1.0  0.44573  0.48316  0.46957  1.0000
  Fe  Fe60      1.0  0.03821  0.35443  0.40668  1.0000
  H   H471      1.0  0.36224  0.56514  0.35026  1.0000
  C   C296      1.0  0.37243  0.33906  0.45233  1.0000
  N   N29       1.0  0.33322  0.46501  0.43600  1.0000
  C   C297      1.0  0.31467  0.44192  0.41136  1.0000
  C   C298      1.0  0.35525  0.49533  0.42083  1.0000
  C   C299      1.0  0.30433  0.48183  0.45683  1.0000
  C   C300      1.0  0.35849  0.44098  0.45506  1.0000
  H   H472      1.0  0.33557  0.42812  0.39548  1.0000
  H   H473      1.0  0.35085  0.56502  0.27787  1.0000
  C   C301      1.0  0.08969  0.35760  0.27256  1.0000
  H   H474      1.0  0.09797  0.49378  0.39610  1.0000
  H   H475      1.0  0.31666  0.51281  0.34862  1.0000
  H   H476      1.0  0.33699  0.51382  0.40615  1.0000
  C   C302      1.0  0.05589  0.36288  0.28904  1.0000
  H   H477      1.0  0.37655  0.45778  0.47109  1.0000
  Fe  Fe61      1.0  0.49251  0.58231  0.33923  1.0000
  H   H478      1.0  0.28435  0.49934  0.44288  1.0000
  S   S122      1.0  0.15499  0.62103  0.48983  1.0000
  H   H479      1.0  0.05393  0.57197  0.44280  1.0000
  H   H480      1.0  0.14692  0.33916  0.27578  1.0000
  N   N30       1.0  0.09817  0.48175  0.30790  1.0000
  C   C303      1.0  0.07561  0.45806  0.32961  1.0000
  C   C304      1.0  0.07278  0.50380  0.28732  1.0000
  C   C305      1.0  0.12238  0.45751  0.28809  1.0000
  C   C306      1.0  0.12195  0.50777  0.32650  1.0000
  H   H481      1.0  0.09382  0.44061  0.34530  1.0000
  Fe  Fe62      1.0  0.25112  0.66436  0.41350  1.0000
  H   H482      1.0  0.36943  0.51339  0.43882  1.0000
  H   H483      1.0  0.05494  0.48518  0.27237  1.0000
  H   H484      1.0  0.05841  0.52542  0.39754  1.0000
  H   H485      1.0  0.14178  0.49216  0.34214  1.0000
  C   C307      1.0  0.07923  0.50996  0.41221  1.0000
  Fe  Fe63      1.0  0.00427  0.66370  0.33670  1.0000
  H   H486      1.0  0.02784  0.35852  0.33460  1.0000
  H   H487      1.0  0.10551  0.43776  0.27342  1.0000
  H   H488      1.0  0.10463  0.52663  0.34158  1.0000
  H   H489      1.0  0.35471  0.47935  0.34904  1.0000
  S   S123      1.0  0.45075  0.62910  0.34093  1.0000
  H   H490      1.0  0.45846  0.47724  0.41215  1.0000
  H   H491      1.0  0.31719  0.50022  0.47524  1.0000
  N   N31       1.0  0.35964  0.52281  0.31390  1.0000
  C   C308      1.0  0.33676  0.49710  0.33348  1.0000
  C   C309      1.0  0.38602  0.50059  0.29435  1.0000
  C   C310      1.0  0.33467  0.54524  0.29313  1.0000
  C   C311      1.0  0.38119  0.54825  0.33482  1.0000
  H   H492      1.0  0.31748  0.52694  0.27732  1.0000
  H   H493      1.0  0.08881  0.52294  0.27129  1.0000
  S   S124      1.0  0.09583  0.61276  0.26095  1.0000
  S   S125      1.0  0.29952  0.45194  0.25754  1.0000
  H   H494      1.0  0.06317  0.48916  0.42653  1.0000
  H   H495      1.0  0.40504  0.48329  0.30951  1.0000
  H   H496      1.0  0.14134  0.43999  0.30302  1.0000
  C   C312      1.0  0.08525  0.33972  0.33743  1.0000
  H   H497      1.0  0.05689  0.47524  0.34503  1.0000
  S   S126      1.0  0.02548  0.41597  0.40475  1.0000
  H   H498      1.0  0.13466  0.58520  0.42811  1.0000
  N   N32       1.0  0.10084  0.53575  0.43276  1.0000
  C   C313      1.0  0.11954  0.56449  0.41298  1.0000
  C   C314      1.0  0.07512  0.55451  0.45537  1.0000
  C   C315      1.0  0.12959  0.51417  0.45035  1.0000
  H   H499      1.0  0.47306  0.60052  0.46567  1.0000
  H   H500      1.0  0.34245  0.42064  0.46972  1.0000
  H   H501      1.0  0.01844  0.65166  0.40471  1.0000
  S   S127      1.0  0.34683  0.62016  0.49014  1.0000
  H   H502      1.0  0.03176  0.37411  0.27679  1.0000
  H   H503      1.0  0.39983  0.64736  0.43853  1.0000
  H   H504      1.0  0.39965  0.33986  0.46356  1.0000
  H   H505      1.0  0.48472  0.59473  0.40733  1.0000
  C   C316      1.0  0.34010  0.34437  0.47042  1.0000
  C   C317      1.0  0.05375  0.35430  0.32168  1.0000
  C   C318      1.0  0.11855  0.33379  0.32062  1.0000
  H   H506      1.0  0.27506  0.33805  0.41100  1.0000
  C   C319      1.0  0.30218  0.33855  0.42260  1.0000
  Fe  Fe64      1.0  0.22708  0.33337  0.28621  1.0000
  H   H507      1.0  0.19802  0.43179  0.69479  1.0000
  H   H508      1.0  0.10184  0.50325  0.68725  1.0000
  C   C320      1.0  0.09086  0.59783  0.71899  1.0000
  C   C321      1.0  0.05552  0.59822  0.70431  1.0000
  C   C322      1.0  0.05262  0.59159  0.67142  1.0000
  C   C323      1.0  0.08508  0.58423  0.65363  1.0000
  C   C324      1.0  0.12012  0.58411  0.66844  1.0000
  C   C325      1.0  0.12300  0.59103  0.70096  1.0000
  H   H509      1.0  0.03061  0.60357  0.71822  1.0000
  H   H510      1.0  0.02543  0.59143  0.65992  1.0000
  H   H511      1.0  0.14522  0.57937  0.65457  1.0000
  H   H512      1.0  0.15029  0.59113  0.71216  1.0000
  S   S128      1.0  0.08303  0.57299  0.61328  1.0000
  C   C326      1.0  0.02319  0.42882  0.54376  1.0000
  H   H513      1.0  0.11158  0.46619  0.56351  1.0000
  H   H514      1.0  0.48484  0.53886  0.67093  1.0000
  Fe  Fe65      1.0  0.29174  0.36223  0.53704  1.0000
  H   H515      1.0  0.38575  0.50921  0.65663  1.0000
  Fe  Fe66      1.0  0.20818  0.37300  0.53614  1.0000
  S   S129      1.0  0.25594  0.41356  0.53280  1.0000
  H   H516      1.0  0.11204  0.45325  0.64809  1.0000
  H   H517      1.0  0.11059  0.51510  0.52218  1.0000
  S   S130      1.0  0.20335  0.37492  0.58909  1.0000
  H   H518      1.0  0.37188  0.45924  0.61332  1.0000
  H   H519      1.0  0.10677  0.66532  0.59115  1.0000
  S   S131      1.0  0.03916  0.59938  0.53312  1.0000
  C   C327      1.0  0.17533  0.53521  0.57900  1.0000
  S   S132      1.0  0.27457  0.66437  0.66031  1.0000
  Fe  Fe67      1.0  0.25441  0.41123  0.58595  1.0000
  H   H520      1.0  0.39397  0.58831  0.68056  1.0000
  S   S133      1.0  0.25817  0.46586  0.61139  1.0000
  C   C328      1.0  0.27171  0.46178  0.65134  1.0000
  C   C329      1.0  0.27052  0.42726  0.66731  1.0000
  C   C330      1.0  0.27935  0.42547  0.69990  1.0000
  C   C331      1.0  0.29023  0.45812  0.71611  1.0000
  C   C332      1.0  0.29223  0.49224  0.69979  1.0000
  C   C333      1.0  0.28252  0.49411  0.66766  1.0000
  H   H521      1.0  0.26221  0.40221  0.65471  1.0000
  H   H522      1.0  0.27818  0.39894  0.71242  1.0000
  H   H523      1.0  0.30037  0.51752  0.71223  1.0000
  H   H524      1.0  0.28330  0.52076  0.65543  1.0000
  S   S134      1.0  0.22841  0.58397  0.66097  1.0000
  H   H525      1.0  0.15721  0.55345  0.59410  1.0000
  H   H526      1.0  0.41094  0.54564  0.63640  1.0000
  H   H527      1.0  0.10968  0.50153  0.59369  1.0000
  Fe  Fe68      1.0  0.28822  0.60307  0.66342  1.0000
  S   S135      1.0  0.33511  0.57727  0.63526  1.0000
  C   C334      1.0  0.34193  0.60817  0.53033  1.0000
  C   C335      1.0  0.30675  0.60702  0.54517  1.0000
  C   C336      1.0  0.30409  0.59824  0.57775  1.0000
  C   C337      1.0  0.33670  0.59018  0.59512  1.0000
  C   C338      1.0  0.37159  0.59115  0.58003  1.0000
  C   C339      1.0  0.37418  0.60041  0.54787  1.0000
  H   H528      1.0  0.28183  0.61301  0.53156  1.0000
  H   H529      1.0  0.27697  0.59702  0.58931  1.0000
  H   H530      1.0  0.39682  0.58551  0.59335  1.0000
  H   H531      1.0  0.40126  0.60104  0.53644  1.0000
  S   S136      1.0  0.29137  0.60189  0.71672  1.0000
  H   H532      1.0  0.19143  0.46830  0.72334  1.0000
  S   S137      1.0  0.04827  0.37790  0.65482  1.0000
  H   H533      1.0  0.13399  0.50933  0.71954  1.0000
  Fe  Fe69      1.0  0.22998  0.58832  0.71421  1.0000
  H   H534      1.0  0.10897  0.34374  0.57528  1.0000
  Fe  Fe70      1.0  0.45896  0.37402  0.71484  1.0000
  H   H535      1.0  0.40129  0.41238  0.57644  1.0000
  C   C340      1.0  0.16612  0.65545  0.59377  1.0000
  H   H536      1.0  0.19547  0.50498  0.52282  1.0000
  S   S138      1.0  0.45470  0.37544  0.66181  1.0000
  H   H537      1.0  0.15407  0.42481  0.64961  1.0000
  H   H538      1.0  0.02299  0.40167  0.53223  1.0000
  C   C341      1.0  0.19513  0.63351  0.54488  1.0000
  Fe  Fe71      1.0  0.46666  0.64951  0.58875  1.0000
  Fe  Fe72      1.0  0.03636  0.60060  0.58635  1.0000
  H   H539      1.0  0.42633  0.51386  0.57890  1.0000
  Fe  Fe73      1.0  0.04325  0.37733  0.70778  1.0000
  H   H540      1.0  0.16084  0.42809  0.72325  1.0000
  Fe  Fe74      1.0  0.21474  0.64532  0.66244  1.0000
  C   C342      1.0  0.13154  0.65691  0.57825  1.0000
  H   H541      1.0  0.49033  0.34357  0.59618  1.0000
  H   H542      1.0  0.35991  0.50535  0.59870  1.0000
  H   H543      1.0  0.23694  0.34196  0.65459  1.0000
  C   C343      1.0  0.03398  0.46079  0.52664  1.0000
  C   C344      1.0  0.03495  0.49564  0.54169  1.0000
  C   C345      1.0  0.02520  0.49889  0.57368  1.0000
  C   C346      1.0  0.44661  0.65452  0.70650  1.0000
  H   H544      1.0  0.37034  0.55079  0.70040  1.0000
  H   H545      1.0  0.04280  0.52029  0.52840  1.0000
  H   H546      1.0  0.02652  0.52588  0.58518  1.0000
  H   H547      1.0  0.43749  0.46795  0.59447  1.0000
  H   H548      1.0  0.10422  0.46822  0.71796  1.0000
  S   S139      1.0  0.29549  0.36392  0.59006  1.0000
  Fe  Fe75      1.0  0.47996  0.59043  0.53855  1.0000
  H   H549      1.0  0.44654  0.47895  0.55368  1.0000
  S   S140      1.0  0.47826  0.58785  0.59174  1.0000
  N   N33       1.0  0.38827  0.46985  0.56491  1.0000
  C   C347      1.0  0.37431  0.49155  0.53745  1.0000
  C   C348      1.0  0.39015  0.42956  0.55646  1.0000
  C   C349      1.0  0.42622  0.48322  0.57353  1.0000
  C   C350      1.0  0.36241  0.47513  0.59203  1.0000
  S   S141      1.0  0.34524  0.35332  0.51109  1.0000
  H   H550      1.0  0.37257  0.52207  0.54307  1.0000
  H   H551      1.0  0.34587  0.48207  0.53008  1.0000
  H   H552      1.0  0.19722  0.47002  0.55353  1.0000
  H   H553      1.0  0.44151  0.51703  0.73129  1.0000
  S   S142      1.0  0.15484  0.37943  0.50940  1.0000
  H   H554      1.0  0.35198  0.66242  0.71440  1.0000
  S   S143      1.0  0.46324  0.65076  0.53558  1.0000
  C   C351      1.0  0.16021  0.63485  0.52959  1.0000
  H   H555      1.0  0.40689  0.57670  0.72043  1.0000
  S   S144      1.0  0.21086  0.64818  0.71564  1.0000
  N   N34       1.0  0.15068  0.46767  0.68544  1.0000
  C   C352      1.0  0.17227  0.49482  0.66621  1.0000
  C   C353      1.0  0.17625  0.44815  0.70770  1.0000
  C   C354      1.0  0.13279  0.43978  0.66429  1.0000
  C   C355      1.0  0.12134  0.48794  0.70344  1.0000
  H   H556      1.0  0.18657  0.51588  0.68157  1.0000
  H   H557      1.0  0.19453  0.48064  0.65216  1.0000
  H   H558      1.0  0.43395  0.50193  0.64475  1.0000
  H   H559      1.0  0.33356  0.46527  0.58622  1.0000
  H   H560      1.0  0.22214  0.35053  0.71215  1.0000
  C   C356      1.0  0.12859  0.64665  0.54633  1.0000
  S   S145      1.0  0.20342  0.54298  0.74368  1.0000
  H   H561      1.0  0.19430  0.51903  0.59496  1.0000
  H   H562      1.0  0.14696  0.46722  0.59402  1.0000
  C   C357      1.0  0.44953  0.66090  0.67357  1.0000
  C   C358      1.0  0.19811  0.64361  0.57715  1.0000
  H   H563      1.0  0.11755  0.41810  0.67829  1.0000
  H   H564      1.0  0.39371  0.48900  0.51689  1.0000
  N   N35       1.0  0.42666  0.53796  0.68507  1.0000
  C   C359      1.0  0.46274  0.55787  0.68059  1.0000
  C   C360      1.0  0.43168  0.50669  0.70779  1.0000
  C   C361      1.0  0.39825  0.56448  0.69733  1.0000
  C   C362      1.0  0.41378  0.52285  0.65431  1.0000
  H   H565      1.0  0.14462  0.55258  0.52298  1.0000
  S   S146      1.0  0.45093  0.54413  0.51231  1.0000
  H   H566      1.0  0.19327  0.55436  0.56462  1.0000
  H   H567      1.0  0.40894  0.42468  0.53566  1.0000
  H   H568      1.0  0.45968  0.58156  0.66350  1.0000
  C   C363      1.0  0.01350  0.43217  0.57608  1.0000
  H   H569      1.0  0.10849  0.55067  0.55230  1.0000
  H   H570      1.0  0.15379  0.51051  0.64955  1.0000
  H   H571      1.0  0.47332  0.56984  0.70330  1.0000
  H   H572      1.0  0.36195  0.41829  0.55023  1.0000
  S   S147      1.0  0.09660  0.37823  0.73514  1.0000
  Fe  Fe76      1.0  0.02390  0.66008  0.53649  1.0000
  H   H573      1.0  0.45288  0.48618  0.69893  1.0000
  H   H574      1.0  0.16167  0.46726  0.52328  1.0000
  H   H575      1.0  0.47503  0.34993  0.53844  1.0000
  S   S148      1.0  0.40504  0.37457  0.74152  1.0000
  N   N36       1.0  0.15263  0.51015  0.55854  1.0000
  C   C364      1.0  0.12927  0.48513  0.57842  1.0000
  C   C365      1.0  0.12802  0.53305  0.53799  1.0000
  C   C366      1.0  0.17786  0.48709  0.53858  1.0000
  C   C367      1.0  0.01431  0.46736  0.59091  1.0000
  H   H576      1.0  0.21955  0.62434  0.53190  1.0000
  H   H577      1.0  0.40490  0.49102  0.71152  1.0000
  S   S149      1.0  0.02633  0.66245  0.58969  1.0000
  H   H578      1.0  0.10177  0.64819  0.53452  1.0000
  C   C368      1.0  0.41129  0.65521  0.72122  1.0000
  Fe  Fe77      1.0  0.27220  0.66166  0.71359  1.0000
  C   C369      1.0  0.37928  0.66282  0.70328  1.0000
  H   H579      1.0  0.47667  0.66028  0.66199  1.0000
  H   H580      1.0  0.22503  0.64284  0.58905  1.0000
  H   H581      1.0  0.47142  0.64853  0.72034  1.0000
  Fe  Fe78      1.0  0.00295  0.33462  0.65667  1.0000
  H   H582      1.0  0.00510  0.40785  0.58953  1.0000
  Fe  Fe79      1.0  0.00094  0.41904  0.65731  1.0000
  S   S150      1.0  0.00008  0.42279  0.71036  1.0000
  S   S151      1.0  0.00090  0.47293  0.63070  1.0000
  Fe  Fe80      1.0  0.04285  0.61570  0.78600  1.0000
  H   H583      1.0  0.35897  0.43894  0.97477  1.0000
  H   H584      1.0  0.14934  0.52859  0.96750  1.0000
  C   C370      1.0  0.12283  0.35515  0.79238  1.0000
  S   S152      1.0  0.04807  0.61621  0.83896  1.0000
  S   S153      1.0  0.03796  0.35224  0.95881  1.0000
  S   S154      1.0  0.28905  0.35173  0.78420  1.0000
  S   S155      1.0  0.42016  0.42824  0.88363  1.0000
  H   H585      1.0  0.14205  0.58121  0.92962  1.0000
  H   H586      1.0  0.47629  0.40033  0.83923  1.0000
  S   S156      1.0  0.27665  0.41702  0.83913  1.0000
  H   H587      1.0  0.39972  0.35308  0.96261  1.0000
  H   H588      1.0  0.14134  0.48078  0.77348  1.0000
  H   H589      1.0  0.38631  0.54920  0.76874  1.0000
  Fe  Fe81      1.0  0.21559  0.40218  0.83716  1.0000
  S   S157      1.0  0.17015  0.42977  0.86597  1.0000
  C   C371      1.0  0.16064  0.39529  0.96989  1.0000
  C   C372      1.0  0.19616  0.39654  0.95558  1.0000
  C   C373      1.0  0.19954  0.40612  0.92324  1.0000
  C   C374      1.0  0.16739  0.41525  0.90564  1.0000
  C   C375      1.0  0.13216  0.41444  0.92021  1.0000
  C   C376      1.0  0.12881  0.40416  0.95211  1.0000
  H   H590      1.0  0.22083  0.38975  0.96930  1.0000
  H   H591      1.0  0.22691  0.40709  0.91207  1.0000
  H   H592      1.0  0.10727  0.42111  0.90664  1.0000
  H   H593      1.0  0.10143  0.40326  0.96309  1.0000
  S   S158      1.0  0.21235  0.40340  0.78384  1.0000
  H   H594      1.0  0.15009  0.35597  0.78131  1.0000
  S   S159      1.0  0.20828  0.62955  0.90915  1.0000
  Fe  Fe82      1.0  0.00828  0.66473  0.83613  1.0000
  Fe  Fe83      1.0  0.27440  0.41283  0.78587  1.0000
  H   H595      1.0  0.40292  0.49803  0.82677  1.0000
  Fe  Fe84      1.0  0.21061  0.62962  0.96230  1.0000
  H   H596      1.0  0.39314  0.44557  0.94433  1.0000
  Fe  Fe85      1.0  0.29497  0.63057  0.96447  1.0000
  S   S160      1.0  0.25316  0.58373  0.96621  1.0000
  H   H597      1.0  0.33752  0.47791  0.81761  1.0000
  H   H598      1.0  0.30942  0.43177  0.93307  1.0000
  S   S161      1.0  0.30085  0.63032  0.91153  1.0000
  H   H599      1.0  0.37444  0.49992  0.77227  1.0000
  H   H600      1.0  0.27359  0.34646  0.91307  1.0000
  S   S162      1.0  0.47519  0.33901  0.91046  1.0000
  Fe  Fe86      1.0  0.03511  0.35464  0.90563  1.0000
  S   S163      1.0  0.46132  0.40318  0.96586  1.0000
  Fe  Fe87      1.0  0.25493  0.58772  0.91316  1.0000
  Fe  Fe88      1.0  0.28594  0.35488  0.83741  1.0000
  S   S164      1.0  0.25707  0.53402  0.88624  1.0000
  C   C377      1.0  0.24040  0.53835  0.84724  1.0000
  C   C378      1.0  0.24188  0.57263  0.83099  1.0000
  C   C379      1.0  0.23090  0.57454  0.79888  1.0000
  C   C380      1.0  0.21802  0.54217  0.78340  1.0000
  C   C381      1.0  0.21602  0.50829  0.79997  1.0000
  C   C382      1.0  0.22729  0.50637  0.83171  1.0000
  H   H601      1.0  0.25237  0.59723  0.84295  1.0000
  H   H602      1.0  0.23212  0.60087  0.78612  1.0000
  H   H603      1.0  0.20680  0.48322  0.78794  1.0000
  H   H604      1.0  0.22627  0.47994  0.84419  1.0000
  H   H605      1.0  0.33864  0.53364  0.76337  1.0000
  H   H606      1.0  0.09574  0.44379  0.84619  1.0000
  H   H607      1.0  0.30219  0.47824  0.97647  1.0000
  C   C383      1.0  0.41050  0.38950  0.78093  1.0000
  C   C384      1.0  0.44573  0.38923  0.79573  1.0000
  C   C385      1.0  0.44913  0.40024  0.82772  1.0000
  C   C386      1.0  0.41728  0.41200  0.84451  1.0000
  C   C387      1.0  0.38234  0.41241  0.82955  1.0000
  C   C388      1.0  0.37893  0.40110  0.79790  1.0000
  H   H608      1.0  0.47007  0.38014  0.78259  1.0000
  H   H609      1.0  0.14563  0.54777  0.89776  1.0000
  H   H610      1.0  0.35777  0.42093  0.84272  1.0000
  H   H611      1.0  0.35183  0.40174  0.78645  1.0000
  Fe  Fe89      1.0  0.46521  0.40090  0.91268  1.0000
  H   H612      1.0  0.36585  0.59425  0.81023  1.0000
  H   H613      1.0  0.38837  0.48026  0.97483  1.0000
  H   H614      1.0  0.06222  0.52633  0.89780  1.0000
  H   H615      1.0  0.13912  0.49940  0.84304  1.0000
  H   H616      1.0  0.09884  0.53022  0.84164  1.0000
  H   H617      1.0  0.29448  0.51340  0.94669  1.0000
  H   H618      1.0  0.03092  0.36866  0.77500  1.0000
  S   S165      1.0  0.02336  0.41636  0.90347  1.0000
  H   H619      1.0  0.38473  0.49597  0.90453  1.0000
  Fe  Fe90      1.0  0.45937  0.63608  0.78741  1.0000
  H   H620      1.0  0.33016  0.52054  0.97631  1.0000
  H   H621      1.0  0.41598  0.54641  0.82145  1.0000
  S   S166      1.0  0.49563  0.58500  0.78350  1.0000
  C   C389      1.0  0.48008  0.53853  0.90312  1.0000
  H   H622      1.0  0.47374  0.47908  0.90950  1.0000
  C   C390      1.0  0.47096  0.57643  0.95067  1.0000
  C   C391      1.0  0.46321  0.54376  0.96810  1.0000
  C   C392      1.0  0.46410  0.50888  0.95305  1.0000
  C   C393      1.0  0.47278  0.50626  0.92081  1.0000
  H   H623      1.0  0.30200  0.51161  0.80897  1.0000
  H   H624      1.0  0.10033  0.49280  0.89651  1.0000
  H   H625      1.0  0.45873  0.48370  0.96657  1.0000
  C   C394      1.0  0.36866  0.34244  0.91989  1.0000
  H   H626      1.0  0.10969  0.44130  0.77439  1.0000
  H   H627      1.0  0.10613  0.57950  0.89982  1.0000
  S   S167      1.0  0.04789  0.45764  0.98573  1.0000
  N   N37       1.0  0.34428  0.48048  0.93993  1.0000
  C   C395      1.0  0.36347  0.50915  0.92041  1.0000
  C   C396      1.0  0.37236  0.46051  0.95947  1.0000
  C   C397      1.0  0.31659  0.49899  0.96088  1.0000
  C   C398      1.0  0.32473  0.45334  0.91904  1.0000
  C   C399      1.0  0.08213  0.50973  0.91252  1.0000
  H   H628      1.0  0.14419  0.44672  0.80472  1.0000
  H   H629      1.0  0.06245  0.53435  0.97024  1.0000
  H   H630      1.0  0.37873  0.52988  0.93552  1.0000
  H   H631      1.0  0.09540  0.57263  0.97238  1.0000
  H   H632      1.0  0.05582  0.47481  0.84470  1.0000
  H   H633      1.0  0.34307  0.52490  0.90545  1.0000
  H   H634      1.0  0.15088  0.49526  0.93546  1.0000
  C   C400      1.0  0.34048  0.35921  0.97024  1.0000
  S   S168      1.0  0.22502  0.34021  0.84018  1.0000
  H   H635      1.0  0.11152  0.66409  0.80464  1.0000
  C   C401      1.0  0.47909  0.57380  0.91796  1.0000
  H   H636      1.0  0.11693  0.48966  0.96644  1.0000
  N   N38       1.0  0.09742  0.48453  0.80834  1.0000
  C   C402      1.0  0.07068  0.50371  0.78697  1.0000
  C   C403      1.0  0.07651  0.45918  0.82989  1.0000
  C   C404      1.0  0.11822  0.51291  0.82700  1.0000
  C   C405      1.0  0.12431  0.46243  0.78928  1.0000
  Fe  Fe91      1.0  0.02073  0.41250  0.95669  1.0000
  H   H637      1.0  0.25955  0.65973  0.84591  1.0000
  H   H638      1.0  0.05496  0.48319  0.77208  1.0000
  H   H639      1.0  0.06487  0.48953  0.92647  1.0000
  H   H640      1.0  0.31846  0.57913  0.80353  1.0000
  H   H641      1.0  0.08536  0.52371  0.77080  1.0000
  H   H642      1.0  0.32252  0.51008  0.84794  1.0000
  H   H643      1.0  0.28013  0.36277  0.97051  1.0000
  H   H644      1.0  0.02466  0.35011  0.83203  1.0000
  S   S169      1.0  0.40572  0.64397  0.76145  1.0000
  H   H645      1.0  0.06068  0.43745  0.81639  1.0000
  H   H646      1.0  0.13416  0.53240  0.81119  1.0000
  S   S170      1.0  0.45467  0.63460  0.84036  1.0000
  C   C406      1.0  0.30476  0.35722  0.95635  1.0000
  N   N39       1.0  0.35778  0.53432  0.81174  1.0000
  C   C407      1.0  0.34442  0.57309  0.81745  1.0000
  C   C408      1.0  0.39295  0.52757  0.82958  1.0000
  C   C409      1.0  0.32876  0.50738  0.82220  1.0000
  C   C410      1.0  0.36479  0.52910  0.77745  1.0000
  S   S171      1.0  0.30237  0.45741  0.75645  1.0000
  H   H647      1.0  0.34479  0.43800  0.90344  1.0000
  H   H648      1.0  0.04968  0.52001  0.80086  1.0000
  S   S172      1.0  0.09615  0.60670  0.75964  1.0000
  H   H649      1.0  0.05916  0.57250  0.94282  1.0000
  H   H650      1.0  0.38916  0.53259  0.85541  1.0000
  Fe  Fe92      1.0  0.47672  0.34239  0.96368  1.0000
  C   C411      1.0  0.37223  0.35184  0.95193  1.0000
  H   H651      1.0  0.30385  0.46750  0.90339  1.0000
  H   H652      1.0  0.48474  0.59886  0.90434  1.0000
  H   H653      1.0  0.33757  0.57773  0.84294  1.0000
  N   N40       1.0  0.10465  0.53419  0.93355  1.0000
  C   C412      1.0  0.12553  0.56185  0.91421  1.0000
  C   C413      1.0  0.07942  0.55427  0.95575  1.0000
  C   C414      1.0  0.13166  0.51097  0.95162  1.0000
  H   H654      1.0  0.27549  0.65270  0.78825  1.0000
  S   S173      1.0  0.15614  0.62843  0.98812  1.0000
  H   H655      1.0  0.02957  0.64928  0.96226  1.0000
  C   C415      1.0  0.09098  0.36382  0.77464  1.0000
  Fe  Fe93      1.0  0.22705  0.34241  0.78693  1.0000
  C   C416      1.0  0.05548  0.36201  0.78882  1.0000
  H   H656      1.0  0.46999  0.60356  0.96226  1.0000
  C   C417      1.0  0.11953  0.34480  0.82424  1.0000
  C   C418      1.0  0.33326  0.34062  0.90580  1.0000
  H   H657      1.0  0.14440  0.33852  0.83789  1.0000
  H   H658      1.0  0.01661  0.65407  0.90407  1.0000
  C   C419      1.0  0.30111  0.34824  0.92391  1.0000
  C   C420      1.0  0.05207  0.35187  0.82101  1.0000
  Fe  Fe94      1.0  0.49582  0.58739  0.83666  1.0000
  S   S174      1.0  0.49158  0.53342  0.86282  1.0000
  S   S175      1.0  0.34824  0.63121  0.99208  1.0000
  C   C421      1.0  0.08429  0.34307  0.83862  1.0000
  H   H659      1.0  0.39346  0.33716  0.90581  1.0000
  H   H660      1.0  0.16053  0.66194  0.84588  1.0000
  C   C422      1.0  0.32219  0.76312  0.04404  1.0000
  H   H661      1.0  0.38972  0.73521  0.02751  1.0000
  Fe  Fe95      1.0  0.28843  0.87516  0.04183  1.0000
  S   S176      1.0  0.24259  0.83253  0.03749  1.0000
  H   H662      1.0  0.14047  0.93499  0.24011  1.0000
  Fe  Fe96      1.0  0.20432  0.88200  0.04175  1.0000
  S   S177      1.0  0.25020  0.92488  0.04039  1.0000
  H   H663      1.0  0.35615  0.67356  0.15843  1.0000
  Fe  Fe97      1.0  0.24257  0.83442  0.09061  1.0000
  S   S178      1.0  0.19984  0.88018  0.09472  1.0000
  S   S179      1.0  0.23892  0.77987  0.11591  1.0000
  C   C423      1.0  0.22716  0.78465  0.15614  1.0000
  C   C424      1.0  0.22650  0.81988  0.17101  1.0000
  C   C425      1.0  0.21861  0.82253  0.20372  1.0000
  C   C426      1.0  0.21084  0.78991  0.22116  1.0000
  C   C427      1.0  0.21113  0.75500  0.20607  1.0000
  C   C428      1.0  0.21950  0.75236  0.17374  1.0000
  H   H664      1.0  0.23241  0.84488  0.15741  1.0000
  H   H665      1.0  0.21806  0.84962  0.21537  1.0000
  H   H666      1.0  0.20573  0.72977  0.21959  1.0000
  H   H667      1.0  0.22007  0.72517  0.16235  1.0000
  Fe  Fe98      1.0  0.24964  0.91841  0.09323  1.0000
  S   S180      1.0  0.29224  0.87237  0.09479  1.0000
  S   S181      1.0  0.25492  0.97126  0.12083  1.0000
  C   C429      1.0  0.27093  0.96422  0.15974  1.0000
  C   C430      1.0  0.26882  0.92892  0.17437  1.0000
  C   C431      1.0  0.27762  0.92520  0.20684  1.0000
  C   C432      1.0  0.28969  0.95664  0.22410  1.0000
  C   C433      1.0  0.49082  0.78483  0.09972  1.0000
  C   C434      1.0  0.02493  0.99756  0.07867  1.0000
  H   H668      1.0  0.25920  0.90492  0.16100  1.0000
  H   H669      1.0  0.27521  0.89821  0.21850  1.0000
  C   C435      1.0  0.07347  0.69774  0.16579  1.0000
  H   H670      1.0  0.34667  0.74264  0.15298  1.0000
  H   H671      1.0  0.10400  0.84550  0.07677  1.0000
  H   H672      1.0  0.38129  0.83445  0.18513  1.0000
  H   H673      1.0  0.11057  0.81294  0.10897  1.0000
  S   S182      1.0  0.15066  0.88668  0.01520  1.0000
  S   S183      1.0  0.00451  0.96943  0.13605  1.0000
  H   H674      1.0  0.33635  0.82222  0.22860  1.0000
  H   H675      1.0  0.42983  0.98931  0.23127  1.0000
  H   H676      1.0  0.33830  0.78312  0.02882  1.0000
  H   H677      1.0  0.04882  0.72243  0.22276  1.0000
  H   H678      1.0  0.34943  0.93130  0.07606  1.0000
  H   H679      1.0  0.14010  0.68724  0.19359  1.0000
  H   H680      1.0  0.06145  0.75011  0.07947  1.0000
  Fe  Fe99      1.0  0.45877  0.87055  0.21777  1.0000
  H   H681      1.0  0.09868  0.72766  0.05831  1.0000
  C   C436      1.0  0.28365  0.99513  0.17699  1.0000
  H   H682      1.0  0.12873  0.77241  0.18525  1.0000
  S   S184      1.0  0.45436  0.87154  0.16470  1.0000
  H   H683      1.0  0.13538  0.73903  0.15397  1.0000
  S   S185      1.0  0.05100  0.70678  0.00819  1.0000
  C   C437      1.0  0.15535  0.95915  0.22911  1.0000
  C   C438      1.0  0.47943  0.82350  0.05312  1.0000
  C   C439      1.0  0.46646  0.79190  0.03665  1.0000
  C   C440      1.0  0.46582  0.75700  0.05170  1.0000
  C   C441      1.0  0.47798  0.75350  0.08312  1.0000
  H   H684      1.0  0.38529  0.93512  0.10587  1.0000
  H   H685      1.0  0.06510  0.81815  0.09101  1.0000
  H   H686      1.0  0.45634  0.73250  0.03894  1.0000
  H   H687      1.0  0.47689  0.72655  0.09475  1.0000
  H   H688      1.0  0.43016  0.97279  0.03272  1.0000
  H   H689      1.0  0.09273  0.82366  0.02325  1.0000
  H   H690      1.0  0.15639  0.81326  0.04775  1.0000
  H   H691      1.0  0.49806  0.90746  0.09803  1.0000
  H   H692      1.0  0.43287  0.93740  0.06270  1.0000
  C   C442      1.0  0.17519  0.98907  0.18058  1.0000
  H   H693      1.0  0.18635  0.96784  0.07871  1.0000
  H   H694      1.0  0.34644  0.96765  0.10561  1.0000
  C   C443      1.0  0.32491  0.71466  0.08415  1.0000
  Fe  Fe100     1.0  0.00309  0.91463  0.16147  1.0000
  H   H695      1.0  0.02014  0.90177  0.03490  1.0000
  Fe  Fe101     1.0  0.04301  0.86936  0.21140  1.0000
  H   H696      1.0  0.10911  0.96265  0.15844  1.0000
  H   H697      1.0  0.10424  0.68157  0.22281  1.0000
  S   S186      1.0  0.04897  0.87182  0.15856  1.0000
  H   H698      1.0  0.05408  0.71284  0.14941  1.0000
  C   C444      1.0  0.01549  0.96526  0.09560  1.0000
  H   H699      1.0  0.30019  0.81973  0.19902  1.0000
  C   C445      1.0  0.02116  0.92848  0.04710  1.0000
  C   C446      1.0  0.03054  0.96111  0.03026  1.0000
  C   C447      1.0  0.01379  0.93059  0.07994  1.0000
  H   H700      1.0  0.34577  0.82905  0.15536  1.0000
  N   N41       1.0  0.34751  0.73989  0.06376  1.0000
  C   C448      1.0  0.16605  0.92179  0.18231  1.0000
  H   H701      1.0  0.05454  0.79375  0.03521  1.0000
  H   H702      1.0  0.14374  0.98568  0.23910  1.0000
  C   C449      1.0  0.37101  0.76475  0.08367  1.0000
  S   S187      1.0  0.49523  0.97058  0.14133  1.0000
  H   H703      1.0  0.15403  0.96257  0.04606  1.0000
  C   C450      1.0  0.37198  0.71714  0.04297  1.0000
  N   N42       1.0  0.38785  0.97702  0.06917  1.0000
  C   C451      1.0  0.29337  0.99127  0.20895  1.0000
  S   S188      1.0  0.40566  0.86515  0.24538  1.0000
  S   S189      1.0  0.09579  0.86560  0.23930  1.0000
  H   H704      1.0  0.19532  0.91650  0.19034  1.0000
  H   H705      1.0  0.20478  0.98751  0.18901  1.0000
  S   S190      1.0  0.00181  0.91659  0.21466  1.0000
  H   H706      1.0  0.43125  0.98733  0.10346  1.0000
  H   H707      1.0  0.18530  0.95753  0.23679  1.0000
  H   H708      1.0  0.39123  0.69901  0.05707  1.0000
  H   H709      1.0  0.13506  0.72183  0.22412  1.0000
  N   N43       1.0  0.10495  0.78738  0.06296  1.0000
  C   C452      1.0  0.09236  0.75064  0.07540  1.0000
  C   C453      1.0  0.08567  0.79522  0.03254  1.0000
  C   C454      1.0  0.09578  0.81732  0.08601  1.0000
  C   C455      1.0  0.14603  0.78630  0.05783  1.0000
  H   H710      1.0  0.10662  0.74333  0.09803  1.0000
  H   H711      1.0  0.09447  0.76897  0.15393  1.0000
  H   H712      1.0  0.30291  0.78002  0.05918  1.0000
  H   H713      1.0  0.09339  0.77426  0.01409  1.0000
  H   H714      1.0  0.38787  0.80078  0.15387  1.0000
  H   H715      1.0  0.36380  0.74128  0.22280  1.0000
  H   H716      1.0  0.34375  0.98046  0.03451  1.0000
  H   H717      1.0  0.15395  0.76328  0.04125  1.0000
  C   C456      1.0  0.11253  0.96351  0.18472  1.0000
  H   H718      1.0  0.14863  0.89811  0.19144  1.0000
  H   H719      1.0  0.16146  0.78108  0.08047  1.0000
  N   N44       1.0  0.09271  0.72392  0.18774  1.0000
  C   C457      1.0  0.11369  0.75239  0.16934  1.0000
  H   H720      1.0  0.30689  0.69565  0.06973  1.0000
  C   C458      1.0  0.11911  0.70279  0.20810  1.0000
  C   C459      1.0  0.06444  0.74293  0.20779  1.0000
  H   H721      1.0  0.16575  0.92058  0.15593  1.0000
  H   H722      1.0  0.41430  0.97975  0.16120  1.0000
  S   S191      1.0  0.29630  0.70579  0.24324  1.0000
  H   H723      1.0  0.05654  0.67662  0.17895  1.0000
  H   H724      1.0  0.13649  0.97117  0.08525  1.0000
  H   H725      1.0  0.09385  0.68183  0.15093  1.0000
  C   C460      1.0  0.49152  0.81995  0.08481  1.0000
  S   S192      1.0  0.34283  0.87284  0.01616  1.0000
  H   H726      1.0  0.39672  0.93479  0.03319  1.0000
  H   H727      1.0  0.38015  0.97556  0.19247  1.0000
  N   N45       1.0  0.34805  0.78450  0.18977  1.0000
  C   C461      1.0  0.37683  0.76362  0.20791  1.0000
  C   C462      1.0  0.32157  0.80290  0.21196  1.0000
  C   C463      1.0  0.32736  0.75813  0.16909  1.0000
  C   C464      1.0  0.36657  0.81342  0.17004  1.0000
  H   H728      1.0  0.39722  0.74936  0.19183  1.0000
  H   H729      1.0  0.39294  0.78276  0.22375  1.0000
  C   C465      1.0  0.36144  0.99907  0.04952  1.0000
  C   C466      1.0  0.41286  0.95454  0.04848  1.0000
  H   H730      1.0  0.47940  0.85060  0.04156  1.0000
  H   H731      1.0  0.00649  0.90566  0.09309  1.0000
  H   H732      1.0  0.30611  0.77298  0.15441  1.0000
  H   H733      1.0  0.39072  0.74822  0.09873  1.0000
  H   H734      1.0  0.31192  0.73677  0.18330  1.0000
  H   H735      1.0  0.35344  0.78255  0.09945  1.0000
  H   H736      1.0  0.07769  0.76414  0.22373  1.0000
  N   N46       1.0  0.15224  0.95838  0.19412  1.0000
  H   H737      1.0  0.09436  0.94116  0.19505  1.0000
  H   H738      1.0  0.30599  0.78197  0.22653  1.0000
  H   H739      1.0  0.04338  0.75780  0.19283  1.0000
  H   H740      1.0  0.30595  0.73068  0.10023  1.0000
  H   H741      1.0  0.34311  0.69631  0.09909  1.0000
  C   C467      1.0  0.39398  0.99580  0.17599  1.0000
  H   H742      1.0  0.30448  0.74538  0.02823  1.0000
  H   H743      1.0  0.38855  0.78385  0.06879  1.0000
  C   C468      1.0  0.36631  0.95166  0.09018  1.0000
  H   H744      1.0  0.35523  0.69809  0.02766  1.0000
  S   S193      1.0  0.49803  0.91952  0.22107  1.0000
  C   C469      1.0  0.15955  0.97837  0.06844  1.0000
  Fe  Fe102     1.0  0.00191  0.83033  0.15893  1.0000
  H   H745      1.0  0.46419  0.99583  0.20054  1.0000
  H   H746      1.0  0.10148  0.99119  0.19288  1.0000
  S   S194      1.0  0.00408  0.77751  0.13090  1.0000
  S   S195      1.0  0.41842  0.67665  0.11691  1.0000
  C   C470      1.0  0.03245  0.99548  0.04614  1.0000
  S   S196      1.0  0.16918  0.67118  0.13318  1.0000
  Fe  Fe103     1.0  0.49802  0.91651  0.16789  1.0000
  H   H747      1.0  0.17574  0.98818  0.15421  1.0000
  H   H748      1.0  0.04185  0.76731  0.46724  1.0000
  H   H749      1.0  0.07603  0.98540  0.42638  1.0000
  H   H750      1.0  0.19380  0.77978  0.40177  1.0000
  C   C471      1.0  0.02362  0.67679  0.41837  1.0000
  H   H751      1.0  0.29808  0.96264  0.40574  1.0000
  H   H752      1.0  0.19855  0.77085  0.47469  1.0000
  S   S197      1.0  0.26978  0.91303  0.34499  1.0000
  Fe  Fe104     1.0  0.28105  0.85126  0.34257  1.0000
  S   S198      1.0  0.32728  0.82365  0.37004  1.0000
  C   C472      1.0  0.33889  0.84953  0.47546  1.0000
  C   C473      1.0  0.30315  0.85049  0.46150  1.0000
  C   C474      1.0  0.29908  0.84352  0.42875  1.0000
  C   C475      1.0  0.33078  0.83509  0.41033  1.0000
  C   C476      1.0  0.36624  0.83411  0.42447  1.0000
  C   C477      1.0  0.37029  0.84158  0.45685  1.0000
  H   H753      1.0  0.27881  0.85667  0.47588  1.0000
  H   H754      1.0  0.27155  0.84396  0.41784  1.0000
  H   H755      1.0  0.39079  0.82826  0.41020  1.0000
  H   H756      1.0  0.39789  0.84118  0.46749  1.0000
  S   S199      1.0  0.28578  0.84913  0.28950  1.0000
  Fe  Fe105     1.0  0.20922  0.89650  0.34095  1.0000
  S   S200      1.0  0.16161  0.92136  0.36900  1.0000
  C   C478      1.0  0.15858  0.89175  0.47440  1.0000
  C   C479      1.0  0.19317  0.89178  0.45848  1.0000
  C   C480      1.0  0.19458  0.90007  0.42573  1.0000
  C   C481      1.0  0.16141  0.90881  0.40930  1.0000
  C   C482      1.0  0.12718  0.90880  0.42547  1.0000
  C   C483      1.0  0.12580  0.90027  0.45782  1.0000
  H   H757      1.0  0.21863  0.88518  0.47125  1.0000
  H   H758      1.0  0.22119  0.90025  0.41331  1.0000
  S   S201      1.0  0.20785  0.89901  0.28759  1.0000
  Fe  Fe106     1.0  0.22404  0.83826  0.29019  1.0000
  C   C484      1.0  0.03270  0.94341  0.31731  1.0000
  S   S202      1.0  0.22050  0.83472  0.34338  1.0000
  Fe  Fe107     1.0  0.26970  0.90974  0.29171  1.0000
  H   H759      1.0  0.41265  0.76680  0.43666  1.0000
  H   H760      1.0  0.44021  0.80069  0.28261  1.0000
  H   H761      1.0  0.27065  0.77282  0.34121  1.0000
  H   H762      1.0  0.29317  0.96816  0.47930  1.0000
  C   C485      1.0  0.40351  0.72670  0.32314  1.0000
  H   H763      1.0  0.35307  0.98022  0.35632  1.0000
  C   C486      1.0  0.37113  0.77997  0.30082  1.0000
  S   S203      1.0  0.04400  0.95814  0.48622  1.0000
  N   N47       1.0  0.40717  0.76670  0.31417  1.0000
  H   H764      1.0  0.34566  0.68932  0.44958  1.0000
  C   C487      1.0  0.40946  0.88261  0.28418  1.0000
  C   C488      1.0  0.44413  0.88425  0.29978  1.0000
  C   C489      1.0  0.44597  0.89625  0.33160  1.0000
  C   C490      1.0  0.41306  0.90665  0.34757  1.0000
  C   C491      1.0  0.37866  0.90541  0.33170  1.0000
  C   C492      1.0  0.37694  0.89356  0.30010  1.0000
  H   H765      1.0  0.46920  0.87554  0.28748  1.0000
  Fe  Fe108     1.0  0.03150  0.85025  0.41092  1.0000
  C   C493      1.0  0.11892  0.69012  0.33360  1.0000
  Fe  Fe109     1.0  0.47762  0.84056  0.46610  1.0000
  Fe  Fe110     1.0  0.01673  0.91052  0.46002  1.0000
  S   S204      1.0  0.47558  0.83766  0.41296  1.0000
  H   H766      1.0  0.46492  0.76173  0.29995  1.0000
  H   H767      1.0  0.35036  0.89310  0.28786  1.0000
  C   C494      1.0  0.31781  0.94693  0.42137  1.0000
  C   C495      1.0  0.08907  0.85070  0.27856  1.0000
  C   C496      1.0  0.05321  0.84895  0.29217  1.0000
  C   C497      1.0  0.04915  0.84041  0.32468  1.0000
  C   C498      1.0  0.08109  0.83337  0.34320  1.0000
  C   C499      1.0  0.11655  0.83405  0.32919  1.0000
  C   C500      1.0  0.12054  0.84283  0.29706  1.0000
  H   H768      1.0  0.02889  0.85494  0.27779  1.0000
  S   S205      1.0  0.45771  0.90006  0.46913  1.0000
  H   H769      1.0  0.14113  0.82908  0.34355  1.0000
  H   H770      1.0  0.14818  0.84440  0.28670  1.0000
  H   H771      1.0  0.12296  0.99372  0.41173  1.0000
  H   H772      1.0  0.37271  0.97974  0.28687  1.0000
  H   H773      1.0  0.37262  0.81002  0.29361  1.0000
  S   S206      1.0  0.01818  0.91152  0.40673  1.0000
  S   S207      1.0  0.03542  0.85069  0.46414  1.0000
  H   H774      1.0  0.10285  0.91456  0.31947  1.0000
  H   H775      1.0  0.02157  0.83915  0.33541  1.0000
  H   H776      1.0  0.09917  0.90042  0.47010  1.0000
  S   S208      1.0  0.45397  0.79213  0.49315  1.0000
  C   C501      1.0  0.16687  0.69654  0.29342  1.0000
  H   H777      1.0  0.20332  0.73463  0.44539  1.0000
  H   H778      1.0  0.44468  0.78137  0.35246  1.0000
  H   H779      1.0  0.42998  0.71590  0.33385  1.0000
  C   C502      1.0  0.26210  0.71360  0.34728  1.0000
  C   C503      1.0  0.09906  0.94081  0.30546  1.0000
  H   H780      1.0  0.09372  0.75532  0.30947  1.0000
  N   N48       1.0  0.14031  0.71720  0.31409  1.0000
  H   H781      1.0  0.45320  0.73816  0.43203  1.0000
  C   C504      1.0  0.27082  0.74568  0.32981  1.0000
  C   C505      1.0  0.36164  0.71241  0.43794  1.0000
  H   H782      1.0  0.14326  0.81246  0.47431  1.0000
  H   H783      1.0  0.35314  0.91294  0.34401  1.0000
  H   H784      1.0  0.28700  0.76779  0.28434  1.0000
  H   H785      1.0  0.19082  0.81656  0.43075  1.0000
  H   H786      1.0  0.11792  0.72135  0.43763  1.0000
  H   H787      1.0  0.03404  0.91713  0.33158  1.0000
  C   C506      1.0  0.03186  0.67426  0.45103  1.0000
  H   H788      1.0  0.44265  0.70576  0.48048  1.0000
  H   H789      1.0  0.18148  0.72730  0.35039  1.0000
  H   H790      1.0  0.43139  0.75363  0.26874  1.0000
  H   H791      1.0  0.35174  0.73955  0.44816  1.0000
  H   H792      1.0  0.41866  0.73944  0.40103  1.0000
  N   N49       1.0  0.15453  0.76940  0.43977  1.0000
  C   C507      1.0  0.17410  0.79516  0.41769  1.0000
  C   C508      1.0  0.13328  0.74095  0.42156  1.0000
  C   C509      1.0  0.18252  0.75030  0.46007  1.0000
  C   C510      1.0  0.12826  0.79107  0.45985  1.0000
  N   N50       1.0  0.33689  0.97209  0.44425  1.0000
  H   H793      1.0  0.02673  0.77162  0.41020  1.0000
  H   H794      1.0  0.18407  0.71605  0.27872  1.0000
  H   H795      1.0  0.16893  0.72968  0.47634  1.0000
  H   H796      1.0  0.37946  0.98948  0.41123  1.0000
  H   H797      1.0  0.41744  0.81981  0.33700  1.0000
  H   H798      1.0  0.05460  0.98932  0.36357  1.0000
  H   H799      1.0  0.11223  0.77241  0.47615  1.0000
  H   H800      1.0  0.34894  0.92853  0.47813  1.0000
  H   H801      1.0  0.38041  0.72260  0.34064  1.0000
  H   H802      1.0  0.19577  0.98167  0.29197  1.0000
  H   H803      1.0  0.15391  0.81082  0.40244  1.0000
  H   H804      1.0  0.31961  0.98094  0.32462  1.0000
  H   H805      1.0  0.14225  0.75941  0.35056  1.0000
  Fe  Fe111     1.0  0.46130  0.89878  0.41582  1.0000
  H   H806      1.0  0.39930  0.68197  0.48854  1.0000
  C   C511      1.0  0.43725  0.77085  0.29023  1.0000
  H   H807      1.0  0.09780  0.70464  0.34887  1.0000
  N   N51       1.0  0.06866  0.96415  0.31885  1.0000
  H   H808      1.0  0.21366  0.97657  0.34841  1.0000
  S   S209      1.0  0.19887  0.79153  0.26142  1.0000
  C   C512      1.0  0.28053  0.74277  0.29776  1.0000
  H   H809      1.0  0.39547  0.78558  0.36160  1.0000
  C   C513      1.0  0.03893  0.70704  0.46852  1.0000
  C   C514      1.0  0.28154  0.70779  0.28287  1.0000
  S   S210      1.0  0.41411  0.92286  0.38680  1.0000
  H   H810      1.0  0.39680  0.70881  0.30211  1.0000
  C   C515      1.0  0.41168  0.70689  0.47654  1.0000
  H   H811      1.0  0.09715  0.72065  0.27856  1.0000
  N   N52       1.0  0.40259  0.70758  0.44230  1.0000
  S   S211      1.0  0.24909  0.71851  0.38725  1.0000
  H   H812      1.0  0.33827  0.93208  0.40579  1.0000
  H   H813      1.0  0.30125  0.92487  0.43376  1.0000
  H   H814      1.0  0.34814  0.77777  0.31860  1.0000
  H   H815      1.0  0.10148  0.91488  0.41292  1.0000
  S   S212      1.0  0.01047  0.71711  0.36339  1.0000
  S   S213      1.0  0.07823  0.82281  0.38370  1.0000
  H   H816      1.0  0.08076  0.94639  0.36636  1.0000
  H   H817      1.0  0.12662  0.95564  0.30602  1.0000
  H   H818      1.0  0.40135  0.73262  0.48867  1.0000
  C   C516      1.0  0.42253  0.73931  0.42718  1.0000
  C   C517      1.0  0.27262  0.67537  0.30018  1.0000
  H   H819      1.0  0.38406  0.93477  0.44834  1.0000
  C   C518      1.0  0.11385  0.73920  0.29442  1.0000
  C   C519      1.0  0.30855  0.98966  0.46516  1.0000
  H   H820      1.0  0.38016  0.96841  0.47975  1.0000
  H   H821      1.0  0.10732  0.80647  0.44514  1.0000
  H   H822      1.0  0.47267  0.89774  0.34378  1.0000
  C   C520      1.0  0.03717  0.74198  0.45365  1.0000
  C   C521      1.0  0.41674  0.78924  0.34255  1.0000
  S   S214      1.0  0.30089  0.95397  0.26447  1.0000
  C   C522      1.0  0.16143  0.74289  0.33507  1.0000
  H   H823      1.0  0.11183  0.75439  0.40599  1.0000
  H   H824      1.0  0.09295  0.93256  0.28056  1.0000
  H   H825      1.0  0.44885  0.98306  0.47033  1.0000
  C   C523      1.0  0.02200  0.71207  0.40364  1.0000
  C   C524      1.0  0.02848  0.74445  0.42141  1.0000
  C   C525      1.0  0.26311  0.67833  0.33257  1.0000
  H   H826      1.0  0.46096  0.97795  0.41282  1.0000
  H   H827      1.0  0.15229  0.72380  0.40642  1.0000
  H   H828      1.0  0.36242  0.76309  0.27986  1.0000
  C   C526      1.0  0.36362  0.95007  0.46360  1.0000
  C   C527      1.0  0.07746  0.97270  0.35232  1.0000
  H   H829      1.0  0.10445  0.98829  0.35436  1.0000
  H   H830      1.0  0.17833  0.76334  0.32110  1.0000
  H   H831      1.0  0.35380  0.71260  0.41232  1.0000
  H   H832      1.0  0.12899  0.76004  0.27941  1.0000
  H   H833      1.0  0.02548  0.93539  0.29251  1.0000
  H   H834      1.0  0.15202  0.67697  0.27704  1.0000
  H   H835      1.0  0.40619  0.98144  0.31864  1.0000
  H   H836      1.0  0.18698  0.67951  0.30763  1.0000
  S   S215      1.0  0.25123  0.66725  0.46661  1.0000
  H   H837      1.0  0.00901  0.96039  0.32702  1.0000
  H   H838      1.0  0.11439  0.98862  0.45346  1.0000
  C   C528      1.0  0.41470  0.67180  0.42770  1.0000
  H   H839      1.0  0.40910  0.67141  0.40172  1.0000
  S   S216      1.0  0.00470  0.66838  0.28369  1.0000
  H   H840      1.0  0.44528  0.66708  0.43125  1.0000
  H   H841      1.0  0.10353  0.66982  0.31828  1.0000
  H   H842      1.0  0.13786  0.67358  0.34931  1.0000
  C   C529      1.0  0.33713  0.99913  0.34018  1.0000
  C   C530      1.0  0.38846  0.99918  0.30277  1.0000
  H   H843      1.0  0.05863  0.99399  0.27527  1.0000
  C   C531      1.0  0.06558  0.99952  0.30061  1.0000
  C   C532      1.0  0.37792  0.73758  0.56041  1.0000
  H   H844      1.0  0.31456  0.74083  0.68200  1.0000
  Fe  Fe112     1.0  0.29182  0.86573  0.54226  1.0000
  S   S217      1.0  0.24377  0.82535  0.54040  1.0000
  C   C533      1.0  0.41815  0.94845  0.54640  1.0000
  Fe  Fe113     1.0  0.20827  0.87698  0.54166  1.0000
  S   S218      1.0  0.25631  0.91726  0.53810  1.0000
  S   S219      1.0  0.40424  0.88046  0.74435  1.0000
  Fe  Fe114     1.0  0.24394  0.83127  0.59333  1.0000
  S   S220      1.0  0.20400  0.87967  0.59471  1.0000
  S   S221      1.0  0.23611  0.77837  0.62057  1.0000
  C   C534      1.0  0.22603  0.78399  0.66103  1.0000
  C   C535      1.0  0.22813  0.81912  0.67599  1.0000
  C   C536      1.0  0.22090  0.82213  0.70881  1.0000
  C   C537      1.0  0.21094  0.79006  0.72623  1.0000
  C   C538      1.0  0.20860  0.75531  0.71101  1.0000
  C   C539      1.0  0.21640  0.75224  0.67863  1.0000
  H   H845      1.0  0.23547  0.84377  0.66239  1.0000
  H   H846      1.0  0.22239  0.84915  0.72053  1.0000
  H   H847      1.0  0.20172  0.73044  0.72444  1.0000
  H   H848      1.0  0.21504  0.72507  0.66722  1.0000
  Fe  Fe115     1.0  0.25596  0.91464  0.59122  1.0000
  S   S222      1.0  0.29587  0.86643  0.59526  1.0000
  S   S223      1.0  0.26421  0.96841  0.61695  1.0000
  C   C540      1.0  0.27398  0.96311  0.65752  1.0000
  C   C541      1.0  0.27367  0.92783  0.67235  1.0000
  C   C542      1.0  0.28065  0.92503  0.70522  1.0000
  C   C543      1.0  0.28819  0.95755  0.72290  1.0000
  S   S224      1.0  0.16832  0.67054  0.63335  1.0000
  H   H849      1.0  0.19233  0.96541  0.72876  1.0000
  H   H850      1.0  0.26796  0.90288  0.65859  1.0000
  H   H851      1.0  0.28083  0.89788  0.71679  1.0000
  C   C544      1.0  0.38220  0.66975  0.67075  1.0000
  H   H852      1.0  0.15794  0.73730  0.56046  1.0000
  S   S225      1.0  0.49359  0.77854  0.63851  1.0000
  H   H853      1.0  0.38445  0.76107  0.54377  1.0000
  H   H854      1.0  0.47269  0.85012  0.53975  1.0000
  H   H855      1.0  0.13303  0.73772  0.65704  1.0000
  H   H856      1.0  0.21078  0.99327  0.56420  1.0000
  H   H857      1.0  0.36588  0.74407  0.72202  1.0000
  S   S226      1.0  0.15465  0.87990  0.51472  1.0000
  H   H858      1.0  0.16031  0.99605  0.50539  1.0000
  C   C545      1.0  0.13548  0.93915  0.66771  1.0000
  H   H859      1.0  0.34073  0.82539  0.72846  1.0000
  C   C546      1.0  0.41827  0.99442  0.58856  1.0000
  H   H860      1.0  0.38776  0.74617  0.58445  1.0000
  Fe  Fe116     1.0  0.45768  0.87615  0.71737  1.0000
  H   H861      1.0  0.19937  0.92903  0.70008  1.0000
  C   C547      1.0  0.01423  0.96648  0.59131  1.0000
  H   H862      1.0  0.35043  0.83316  0.65534  1.0000
  S   S227      1.0  0.45407  0.87853  0.66430  1.0000
  C   C548      1.0  0.48189  0.81979  0.58376  1.0000
  H   H863      1.0  0.09046  0.68224  0.64957  1.0000
  S   S228      1.0  0.09384  0.88305  0.73960  1.0000
  C   C549      1.0  0.47400  0.82286  0.55104  1.0000
  C   C550      1.0  0.46678  0.79038  0.53321  1.0000
  C   C551      1.0  0.46792  0.75533  0.54784  1.0000
  C   C552      1.0  0.47575  0.75235  0.58018  1.0000
  Fe  Fe117     1.0  0.00188  0.83484  0.66130  1.0000
  H   H864      1.0  0.29573  0.70852  0.52750  1.0000
  H   H865      1.0  0.46276  0.73036  0.53404  1.0000
  H   H866      1.0  0.10114  0.81772  0.52990  1.0000
  C   C553      1.0  0.31558  0.76159  0.56986  1.0000
  N   N53       1.0  0.33747  0.72819  0.56041  1.0000
  H   H867      1.0  0.06566  0.81429  0.55996  1.0000
  H   H868      1.0  0.45087  0.97464  0.69856  1.0000
  H   H869      1.0  0.09787  0.67670  0.72232  1.0000
  H   H870      1.0  0.06935  0.76417  0.60061  1.0000
  C   C554      1.0  0.41713  0.66842  0.65575  1.0000
  C   C555      1.0  0.33036  0.69719  0.58301  1.0000
  C   C556      1.0  0.32599  0.71638  0.52821  1.0000
  H   H871      1.0  0.10607  0.96831  0.72103  1.0000
  H   H872      1.0  0.34722  0.67185  0.57690  1.0000
  Fe  Fe118     1.0  0.04081  0.88001  0.71178  1.0000
  C   C557      1.0  0.17685  0.99270  0.67106  1.0000
  H   H873      1.0  0.30449  0.82439  0.69889  1.0000
  S   S229      1.0  0.04718  0.87814  0.65890  1.0000
  H   H874      1.0  0.41524  0.97045  0.72865  1.0000
  H   H875      1.0  0.33846  0.70503  0.60758  1.0000
  H   H876      1.0  0.12313  0.73418  0.52988  1.0000
  C   C558      1.0  0.01914  0.92889  0.54321  1.0000
  C   C559      1.0  0.03205  0.96042  0.52655  1.0000
  H   H877      1.0  0.34943  0.97750  0.53462  1.0000
  C   C560      1.0  0.36832  0.99459  0.54985  1.0000
  H   H878      1.0  0.33065  0.73922  0.51057  1.0000
  H   H879      1.0  0.35280  0.96037  0.60453  1.0000
  H   H880      1.0  0.30835  0.77827  0.65431  1.0000
  H   H881      1.0  0.04035  0.75667  0.69464  1.0000
  H   H882      1.0  0.39533  0.71291  0.55344  1.0000
  H   H883      1.0  0.15678  0.92297  0.65402  1.0000
  H   H884      1.0  0.05246  0.67491  0.67661  1.0000
  C   C561      1.0  0.06005  0.73934  0.70905  1.0000
  C   C562      1.0  0.17745  0.94580  0.71243  1.0000
  N   N54       1.0  0.39423  0.97052  0.56827  1.0000
  C   C563      1.0  0.38263  0.98839  0.67372  1.0000
  H   H885      1.0  0.35437  0.92568  0.57359  1.0000
  H   H886      1.0  0.13458  0.68246  0.69375  1.0000
  H   H887      1.0  0.16100  0.95889  0.53415  1.0000
  H   H888      1.0  0.12565  0.76903  0.68969  1.0000
  H   H889      1.0  0.05073  0.71354  0.64932  1.0000
  H   H890      1.0  0.01633  0.90230  0.53105  1.0000
  H   H891      1.0  0.19723  0.97767  0.65568  1.0000
  S   S230      1.0  0.41884  0.67657  0.61482  1.0000
  H   H892      1.0  0.36530  0.96893  0.68843  1.0000
  N   N55       1.0  0.11166  0.77564  0.56568  1.0000
  C   C564      1.0  0.13291  0.80144  0.58650  1.0000
  C   C565      1.0  0.08574  0.79761  0.54541  1.0000
  C   C566      1.0  0.13823  0.75427  0.54565  1.0000
  C   C567      1.0  0.08983  0.74915  0.58536  1.0000
  H   H893      1.0  0.14912  0.82216  0.57221  1.0000
  H   H894      1.0  0.43796  0.97732  0.60311  1.0000
  H   H895      1.0  0.43799  0.93007  0.55965  1.0000
  H   H896      1.0  0.30920  0.78596  0.72585  1.0000
  H   H897      1.0  0.28490  0.75551  0.56967  1.0000
  H   H898      1.0  0.06852  0.77907  0.52987  1.0000
  H   H899      1.0  0.40113  0.92990  0.53068  1.0000
  C   C568      1.0  0.48273  0.78434  0.59822  1.0000
  C   C569      1.0  0.43103  0.99093  0.71366  1.0000
  H   H900      1.0  0.09276  0.76860  0.65732  1.0000
  H   H901      1.0  0.07342  0.72933  0.57036  1.0000
  N   N56       1.0  0.08863  0.72119  0.68870  1.0000
  C   C570      1.0  0.11381  0.69801  0.70854  1.0000
  H   H902      1.0  0.11657  0.95357  0.65050  1.0000
  C   C571      1.0  0.06976  0.69701  0.66499  1.0000
  H   H903      1.0  0.15533  0.77338  0.53058  1.0000
  H   H904      1.0  0.39917  0.75096  0.69067  1.0000
  H   H905      1.0  0.47590  0.72517  0.59138  1.0000
  C   C572      1.0  0.37206  0.94467  0.58838  1.0000
  H   H906      1.0  0.10849  0.73209  0.60088  1.0000
  H   H907      1.0  0.39157  0.80367  0.65339  1.0000
  H   H908      1.0  0.15329  0.78589  0.60175  1.0000
  C   C573      1.0  0.03611  0.99463  0.54232  1.0000
  S   S231      1.0  0.34540  0.85931  0.51589  1.0000
  H   H909      1.0  0.11380  0.81757  0.60238  1.0000
  H   H910      1.0  0.32296  0.77092  0.59426  1.0000
  N   N57       1.0  0.35136  0.78798  0.68919  1.0000
  C   C574      1.0  0.37073  0.81668  0.66983  1.0000
  C   C575      1.0  0.32986  0.76265  0.66815  1.0000
  C   C576      1.0  0.32542  0.80674  0.71161  1.0000
  C   C577      1.0  0.37955  0.76592  0.70701  1.0000
  H   H911      1.0  0.39063  0.92659  0.60318  1.0000
  H   H912      1.0  0.39672  0.78427  0.72270  1.0000
  H   H913      1.0  0.38608  0.83694  0.68524  1.0000
  H   H914      1.0  0.16080  0.92603  0.72728  1.0000
  H   H915      1.0  0.34870  0.74772  0.65130  1.0000
  S   S232      1.0  0.05205  0.70552  0.50849  1.0000
  H   H916      1.0  0.11822  0.91842  0.68108  1.0000
  H   H917      1.0  0.43560  0.96704  0.53102  1.0000
  H   H918      1.0  0.07326  0.75824  0.72696  1.0000
  H   H919      1.0  0.12997  0.71562  0.72546  1.0000
  H   H920      1.0  0.32088  0.78566  0.55352  1.0000
  N   N58       1.0  0.15347  0.96627  0.68951  1.0000
  H   H921      1.0  0.11762  0.98181  0.52486  1.0000
  H   H922      1.0  0.30021  0.68884  0.58341  1.0000
  C   C578      1.0  0.11093  0.75045  0.67237  1.0000
  C   C579      1.0  0.12408  0.98743  0.70671  1.0000
  H   H923      1.0  0.40074  0.97097  0.65807  1.0000
  Fe  Fe119     1.0  0.49574  0.83158  0.66604  1.0000
  H   H924      1.0  0.34218  0.69134  0.52043  1.0000
  H   H925      1.0  0.15227  0.97327  0.59132  1.0000
  S   S233      1.0  0.29734  0.70915  0.74133  1.0000
  H   H926      1.0  0.35711  0.67476  0.65700  1.0000
  C   C580      1.0  0.28828  0.99251  0.70792  1.0000
  C   C581      1.0  0.01040  0.93190  0.57576  1.0000
  C   C582      1.0  0.14830  0.98666  0.52843  1.0000
  H   H927      1.0  0.04287  0.71812  0.72194  1.0000
  C   C583      1.0  0.02693  0.99772  0.57447  1.0000
  S   S234      1.0  0.00424  0.78044  0.63540  1.0000
  C   C584      1.0  0.28118  0.99525  0.67540  1.0000
  H   H928      1.0  0.48724  0.84460  0.59775  1.0000
  S   S235      1.0  0.49405  0.82515  0.71886  1.0000
  H   H929      1.0  0.10830  0.99578  0.58186  1.0000
  H   H930      1.0  0.00004  0.90789  0.58866  1.0000
  S   S236      1.0  0.00094  0.97226  0.63113  1.0000
  H   H931      1.0  0.04815  0.76834  0.96578  1.0000
  H   H932      1.0  0.05743  0.98007  0.84729  1.0000
  H   H933      1.0  0.13023  0.76340  0.89985  1.0000
  H   H934      1.0  0.30581  0.93531  0.93545  1.0000
  C   C585      1.0  0.42611  0.79454  0.83615  1.0000
  H   H935      1.0  0.35383  0.71736  0.97089  1.0000
  S   S237      1.0  0.27560  0.91462  0.84539  1.0000
  Fe  Fe120     1.0  0.28605  0.85276  0.84383  1.0000
  S   S238      1.0  0.33228  0.82611  0.87206  1.0000
  C   C586      1.0  0.33831  0.85937  0.97631  1.0000
  C   C587      1.0  0.30349  0.86004  0.96080  1.0000
  C   C588      1.0  0.30120  0.85059  0.92838  1.0000
  C   C589      1.0  0.33367  0.83971  0.91195  1.0000
  C   C590      1.0  0.36811  0.83864  0.92771  1.0000
  C   C591      1.0  0.37046  0.84875  0.95969  1.0000
  H   H936      1.0  0.27861  0.86833  0.97363  1.0000
  H   H937      1.0  0.27447  0.85125  0.91617  1.0000
  H   H938      1.0  0.39322  0.83086  0.91494  1.0000
  H   H939      1.0  0.39729  0.84829  0.97160  1.0000
  S   S239      1.0  0.28899  0.84980  0.79062  1.0000
  Fe  Fe121     1.0  0.21477  0.89889  0.84353  1.0000
  S   S240      1.0  0.16894  0.92810  0.87055  1.0000
  C   C592      1.0  0.15728  0.89950  0.97545  1.0000
  C   C593      1.0  0.19283  0.89789  0.96123  1.0000
  C   C594      1.0  0.19686  0.90603  0.92869  1.0000
  C   C595      1.0  0.16535  0.91634  0.91075  1.0000
  C   C596      1.0  0.13013  0.91845  0.92523  1.0000
  C   C597      1.0  0.12610  0.90984  0.95743  1.0000
  H   H940      1.0  0.21695  0.88988  0.97519  1.0000
  H   H941      1.0  0.22423  0.90479  0.91754  1.0000
  S   S241      1.0  0.21131  0.89968  0.79027  1.0000
  Fe  Fe122     1.0  0.22718  0.83904  0.79375  1.0000
  H   H942      1.0  0.03529  0.77303  0.90826  1.0000
  S   S242      1.0  0.22529  0.83705  0.84706  1.0000
  Fe  Fe123     1.0  0.27308  0.91044  0.79219  1.0000
  H   H943      1.0  0.39452  0.81278  0.78032  1.0000
  H   H944      1.0  0.22474  0.77799  0.93555  1.0000
  H   H945      1.0  0.27890  0.77813  0.83927  1.0000
  C   C598      1.0  0.38261  0.74226  0.83363  1.0000
  C   C599      1.0  0.43107  0.74878  0.79403  1.0000
  H   H946      1.0  0.36928  0.98799  0.78491  1.0000
  C   C600      1.0  0.37893  0.79210  0.79501  1.0000
  N   N59       1.0  0.34292  0.98205  0.94363  1.0000
  S   S243      1.0  0.47483  0.83810  0.91622  1.0000
  H   H947      1.0  0.36197  0.77405  0.77891  1.0000
  H   H948      1.0  0.35095  0.90260  0.79059  1.0000
  C   C601      1.0  0.40995  0.89273  0.78443  1.0000
  C   C602      1.0  0.44523  0.89236  0.79927  1.0000
  C   C603      1.0  0.44832  0.90151  0.83176  1.0000
  C   C604      1.0  0.41614  0.91169  0.84895  1.0000
  C   C605      1.0  0.38125  0.91209  0.83391  1.0000
  C   C606      1.0  0.37814  0.90239  0.80190  1.0000
  H   H949      1.0  0.46994  0.88483  0.78583  1.0000
  Fe  Fe124     1.0  0.03665  0.85485  0.91053  1.0000
  H   H950      1.0  0.13186  0.73437  0.95355  1.0000
  H   H951      1.0  0.17910  0.67301  0.79015  1.0000
  H   H952      1.0  0.18102  0.72509  0.94781  1.0000
  C   C607      1.0  0.10943  0.69496  0.80830  1.0000
  H   H953      1.0  0.13332  0.76615  0.80099  1.0000
  S   S244      1.0  0.03888  0.85294  0.96381  1.0000
  C   C608      1.0  0.08947  0.86750  0.77894  1.0000
  C   C609      1.0  0.05513  0.86901  0.79511  1.0000
  C   C610      1.0  0.05320  0.85821  0.82726  1.0000
  C   C611      1.0  0.08557  0.84559  0.84288  1.0000
  C   C612      1.0  0.11956  0.84386  0.82647  1.0000
  C   C613      1.0  0.12148  0.85479  0.79464  1.0000
  H   H954      1.0  0.03044  0.87919  0.78304  1.0000
  S   S245      1.0  0.45897  0.90200  0.97159  1.0000
  H   H955      1.0  0.14460  0.83443  0.83848  1.0000
  H   H956      1.0  0.14779  0.85301  0.78201  1.0000
  H   H957      1.0  0.45289  0.98433  0.97096  1.0000
  Fe  Fe125     1.0  0.01853  0.91236  0.96106  1.0000
  H   H958      1.0  0.13750  0.83599  0.93607  1.0000
  S   S246      1.0  0.02180  0.91584  0.90784  1.0000
  H   H959      1.0  0.02680  0.85918  0.83991  1.0000
  H   H960      1.0  0.06003  0.99163  0.77490  1.0000
  S   S247      1.0  0.19974  0.79229  0.76670  1.0000
  H   H961      1.0  0.09865  0.91072  0.96829  1.0000
  C   C614      1.0  0.26727  0.68389  0.83195  1.0000
  H   H962      1.0  0.44770  0.76832  0.77890  1.0000
  H   H963      1.0  0.13632  0.69790  0.86791  1.0000
  S   S248      1.0  0.30024  0.95575  0.76316  1.0000
  H   H964      1.0  0.40659  0.67671  0.90280  1.0000
  C   C615      1.0  0.26798  0.71944  0.84621  1.0000
  C   C616      1.0  0.02354  0.67890  0.91756  1.0000
  H   H965      1.0  0.29362  0.77140  0.78226  1.0000
  H   H966      1.0  0.38149  0.75991  0.97270  1.0000
  H   H967      1.0  0.40118  0.72447  0.84859  1.0000
  N   N60       1.0  0.14576  0.71081  0.81867  1.0000
  H   H968      1.0  0.20767  0.80472  0.96894  1.0000
  C   C617      1.0  0.27797  0.75077  0.82830  1.0000
  Fe  Fe126     1.0  0.47604  0.84150  0.96950  1.0000
  C   C618      1.0  0.12724  0.96584  0.79345  1.0000
  H   H969      1.0  0.35640  0.91929  0.84726  1.0000
  C   C619      1.0  0.28676  0.74693  0.79616  1.0000
  H   H970      1.0  0.30355  0.97130  0.90576  1.0000
  S   S249      1.0  0.04164  0.96014  0.98974  1.0000
  H   H971      1.0  0.21342  0.98061  0.78801  1.0000
  H   H972      1.0  0.36217  0.75685  0.84942  1.0000
  C   C620      1.0  0.03064  0.67623  0.95041  1.0000
  H   H973      1.0  0.41596  0.72882  0.77807  1.0000
  H   H974      1.0  0.18015  0.75551  0.89491  1.0000
  H   H975      1.0  0.13994  0.81645  0.97532  1.0000
  C   C621      1.0  0.42686  0.70070  0.96128  1.0000
  N   N61       1.0  0.16451  0.78220  0.93862  1.0000
  C   C622      1.0  0.16058  0.74652  0.95633  1.0000
  C   C623      1.0  0.15871  0.77518  0.90442  1.0000
  C   C624      1.0  0.13606  0.80933  0.94985  1.0000
  C   C625      1.0  0.20252  0.79793  0.94353  1.0000
  H   H976      1.0  0.11970  0.75852  0.84139  1.0000
  H   H977      1.0  0.44961  0.68551  0.94855  1.0000
  H   H978      1.0  0.09522  0.94640  0.84864  1.0000
  H   H979      1.0  0.35896  0.80836  0.81000  1.0000
  H   H980      1.0  0.20216  0.71627  0.80096  1.0000
  H   H981      1.0  0.10000  0.70767  0.78553  1.0000
  S   S250      1.0  0.44913  0.79539  0.99786  1.0000
  N   N62       1.0  0.10093  0.98877  0.81238  1.0000
  H   H982      1.0  0.16094  0.80172  0.89050  1.0000
  S   S251      1.0  0.25224  0.67651  0.96611  1.0000
  H   H983      1.0  0.40713  0.81105  0.85189  1.0000
  H   H984      1.0  0.16864  0.76482  0.83105  1.0000
  C   C626      1.0  0.42121  0.74732  0.91986  1.0000
  C   C627      1.0  0.27589  0.68002  0.79944  1.0000
  Fe  Fe127     1.0  0.46329  0.89978  0.91836  1.0000
  C   C628      1.0  0.14166  0.75176  0.82341  1.0000
  N   N63       1.0  0.40469  0.76945  0.81474  1.0000
  C   C629      1.0  0.02521  0.71391  0.90239  1.0000
  H   H985      1.0  0.35315  0.93979  0.97901  1.0000
  H   H986      1.0  0.16691  0.71659  0.77121  1.0000
  H   H987      1.0  0.31746  0.98363  0.82437  1.0000
  H   H988      1.0  0.22739  0.97588  0.84530  1.0000
  H   H989      1.0  0.34290  0.93958  0.90712  1.0000
  C   C630      1.0  0.03991  0.70858  0.96771  1.0000
  C   C631      1.0  0.28548  0.71182  0.78158  1.0000
  S   S252      1.0  0.41831  0.92638  0.88861  1.0000
  H   H990      1.0  0.10705  0.79831  0.94659  1.0000
  H   H991      1.0  0.20641  0.82430  0.92966  1.0000
  Fe  Fe128     1.0  0.25412  0.67218  0.91313  1.0000
  N   N64       1.0  0.40069  0.71909  0.93882  1.0000
  S   S253      1.0  0.25529  0.72573  0.88607  1.0000
  H   H992      1.0  0.16548  0.75059  0.98217  1.0000
  H   H993      1.0  0.40206  0.76273  0.90354  1.0000
  H   H994      1.0  0.44590  0.77851  0.85152  1.0000
  H   H995      1.0  0.10568  0.92573  0.91132  1.0000
  H   H996      1.0  0.44309  0.81524  0.82251  1.0000
  S   S254      1.0  0.08440  0.83074  0.88253  1.0000
  H   H997      1.0  0.36596  0.72319  0.81800  1.0000
  H   H998      1.0  0.44078  0.72143  0.97715  1.0000
  C   C632      1.0  0.32295  0.95604  0.92200  1.0000
  C   C633      1.0  0.15731  0.69287  0.84877  1.0000
  H   H999      1.0  0.45134  0.73215  0.80843  1.0000
  H   H1000     1.0  0.14532  0.98370  0.77809  1.0000
  H   H1001     1.0  0.11205  0.94558  0.77810  1.0000
  H   H1002     1.0  0.38932  0.94420  0.94988  1.0000
  H   H1003     1.0  0.40259  0.99373  0.81637  1.0000
  H   H1004     1.0  0.29877  0.98242  0.97845  1.0000
  H   H1005     1.0  0.47544  0.90139  0.84336  1.0000
  C   C634      1.0  0.04175  0.74328  0.95235  1.0000
  H   H1006     1.0  0.44387  0.73419  0.90554  1.0000
  H   H1007     1.0  0.06084  0.94400  0.81782  1.0000
  C   C635      1.0  0.17467  0.70362  0.79422  1.0000
  H   H1008     1.0  0.47196  0.97784  0.91481  1.0000
  C   C636      1.0  0.03422  0.74597  0.91986  1.0000
  C   C637      1.0  0.07762  0.96386  0.83248  1.0000
  H   H1009     1.0  0.14612  0.94906  0.80899  1.0000
  H   H1010     1.0  0.18492  0.70389  0.85692  1.0000
  H   H1011     1.0  0.43483  0.76858  0.93544  1.0000
  H   H1012     1.0  0.35203  0.98801  0.85507  1.0000
  H   H1013     1.0  0.38492  0.97923  0.98023  1.0000
  C   C638      1.0  0.37015  0.73789  0.95652  1.0000
  S   S255      1.0  0.01509  0.71881  0.86183  1.0000
  C   C639      1.0  0.36865  0.96045  0.96422  1.0000
  H   H1014     1.0  0.35010  0.75220  0.94014  1.0000
  H   H1015     1.0  0.08698  0.70022  0.82622  1.0000
  C   C640      1.0  0.38447  0.69039  0.91749  1.0000
  H   H1016     1.0  0.36308  0.70279  0.90125  1.0000
  H   H1017     1.0  0.41217  0.67990  0.97664  1.0000
  H   H1018     1.0  0.09614  0.99394  0.90044  1.0000
  H   H1019     1.0  0.06020  0.99020  0.92999  1.0000
  H   H1020     1.0  0.38615  0.99535  0.90981  1.0000
  H   H1021     1.0  0.14601  0.99758  0.94027  1.0000
  H   H1022     1.0  0.11133  0.99157  0.97068  1.0000
  H   H1023     1.0  0.37046  0.66780  0.93142  1.0000
  S   S256      1.0  0.00801  0.66782  0.78301  1.0000
  H   H1024     1.0  0.14168  0.99957  0.84892  1.0000
  H   H1025     1.0  0.70712  0.03815  0.03381  1.0000
  H   H1026     1.0  0.97784  0.16056  0.15550  1.0000
  C   C641      1.0  0.91185  0.15236  0.21397  1.0000
  C   C642      1.0  0.94740  0.15302  0.19965  1.0000
  C   C643      1.0  0.95052  0.15944  0.16673  1.0000
  C   C644      1.0  0.91804  0.16546  0.14859  1.0000
  C   C645      1.0  0.88286  0.16446  0.16306  1.0000
  C   C646      1.0  0.87979  0.15780  0.19557  1.0000
  H   H1027     1.0  0.97229  0.14877  0.21385  1.0000
  H   H1028     1.0  0.59702  0.22882  0.05953  1.0000
  H   H1029     1.0  0.85782  0.16837  0.14896  1.0000
  H   H1030     1.0  0.85240  0.15697  0.20650  1.0000
  H   H1031     1.0  0.86987  0.23775  0.21497  1.0000
  H   H1032     1.0  0.59527  0.18269  0.14785  1.0000
  H   H1033     1.0  0.90005  0.01780  0.09697  1.0000
  S   S257      1.0  0.97979  0.08999  0.08508  1.0000
  H   H1034     1.0  0.81415  0.27115  0.14590  1.0000
  H   H1035     1.0  0.58379  0.26337  0.22257  1.0000
  C   C647      1.0  0.59120  0.10185  0.22288  1.0000
  C   C648      1.0  0.55636  0.10475  0.20752  1.0000
  C   C649      1.0  0.55365  0.09751  0.17467  1.0000
  C   C650      1.0  0.58572  0.08678  0.15755  1.0000
  C   C651      1.0  0.62017  0.08347  0.17316  1.0000
  C   C652      1.0  0.62294  0.09135  0.20559  1.0000
  H   H1036     1.0  0.53173  0.11293  0.22081  1.0000
  Fe  Fe129     1.0  0.96758  0.15132  0.08113  1.0000
  C   C653      1.0  0.88444  0.25845  0.19942  1.0000
  Fe  Fe130     1.0  0.52484  0.16267  0.03812  1.0000
  H   H1037     1.0  0.88754  0.22902  0.01815  1.0000
  S   S258      1.0  0.52865  0.16626  0.09125  1.0000
  H   H1038     1.0  0.80477  0.21935  0.09146  1.0000
  H   H1039     1.0  0.70766  0.22722  0.21547  1.0000
  H   H1040     1.0  0.60547  0.17959  0.22003  1.0000
  S   S259      1.0  0.53985  0.10170  0.03570  1.0000
  H   H1041     1.0  0.64138  0.07693  0.06668  1.0000
  H   H1042     1.0  0.60544  0.04661  0.05212  1.0000
  H   H1043     1.0  0.55678  0.29496  0.03176  1.0000
  C   C654      1.0  0.58813  0.29531  0.03097  1.0000
  H   H1044     1.0  0.85843  0.32449  0.14554  1.0000
  H   H1045     1.0  0.89985  0.08692  0.08889  1.0000
  H   H1046     1.0  0.64505  0.07577  0.15996  1.0000
  H   H1047     1.0  0.90364  0.24216  0.18365  1.0000
  H   H1048     1.0  0.55786  0.17842  0.17591  1.0000
  H   H1049     1.0  0.84465  0.18834  0.09056  1.0000
  S   S260      1.0  0.73102  0.08087  0.15647  1.0000
  Fe  Fe131     1.0  0.71694  0.14214  0.15783  1.0000
  S   S261      1.0  0.67016  0.16759  0.12955  1.0000
  C   C655      1.0  0.66274  0.14105  0.02388  1.0000
  C   C656      1.0  0.69744  0.13735  0.03932  1.0000
  C   C657      1.0  0.70027  0.14478  0.07212  1.0000
  C   C658      1.0  0.66842  0.15634  0.08909  1.0000
  C   C659      1.0  0.63409  0.16006  0.07346  1.0000
  C   C660      1.0  0.63119  0.15226  0.04104  1.0000
  H   H1050     1.0  0.72182  0.12853  0.02606  1.0000
  H   H1051     1.0  0.72698  0.14218  0.08418  1.0000
  H   H1052     1.0  0.60945  0.16827  0.08668  1.0000
  H   H1053     1.0  0.60436  0.15474  0.02926  1.0000
  S   S262      1.0  0.71352  0.14548  0.21103  1.0000
  Fe  Fe132     1.0  0.79069  0.10072  0.15841  1.0000
  S   S263      1.0  0.83847  0.07672  0.13029  1.0000
  C   C661      1.0  0.84463  0.10677  0.02539  1.0000
  C   C662      1.0  0.80941  0.10519  0.04020  1.0000
  C   C663      1.0  0.80693  0.09706  0.07289  1.0000
  C   C664      1.0  0.83973  0.09013  0.09035  1.0000
  C   C665      1.0  0.87459  0.09175  0.07535  1.0000
  C   C666      1.0  0.87703  0.10007  0.04304  1.0000
  H   H1054     1.0  0.78430  0.11024  0.02651  1.0000
  H   H1055     1.0  0.77984  0.09532  0.08444  1.0000
  S   S264      1.0  0.79432  0.09998  0.21166  1.0000
  Fe  Fe133     1.0  0.77466  0.15953  0.20837  1.0000
  H   H1056     1.0  0.87251  0.06741  0.18998  1.0000
  S   S265      1.0  0.77648  0.16178  0.15512  1.0000
  Fe  Fe134     1.0  0.73314  0.08589  0.20967  1.0000
  H   H1057     1.0  0.97136  0.22828  0.08309  1.0000
  S   S266      1.0  0.54999  0.20876  0.00888  1.0000
  H   H1058     1.0  0.64252  0.06180  0.02601  1.0000
  N   N65       1.0  0.60448  0.28849  0.06275  1.0000
  H   H1059     1.0  0.90412  0.10083  0.03161  1.0000
  Fe  Fe135     1.0  0.74533  0.33071  0.08650  1.0000
  H   H1060     1.0  0.89192  0.19391  0.04829  1.0000
  H   H1061     1.0  0.87702  0.03435  0.22178  1.0000
  S   S267      1.0  0.74285  0.27610  0.11182  1.0000
  C   C667      1.0  0.71461  0.25211  0.20206  1.0000
  S   S268      1.0  0.91999  0.17673  0.10828  1.0000
  C   C668      1.0  0.83479  0.25533  0.16050  1.0000
  H   H1062     1.0  0.63971  0.23709  0.15200  1.0000
  H   H1063     1.0  0.55867  0.25306  0.07749  1.0000
  H   H1064     1.0  0.90215  0.27678  0.21466  1.0000
  C   C669      1.0  0.64586  0.28617  0.06041  1.0000
  C   C670      1.0  0.94815  0.01264  0.20658  1.0000
  H   H1065     1.0  0.90837  0.07394  0.21910  1.0000
  H   H1066     1.0  0.60091  0.26975  0.15338  1.0000
  H   H1067     1.0  0.65470  0.26156  0.04593  1.0000
  H   H1068     1.0  0.81840  0.23503  0.17508  1.0000
  Fe  Fe136     1.0  0.53805  0.10420  0.08904  1.0000
  H   H1069     1.0  0.80512  0.01777  0.21570  1.0000
  C   C671      1.0  0.71626  0.28687  0.21731  1.0000
  H   H1070     1.0  0.95463  0.07674  0.17369  1.0000
  H   H1071     1.0  0.81142  0.31899  0.18894  1.0000
  S   S269      1.0  0.70787  0.04035  0.23942  1.0000
  H   H1072     1.0  0.84665  0.27538  0.08867  1.0000
  H   H1073     1.0  0.65780  0.31198  0.04945  1.0000
  H   H1074     1.0  0.80831  0.18346  0.06166  1.0000
  H   H1075     1.0  0.93480  0.01871  0.06621  1.0000
  C   C672      1.0  0.72277  0.24919  0.16971  1.0000
  S   S270      1.0  0.58393  0.07623  0.11689  1.0000
  H   H1076     1.0  0.55714  0.21579  0.14738  1.0000
  N   N66       1.0  0.59649  0.22342  0.18573  1.0000
  C   C673      1.0  0.56935  0.24342  0.20622  1.0000
  C   C674      1.0  0.61913  0.25119  0.16799  1.0000
  C   C675      1.0  0.62158  0.20010  0.20553  1.0000
  C   C676      1.0  0.57580  0.19911  0.16322  1.0000
  N   N67       1.0  0.65865  0.01965  0.06006  1.0000
  C   C677      1.0  0.64912  0.00906  0.09300  1.0000
  H   H1077     1.0  0.80143  0.23086  0.01863  1.0000
  H   H1078     1.0  0.54920  0.26000  0.19165  1.0000
  H   H1079     1.0  0.55252  0.22342  0.22073  1.0000
  H   H1080     1.0  0.59683  0.32301  0.02115  1.0000
  C   C678      1.0  0.73374  0.31618  0.16731  1.0000
  H   H1081     1.0  0.52507  0.02463  0.09838  1.0000
  C   C679      1.0  0.69901  0.02932  0.05822  1.0000
  H   H1082     1.0  0.85635  0.18895  0.01879  1.0000
  S   S271      1.0  0.95488  0.04437  0.00545  1.0000
  C   C680      1.0  0.97315  0.32311  0.07484  1.0000
  N   N68       1.0  0.85725  0.28076  0.18073  1.0000
  H   H1083     1.0  0.64988  0.08948  0.21729  1.0000
  H   H1084     1.0  0.89438  0.32769  0.17529  1.0000
  H   H1085     1.0  0.60174  0.24605  0.09914  1.0000
  S   S272      1.0  0.80047  0.20691  0.23568  1.0000
  C   C681      1.0  0.73228  0.28109  0.15226  1.0000
  C   C682      1.0  0.96966  0.25539  0.07178  1.0000
  H   H1086     1.0  0.52687  0.09984  0.16265  1.0000
  H   H1087     1.0  0.72145  0.22215  0.15814  1.0000
  H   H1088     1.0  0.65911  0.28260  0.08423  1.0000
  H   H1089     1.0  0.63890  0.21766  0.22173  1.0000
  C   C683      1.0  0.96126  0.29248  0.02420  1.0000
  N   N69       1.0  0.91942  0.02968  0.18572  1.0000
  Fe  Fe137     1.0  0.98243  0.09161  0.03186  1.0000
  H   H1090     1.0  0.88701  0.24479  0.08873  1.0000
  H   H1091     1.0  0.85298  0.23860  0.14434  1.0000
  N   N70       1.0  0.84475  0.23093  0.05418  1.0000
  C   C684      1.0  0.86580  0.25873  0.07328  1.0000
  C   C685      1.0  0.87122  0.20987  0.03382  1.0000
  C   C686      1.0  0.81715  0.25081  0.03406  1.0000
  C   C687      1.0  0.82475  0.20449  0.07542  1.0000
  C   C688      1.0  0.93800  0.05415  0.16204  1.0000
  H   H1092     1.0  0.79270  0.02242  0.15831  1.0000
  H   H1093     1.0  0.88142  0.27884  0.05783  1.0000
  C   C689      1.0  0.58983  0.25267  0.07546  1.0000
  H   H1094     1.0  0.70607  0.05301  0.07452  1.0000
  C   C690      1.0  0.96665  0.32543  0.04187  1.0000
  H   H1095     1.0  0.54432  0.02060  0.04197  1.0000
  C   C691      1.0  0.72600  0.31908  0.20003  1.0000
  H   H1096     1.0  0.59672  0.27322  0.01379  1.0000
  H   H1097     1.0  0.79613  0.26584  0.04896  1.0000
  C   C692      1.0  0.59406  0.31973  0.08412  1.0000
  H   H1098     1.0  0.64136  0.18352  0.19060  1.0000
  C   C693      1.0  0.63605  0.05261  0.05063  1.0000
  C   C694      1.0  0.97463  0.28790  0.08970  1.0000
  S   S273      1.0  0.96506  0.15177  0.02786  1.0000
  H   H1099     1.0  0.95921  0.23227  0.02553  1.0000
  C   C695      1.0  0.96275  0.25766  0.03924  1.0000
  S   S274      1.0  0.74483  0.32787  0.03342  1.0000
  C   C696      1.0  0.89322  0.05227  0.20510  1.0000
  H   H1100     1.0  0.65498  0.03259  0.10978  1.0000
  H   H1101     1.0  0.91714  0.06830  0.14636  1.0000
  H   H1102     1.0  0.89810  0.29294  0.14447  1.0000
  C   C697      1.0  0.83200  0.30166  0.20238  1.0000
  H   H1103     1.0  0.63561  0.26951  0.18435  1.0000
  H   H1104     1.0  0.81533  0.28228  0.21764  1.0000
  C   C698      1.0  0.87794  0.30765  0.16051  1.0000
  H   H1105     1.0  0.87612  0.01152  0.15365  1.0000
  H   H1106     1.0  0.83105  0.27205  0.01851  1.0000
  H   H1107     1.0  0.95762  0.03799  0.14660  1.0000
  Fe  Fe138     1.0  0.50608  0.33169  0.16148  1.0000
  H   H1108     1.0  0.88371  0.01721  0.02632  1.0000
  H   H1109     1.0  0.84934  0.01528  0.05736  1.0000
  H   H1110     1.0  0.67714  0.01244  0.17548  1.0000
  H   H1111     1.0  0.71706  0.00509  0.06510  1.0000
  H   H1112     1.0  0.96456  0.03454  0.21937  1.0000
  H   H1113     1.0  0.84790  0.32099  0.21826  1.0000
  S   S275      1.0  0.50416  0.32499  0.21430  1.0000
  H   H1114     1.0  0.60597  0.31580  0.10829  1.0000
  H   H1115     1.0  0.61864  0.00225  0.09531  1.0000
  S   S276      1.0  0.50743  0.27979  0.13216  1.0000
  H   H1116     1.0  0.56305  0.32189  0.08665  1.0000
  S   S277      1.0  0.99341  0.33177  0.20974  1.0000
  S   S278      1.0  0.98434  0.28304  0.13030  1.0000
  H   H1117     1.0  0.87193  0.22615  0.30729  1.0000
  Fe  Fe139     1.0  0.95863  0.13452  0.28175  1.0000
  H   H1118     1.0  0.62066  0.25937  0.41067  1.0000
  H   H1119     1.0  0.91054  0.31347  0.34432  1.0000
  S   S279      1.0  0.95188  0.13420  0.33456  1.0000
  H   H1120     1.0  0.90912  0.17981  0.46594  1.0000
  H   H1121     1.0  0.86342  0.17162  0.42232  1.0000
  C   C699      1.0  0.97263  0.03632  0.39904  1.0000
  H   H1122     1.0  0.52680  0.15315  0.46839  1.0000
  C   C700      1.0  0.95977  0.04187  0.46463  1.0000
  H   H1123     1.0  0.55479  0.08445  0.44991  1.0000
  C   C701      1.0  0.84094  0.05713  0.34320  1.0000
  H   H1124     1.0  0.86179  0.05222  0.36247  1.0000
  C   C702      1.0  0.62994  0.03507  0.42241  1.0000
  C   C703      1.0  0.88490  0.29605  0.28627  1.0000
  H   H1125     1.0  0.59834  0.25731  0.30502  1.0000
  Fe  Fe140     1.0  0.54342  0.11902  0.29047  1.0000
  H   H1126     1.0  0.51391  0.15667  0.41008  1.0000
  H   H1127     1.0  0.93448  0.26797  0.42484  1.0000
  H   H1128     1.0  0.70764  0.31206  0.42949  1.0000
  S   S280      1.0  0.54684  0.11852  0.34366  1.0000
  H   H1129     1.0  0.88672  0.08819  0.30023  1.0000
  S   S281      1.0  0.51265  0.22080  0.36681  1.0000
  H   H1130     1.0  0.89884  0.17821  0.39258  1.0000
  H   H1131     1.0  0.94027  0.21950  0.46562  1.0000
  C   C704      1.0  0.53779  0.21243  0.47286  1.0000
  C   C705      1.0  0.54009  0.24671  0.45686  1.0000
  C   C706      1.0  0.53263  0.24868  0.42434  1.0000
  H   H1132     1.0  0.92344  0.23340  0.26925  1.0000
  H   H1133     1.0  0.66786  0.24188  0.40498  1.0000
  H   H1134     1.0  0.54676  0.27203  0.46980  1.0000
  H   H1135     1.0  0.83319  0.03541  0.26499  1.0000
  C   C707      1.0  0.58077  0.02451  0.32022  1.0000
  H   H1136     1.0  0.70990  0.29763  0.47032  1.0000
  H   H1137     1.0  0.86824  0.27831  0.26973  1.0000
  C   C708      1.0  0.65106  0.26667  0.41256  1.0000
  H   H1138     1.0  0.84944  0.25633  0.43299  1.0000
  H   H1139     1.0  0.57292  0.08380  0.41013  1.0000
  H   H1140     1.0  0.64605  0.32693  0.34460  1.0000
  H   H1141     1.0  0.95443  0.27348  0.27153  1.0000
  H   H1142     1.0  0.57676  0.03912  0.48937  1.0000
  C   C709      1.0  0.72617  0.00498  0.32862  1.0000
  S   S282      1.0  0.99279  0.08189  0.27974  1.0000
  S   S283      1.0  0.90606  0.14390  0.25462  1.0000
  C   C710      1.0  0.93759  0.25330  0.28586  1.0000
  H   H1143     1.0  0.90573  0.22701  0.33898  1.0000
  H   H1144     1.0  0.84946  0.01239  0.44960  1.0000
  C   C711      1.0  0.52119  0.18172  0.42314  1.0000
  H   H1145     1.0  0.95769  0.23672  0.30051  1.0000
  H   H1146     1.0  0.94014  0.23346  0.39451  1.0000
  H   H1147     1.0  0.60148  0.10083  0.44238  1.0000
  N   N71       1.0  0.91011  0.27303  0.30621  1.0000
  H   H1148     1.0  0.55884  0.01641  0.40512  1.0000
  S   S284      1.0  0.70382  0.28897  0.25747  1.0000
  H   H1149     1.0  0.61356  0.00675  0.47995  1.0000
  H   H1150     1.0  0.68623  0.17536  0.30316  1.0000
  Fe  Fe141     1.0  0.70678  0.13661  0.45890  1.0000
  S   S285      1.0  0.75077  0.18138  0.45941  1.0000
  H   H1151     1.0  0.81971  0.07813  0.28472  1.0000
  Fe  Fe142     1.0  0.79104  0.13331  0.45813  1.0000
  S   S286      1.0  0.74712  0.08881  0.46334  1.0000
  H   H1152     1.0  0.66109  0.25456  0.49212  1.0000
  Fe  Fe143     1.0  0.74970  0.17415  0.40666  1.0000
  S   S287      1.0  0.79418  0.12988  0.40513  1.0000
  S   S288      1.0  0.75255  0.22698  0.37879  1.0000
  C   C712      1.0  0.76659  0.21962  0.33937  1.0000
  C   C713      1.0  0.76269  0.18451  0.32469  1.0000
  C   C714      1.0  0.77253  0.18007  0.29250  1.0000
  C   C715      1.0  0.78679  0.21071  0.27544  1.0000
  C   C716      1.0  0.79131  0.24531  0.29045  1.0000
  C   C717      1.0  0.78108  0.24979  0.32222  1.0000
  H   H1153     1.0  0.75146  0.16116  0.33797  1.0000
  H   H1154     1.0  0.76947  0.15313  0.28093  1.0000
  H   H1155     1.0  0.80182  0.26900  0.27719  1.0000
  H   H1156     1.0  0.78440  0.27675  0.33350  1.0000
  Fe  Fe144     1.0  0.74623  0.08986  0.41020  1.0000
  S   S289      1.0  0.70158  0.13381  0.40601  1.0000
  S   S290      1.0  0.74406  0.03444  0.38598  1.0000
  C   C718      1.0  0.73361  0.03785  0.34540  1.0000
  C   C719      1.0  0.73365  0.07246  0.32950  1.0000
  C   C720      1.0  0.72626  0.07389  0.29663  1.0000
  C   C721      1.0  0.71869  0.04063  0.27999  1.0000
  H   H1157     1.0  0.98532  0.09545  0.40105  1.0000
  H   H1158     1.0  0.89966  0.04547  0.28045  1.0000
  H   H1159     1.0  0.73945  0.09790  0.34253  1.0000
  H   H1160     1.0  0.72581  0.10050  0.28425  1.0000
  C   C722      1.0  0.93034  0.29767  0.32879  1.0000
  H   H1161     1.0  0.65140  0.17524  0.27251  1.0000
  N   N72       1.0  0.64217  0.21603  0.30957  1.0000
  C   C723      1.0  0.61906  0.19041  0.32910  1.0000
  C   C724      1.0  0.66742  0.19378  0.28892  1.0000
  C   C725      1.0  0.61721  0.23975  0.28995  1.0000
  C   C726      1.0  0.66488  0.24024  0.33057  1.0000
  H   H1162     1.0  0.59931  0.20629  0.34471  1.0000
  C   C727      1.0  0.97700  0.07097  0.41445  1.0000
  C   C728      1.0  0.88759  0.24501  0.32381  1.0000
  H   H1163     1.0  0.71932  0.26441  0.43900  1.0000
  Fe  Fe145     1.0  0.99108  0.08520  0.33282  1.0000
  H   H1164     1.0  0.86461  0.31220  0.30112  1.0000
  H   H1165     1.0  0.94501  0.18360  0.43628  1.0000
  S   S291      1.0  0.95388  0.29322  0.48642  1.0000
  S   S292      1.0  0.59664  0.11284  0.26328  1.0000
  H   H1166     1.0  0.64669  0.25852  0.34539  1.0000
  H   H1167     1.0  0.68383  0.25898  0.31675  1.0000
  N   N73       1.0  0.85339  0.04029  0.31290  1.0000
  S   S293      1.0  0.84535  0.13372  0.48414  1.0000
  H   H1168     1.0  0.63689  0.17234  0.34455  1.0000
  S   S294      1.0  0.50848  0.17092  0.28738  1.0000
  H   H1169     1.0  0.59919  0.22232  0.27424  1.0000
  H   H1170     1.0  0.94967  0.28138  0.34437  1.0000
  H   H1171     1.0  0.54025  0.01577  0.44476  1.0000
  S   S295      1.0  0.65344  0.14007  0.48592  1.0000
  C   C729      1.0  0.97090  0.07370  0.44742  1.0000
  H   H1172     1.0  0.66929  0.22147  0.46082  1.0000
  N   N74       1.0  0.66094  0.27847  0.44512  1.0000
  C   C730      1.0  0.70124  0.28853  0.44615  1.0000
  H   H1173     1.0  0.68302  0.22328  0.34653  1.0000
  C   C731      1.0  0.65326  0.24720  0.46737  1.0000
  C   C732      1.0  0.52314  0.21638  0.40739  1.0000
  C   C733      1.0  0.82478  0.04752  0.28820  1.0000
  H   H1174     1.0  0.91173  0.05211  0.32147  1.0000
  H   H1175     1.0  0.64130  0.00611  0.42570  1.0000
  H   H1176     1.0  0.88323  0.26167  0.46416  1.0000
  H   H1177     1.0  0.60753  0.30507  0.45316  1.0000
  H   H1178     1.0  0.83684  0.08803  0.34085  1.0000
  H   H1179     1.0  0.58723  0.04274  0.29941  1.0000
  S   S296      1.0  0.98188  0.03122  0.35835  1.0000
  H   H1180     1.0  0.62365  0.05644  0.48349  1.0000
  H   H1181     1.0  0.64508  0.32210  0.47807  1.0000
  N   N75       1.0  0.59495  0.04070  0.44076  1.0000
  H   H1182     1.0  0.81360  0.04514  0.35090  1.0000
  C   C734      1.0  0.96184  0.00473  0.41639  1.0000
  H   H1183     1.0  0.80093  0.01781  0.43867  1.0000
  C   C735      1.0  0.52828  0.17976  0.45606  1.0000
  H   H1184     1.0  0.53413  0.27542  0.41228  1.0000
  H   H1185     1.0  0.63366  0.25949  0.27488  1.0000
  C   C736      1.0  0.60279  0.03555  0.47494  1.0000
  C   C737      1.0  0.63811  0.31156  0.45395  1.0000
  C   C738      1.0  0.56650  0.01300  0.43055  1.0000
  H   H1186     1.0  0.65224  0.05519  0.42985  1.0000
  N   N76       1.0  0.89780  0.22038  0.42910  1.0000
  C   C739      1.0  0.91893  0.24768  0.40965  1.0000
  C   C740      1.0  0.92409  0.19996  0.45018  1.0000
  C   C741      1.0  0.87851  0.19326  0.40812  1.0000
  C   C742      1.0  0.86959  0.24064  0.44834  1.0000
  H   H1187     1.0  0.86626  0.25887  0.33921  1.0000
  C   C743      1.0  0.58045  0.07914  0.43545  1.0000
  C   C744      1.0  0.71870  0.00639  0.29609  1.0000
  H   H1188     1.0  0.97424  0.10035  0.45947  1.0000
  H   H1189     1.0  0.85302  0.22085  0.46324  1.0000
  H   H1190     1.0  0.60201  0.17145  0.31384  1.0000
  H   H1191     1.0  0.68592  0.21224  0.27434  1.0000
  H   H1192     1.0  0.62293  0.23931  0.46735  1.0000
  H   H1193     1.0  0.90090  0.31686  0.27200  1.0000
  S   S297      1.0  0.58518  0.33160  0.38747  1.0000
  H   H1194     1.0  0.85741  0.20747  0.39265  1.0000
  H   H1195     1.0  0.65648  0.28979  0.39531  1.0000
  H   H1196     1.0  0.89988  0.26430  0.39412  1.0000
  H   H1197     1.0  0.79749  0.03412  0.29437  1.0000
  H   H1198     1.0  0.62522  0.03911  0.39654  1.0000
  C   C745      1.0  0.88951  0.05727  0.30333  1.0000
  H   H1199     1.0  0.59857  0.03436  0.34025  1.0000
  H   H1200     1.0  0.94764  0.31898  0.31612  1.0000
  C   C746      1.0  0.95504  0.00757  0.44899  1.0000
  S   S298      1.0  0.83491  0.32626  0.36461  1.0000
  Fe  Fe146     1.0  0.50704  0.16701  0.34046  1.0000
  S   S299      1.0  0.72715  0.33266  0.33913  1.0000
  H   H1201     1.0  0.55092  0.02922  0.32684  1.0000
  H   H1202     1.0  0.89603  0.33245  0.40702  1.0000
  C   C747      1.0  0.87949  0.26728  0.69790  1.0000
  H   H1203     1.0  0.80994  0.23499  0.58883  1.0000
  C   C748      1.0  0.91185  0.14582  0.71387  1.0000
  C   C749      1.0  0.94717  0.14469  0.69921  1.0000
  C   C750      1.0  0.95072  0.15443  0.66696  1.0000
  C   C751      1.0  0.91906  0.16631  0.64990  1.0000
  C   C752      1.0  0.88420  0.16835  0.66491  1.0000
  C   C753      1.0  0.88057  0.15773  0.69668  1.0000
  H   H1204     1.0  0.97143  0.13557  0.71250  1.0000
  H   H1205     1.0  0.65193  0.30099  0.53549  1.0000
  H   H1206     1.0  0.85969  0.17693  0.65165  1.0000
  H   H1207     1.0  0.85333  0.15836  0.70786  1.0000
  H   H1208     1.0  0.73713  0.03922  0.57677  1.0000
  Fe  Fe147     1.0  0.97912  0.08976  0.53288  1.0000
  H   H1209     1.0  0.54859  0.20346  0.71977  1.0000
  S   S300      1.0  0.97664  0.08732  0.58616  1.0000
  H   H1210     1.0  0.81133  0.24577  0.51672  1.0000
  H   H1211     1.0  0.97782  0.15311  0.65534  1.0000
  C   C754      1.0  0.59224  0.10896  0.72349  1.0000
  C   C755      1.0  0.55780  0.11029  0.70745  1.0000
  C   C756      1.0  0.55602  0.10096  0.67497  1.0000
  C   C757      1.0  0.58860  0.08969  0.65891  1.0000
  C   C758      1.0  0.62262  0.08752  0.67532  1.0000
  C   C759      1.0  0.62447  0.09749  0.70739  1.0000
  H   H1212     1.0  0.53292  0.11944  0.71986  1.0000
  Fe  Fe148     1.0  0.96703  0.14937  0.58294  1.0000
  H   H1213     1.0  0.83904  0.32543  0.71983  1.0000
  Fe  Fe149     1.0  0.52435  0.16317  0.54120  1.0000
  H   H1214     1.0  0.89619  0.28656  0.71319  1.0000
  S   S301      1.0  0.52718  0.16554  0.59449  1.0000
  H   H1215     1.0  0.62322  0.24375  0.64805  1.0000
  H   H1216     1.0  0.70856  0.23128  0.71521  1.0000
  H   H1217     1.0  0.86738  0.24485  0.71321  1.0000
  S   S302      1.0  0.54281  0.10304  0.53776  1.0000
  C   C760      1.0  0.66764  0.02399  0.59795  1.0000
  H   H1218     1.0  0.89468  0.08147  0.58242  1.0000
  H   H1219     1.0  0.59118  0.25777  0.73132  1.0000
  H   H1220     1.0  0.78627  0.02258  0.65599  1.0000
  S   S303      1.0  0.54824  0.21164  0.51354  1.0000
  H   H1221     1.0  0.86249  0.19835  0.51940  1.0000
  H   H1222     1.0  0.64787  0.07913  0.66307  1.0000
  S   S304      1.0  0.96399  0.15060  0.52972  1.0000
  H   H1223     1.0  0.84731  0.20076  0.59034  1.0000
  C   C761      1.0  0.86703  0.31705  0.66046  1.0000
  S   S305      1.0  0.72954  0.08623  0.65479  1.0000
  Fe  Fe150     1.0  0.71684  0.14768  0.65815  1.0000
  S   S306      1.0  0.66940  0.17484  0.63190  1.0000
  C   C762      1.0  0.65985  0.15210  0.52587  1.0000
  C   C763      1.0  0.69556  0.15281  0.53985  1.0000
  C   C764      1.0  0.69922  0.15961  0.57268  1.0000
  C   C765      1.0  0.66705  0.16588  0.59114  1.0000
  C   C766      1.0  0.63175  0.16574  0.57685  1.0000
  C   C767      1.0  0.62818  0.15882  0.54438  1.0000
  H   H1224     1.0  0.72007  0.14765  0.52546  1.0000
  H   H1225     1.0  0.72667  0.16031  0.58368  1.0000
  H   H1226     1.0  0.60697  0.17010  0.59111  1.0000
  H   H1227     1.0  0.60072  0.15808  0.53365  1.0000
  S   S307      1.0  0.71483  0.14861  0.71139  1.0000
  Fe  Fe151     1.0  0.78960  0.10450  0.65627  1.0000
  S   S308      1.0  0.83440  0.07859  0.62614  1.0000
  C   C768      1.0  0.84095  0.11833  0.52351  1.0000
  C   C769      1.0  0.80677  0.12108  0.53983  1.0000
  C   C770      1.0  0.80449  0.10993  0.57186  1.0000
  C   C771      1.0  0.83624  0.09519  0.58705  1.0000
  C   C772      1.0  0.87007  0.09220  0.57053  1.0000
  C   C773      1.0  0.87250  0.10402  0.53894  1.0000
  H   H1228     1.0  0.78246  0.13241  0.52793  1.0000
  H   H1229     1.0  0.77831  0.11231  0.58470  1.0000
  S   S309      1.0  0.79460  0.10133  0.70938  1.0000
  Fe  Fe152     1.0  0.77618  0.16145  0.70798  1.0000
  H   H1230     1.0  0.57548  0.28330  0.69714  1.0000
  S   S310      1.0  0.77676  0.16599  0.65481  1.0000
  Fe  Fe153     1.0  0.73307  0.08863  0.70797  1.0000
  H   H1231     1.0  0.81252  0.19817  0.55986  1.0000
  C   C774      1.0  0.71320  0.25684  0.70194  1.0000
  C   C775      1.0  0.68157  0.00443  0.54439  1.0000
  H   H1232     1.0  0.68054  0.01018  0.67093  1.0000
  C   C776      1.0  0.98854  0.32135  0.57509  1.0000
  N   N77       1.0  0.60272  0.29536  0.56459  1.0000
  S   S311      1.0  0.73576  0.28367  0.61122  1.0000
  C   C777      1.0  0.99040  0.28619  0.58989  1.0000
  H   H1233     1.0  0.89744  0.20146  0.54958  1.0000
  H   H1234     1.0  0.98169  0.22701  0.58437  1.0000
  H   H1235     1.0  0.65105  0.09660  0.71972  1.0000
  C   C778      1.0  0.71273  0.29137  0.71755  1.0000
  S   S312      1.0  0.92199  0.17952  0.61003  1.0000
  H   H1236     1.0  0.94388  0.02319  0.72706  1.0000
  H   H1237     1.0  0.97352  0.02246  0.69248  1.0000
  H   H1238     1.0  0.92184  0.07358  0.65089  1.0000
  H   H1239     1.0  0.89809  0.03416  0.63385  1.0000
  H   H1240     1.0  0.64795  0.20874  0.69405  1.0000
  S   S313      1.0  0.70670  0.04176  0.73550  1.0000
  S   S314      1.0  0.95076  0.04374  0.50549  1.0000
  H   H1241     1.0  0.94789  0.03227  0.64018  1.0000
  C   C779      1.0  0.82389  0.30586  0.70364  1.0000
  C   C780      1.0  0.71416  0.05745  0.56746  1.0000
  Fe  Fe154     1.0  0.54051  0.10414  0.59110  1.0000
  H   H1242     1.0  0.53018  0.23094  0.68733  1.0000
  H   H1243     1.0  0.85268  0.00728  0.58200  1.0000
  H   H1244     1.0  0.85527  0.03833  0.68163  1.0000
  H   H1245     1.0  0.81398  0.23963  0.67518  1.0000
  H   H1246     1.0  0.61642  0.19161  0.72412  1.0000
  C   C781      1.0  0.94740  0.03479  0.70275  1.0000
  H   H1247     1.0  0.58722  0.28996  0.51542  1.0000
  H   H1248     1.0  0.54733  0.18441  0.68030  1.0000
  C   C782      1.0  0.64844  0.06254  0.55400  1.0000
  C   C783      1.0  0.72039  0.25504  0.66939  1.0000
  S   S315      1.0  0.58781  0.07770  0.61855  1.0000
  H   H1249     1.0  0.71215  0.08215  0.58359  1.0000
  N   N78       1.0  0.59042  0.22571  0.68800  1.0000
  C   C784      1.0  0.59562  0.26145  0.70539  1.0000
  C   C785      1.0  0.61898  0.19825  0.69845  1.0000
  C   C786      1.0  0.55245  0.21053  0.69424  1.0000
  C   C787      1.0  0.59479  0.23241  0.65358  1.0000
  C   C788      1.0  0.58726  0.31217  0.59388  1.0000
  H   H1250     1.0  0.54865  0.28927  0.54235  1.0000
  H   H1251     1.0  0.89659  0.23570  0.51841  1.0000
  H   H1252     1.0  0.84727  0.24613  0.64377  1.0000
  H   H1253     1.0  0.61636  0.17140  0.68508  1.0000
  C   C789      1.0  0.92090  0.04225  0.65048  1.0000
  C   C790      1.0  0.60734  0.25443  0.56900  1.0000
  C   C791      1.0  0.97799  0.32404  0.54293  1.0000
  H   H1254     1.0  0.58011  0.24065  0.57504  1.0000
  H   H1255     1.0  0.64469  0.08698  0.57019  1.0000
  H   H1256     1.0  0.88322  0.07503  0.69811  1.0000
  H   H1257     1.0  0.68945  0.01333  0.51995  1.0000
  N   N79       1.0  0.84970  0.28785  0.68067  1.0000
  H   H1258     1.0  0.89881  0.10172  0.52635  1.0000
  H   H1259     1.0  0.61759  0.24066  0.54689  1.0000
  H   H1260     1.0  0.89520  0.25234  0.58910  1.0000
  H   H1261     1.0  0.79796  0.01751  0.71368  1.0000
  C   C792      1.0  0.72673  0.28778  0.65203  1.0000
  C   C793      1.0  0.98097  0.25401  0.57284  1.0000
  H   H1262     1.0  0.52959  0.10220  0.66236  1.0000
  H   H1263     1.0  0.72101  0.22810  0.65761  1.0000
  H   H1264     1.0  0.80927  0.28267  0.54581  1.0000
  H   H1265     1.0  0.62790  0.24780  0.58813  1.0000
  C   C794      1.0  0.96899  0.29144  0.52592  1.0000
  H   H1266     1.0  0.62456  0.27287  0.70210  1.0000
  H   H1267     1.0  0.54891  0.01972  0.54093  1.0000
  H   H1268     1.0  0.95196  0.06560  0.70502  1.0000
  H   H1269     1.0  0.66518  0.04805  0.61472  1.0000
  N   N80       1.0  0.85317  0.24226  0.55343  1.0000
  C   C795      1.0  0.82971  0.21813  0.57409  1.0000
  C   C796      1.0  0.87585  0.26811  0.57311  1.0000
  C   C797      1.0  0.82873  0.26437  0.53207  1.0000
  C   C798      1.0  0.87850  0.21847  0.53427  1.0000
  N   N81       1.0  0.91443  0.02661  0.68257  1.0000
  H   H1270     1.0  0.84561  0.28302  0.51627  1.0000
  H   H1271     1.0  0.88775  0.30470  0.64361  1.0000
  H   H1272     1.0  0.89369  0.28672  0.55803  1.0000
  C   C799      1.0  0.82847  0.26127  0.66054  1.0000
  C   C800      1.0  0.72647  0.32269  0.66751  1.0000
  N   N82       1.0  0.67800  0.03707  0.56588  1.0000
  H   H1273     1.0  0.80634  0.27586  0.64658  1.0000
  H   H1274     1.0  0.55990  0.29915  0.60018  1.0000
  H   H1275     1.0  0.65555  0.07384  0.53020  1.0000
  C   C801      1.0  0.71971  0.32448  0.70048  1.0000
  H   H1276     1.0  0.59162  0.20577  0.63991  1.0000
  H   H1277     1.0  0.53496  0.02326  0.59825  1.0000
  H   H1278     1.0  0.96413  0.23139  0.52775  1.0000
  C   C802      1.0  0.97045  0.25659  0.54097  1.0000
  H   H1279     1.0  0.89928  0.25319  0.68117  1.0000
  H   H1280     1.0  0.72288  0.06808  0.54373  1.0000
  H   H1281     1.0  0.85769  0.28646  0.58794  1.0000
  S   S316      1.0  0.80179  0.20828  0.73605  1.0000
  H   H1282     1.0  0.63993  0.00950  0.59770  1.0000
  C   C803      1.0  0.88049  0.04396  0.69649  1.0000
  H   H1283     1.0  0.62063  0.04827  0.55257  1.0000
  H   H1284     1.0  0.57318  0.25229  0.64463  1.0000
  H   H1285     1.0  0.80919  0.28470  0.71862  1.0000
  H   H1286     1.0  0.87455  0.03297  0.72066  1.0000
  C   C804      1.0  0.57662  0.30238  0.53792  1.0000
  H   H1287     1.0  0.80174  0.32238  0.69134  1.0000
  H   H1288     1.0  0.62943  0.01772  0.70969  1.0000
  C   C805      1.0  0.63961  0.31249  0.55766  1.0000
  H   H1289     1.0  0.91941  0.02169  0.56868  1.0000
  H   H1290     1.0  0.60662  0.30827  0.61436  1.0000
  H   H1291     1.0  0.66012  0.30708  0.57717  1.0000
  H   H1292     1.0  0.87451  0.01082  0.52578  1.0000
  H   H1293     1.0  0.61306  0.00350  0.65414  1.0000
  H   H1294     1.0  0.68914  0.00448  0.60761  1.0000
  H   H1295     1.0  0.84544  0.33249  0.64649  1.0000
  H   H1296     1.0  0.57208  0.33298  0.53390  1.0000
  H   H1297     1.0  0.65582  0.02552  0.91755  1.0000
  Fe  Fe155     1.0  0.95832  0.12693  0.78066  1.0000
  C   C806      1.0  0.97770  0.03446  0.89941  1.0000
  C   C807      1.0  0.71079  0.00576  0.79206  1.0000
  S   S317      1.0  0.95247  0.12859  0.83354  1.0000
  H   H1298     1.0  0.60636  0.21000  0.78063  1.0000
  H   H1299     1.0  0.60567  0.06146  0.89158  1.0000
  C   C808      1.0  0.71977  0.00219  0.82423  1.0000
  H   H1300     1.0  0.59213  0.02506  0.98755  1.0000
  C   C809      1.0  0.96406  0.04162  0.96472  1.0000
  H   H1301     1.0  0.84536  0.02057  0.90154  1.0000
  S   S318      1.0  0.72419  0.33316  0.84050  1.0000
  H   H1302     1.0  0.52169  0.27588  0.91150  1.0000
  H   H1303     1.0  0.56270  0.07145  0.91224  1.0000
  H   H1304     1.0  0.88125  0.26166  0.96326  1.0000
  C   C810      1.0  0.98031  0.06978  0.91395  1.0000
  Fe  Fe156     1.0  0.54277  0.12357  0.78998  1.0000
  C   C811      1.0  0.51505  0.18138  0.92012  1.0000
  Fe  Fe157     1.0  0.50097  0.08283  0.84149  1.0000
  H   H1305     1.0  0.63480  0.25197  0.77888  1.0000
  S   S319      1.0  0.54732  0.12512  0.84304  1.0000
  H   H1306     1.0  0.60373  0.28714  0.94556  1.0000
  C   C812      1.0  0.97367  0.07337  0.94679  1.0000
  H   H1307     1.0  0.94439  0.27539  0.84123  1.0000
  C   C813      1.0  0.52512  0.17842  0.95237  1.0000
  C   C814      1.0  0.53397  0.21088  0.96964  1.0000
  C   C815      1.0  0.53224  0.24592  0.95489  1.0000
  C   C816      1.0  0.52206  0.24878  0.92294  1.0000
  H   H1308     1.0  0.81897  0.03093  0.77439  1.0000
  H   H1309     1.0  0.86507  0.21795  0.80945  1.0000
  H   H1310     1.0  0.53878  0.27095  0.96827  1.0000
  S   S320      1.0  0.84938  0.11764  0.98501  1.0000
  C   C817      1.0  0.59349  0.06750  0.91535  1.0000
  H   H1311     1.0  0.85338  0.20530  0.89352  1.0000
  H   H1312     1.0  0.69575  0.22526  0.84683  1.0000
  H   H1313     1.0  0.65413  0.25402  0.84878  1.0000
  H   H1314     1.0  0.90379  0.01449  0.77545  1.0000
  H   H1315     1.0  0.66456  0.17198  0.77516  1.0000
  H   H1316     1.0  0.87974  0.02230  0.93275  1.0000
  H   H1317     1.0  0.65422  0.31038  0.97979  1.0000
  H   H1318     1.0  0.91308  0.22546  0.76823  1.0000
  H   H1319     1.0  0.85876  0.17066  0.92424  1.0000
  H   H1320     1.0  0.62123  0.16043  0.82006  1.0000
  H   H1321     1.0  0.70182  0.17737  0.80345  1.0000
  H   H1322     1.0  0.90461  0.06444  0.81608  1.0000
  H   H1323     1.0  0.60292  0.24503  0.81130  1.0000
  H   H1324     1.0  0.86876  0.06621  0.84606  1.0000
  H   H1325     1.0  0.60534  0.09475  0.92374  1.0000
  H   H1326     1.0  0.68743  0.26025  0.81734  1.0000
  S   S321      1.0  0.50044  0.07712  0.78849  1.0000
  H   H1327     1.0  0.93662  0.22919  0.89371  1.0000
  H   H1328     1.0  0.65800  0.16779  0.84840  1.0000
  H   H1329     1.0  0.94353  0.26600  0.76832  1.0000
  S   S322      1.0  0.65733  0.13013  0.98353  1.0000
  C   C818      1.0  0.86373  0.00299  0.91687  1.0000
  C   C819      1.0  0.92362  0.29097  0.82647  1.0000
  Fe  Fe158     1.0  0.71139  0.12577  0.95737  1.0000
  S   S323      1.0  0.75730  0.16844  0.96041  1.0000
  H   H1330     1.0  0.67948  0.23158  0.90653  1.0000
  Fe  Fe159     1.0  0.79550  0.11879  0.95852  1.0000
  S   S324      1.0  0.74948  0.07610  0.96109  1.0000
  H   H1331     1.0  0.90351  0.02935  0.84666  1.0000
  Fe  Fe160     1.0  0.75819  0.16369  0.90748  1.0000
  S   S325      1.0  0.80061  0.11755  0.90559  1.0000
  S   S326      1.0  0.76437  0.21783  0.88189  1.0000
  C   C820      1.0  0.77443  0.21334  0.84138  1.0000
  C   C821      1.0  0.77736  0.17815  0.82665  1.0000
  C   C822      1.0  0.78471  0.17594  0.79383  1.0000
  C   C823      1.0  0.78928  0.20898  0.77615  1.0000
  C   C824      1.0  0.78606  0.24379  0.79101  1.0000
  C   C825      1.0  0.77878  0.24596  0.82350  1.0000
  H   H1332     1.0  0.77402  0.15285  0.84049  1.0000
  H   H1333     1.0  0.78764  0.14890  0.78234  1.0000
  H   H1334     1.0  0.78879  0.26918  0.77721  1.0000
  H   H1335     1.0  0.77666  0.27306  0.83481  1.0000
  Fe  Fe161     1.0  0.75077  0.07966  0.90795  1.0000
  S   S327      1.0  0.70826  0.12576  0.90426  1.0000
  S   S328      1.0  0.74744  0.02614  0.88089  1.0000
  C   C826      1.0  0.73535  0.03234  0.84078  1.0000
  C   C827      1.0  0.74192  0.06641  0.82501  1.0000
  C   C828      1.0  0.73368  0.06977  0.79239  1.0000
  C   C829      1.0  0.71813  0.03924  0.77595  1.0000
  H   H1336     1.0  0.98785  0.09408  0.90001  1.0000
  H   H1337     1.0  0.66851  0.26325  0.98966  1.0000
  H   H1338     1.0  0.75395  0.08979  0.83778  1.0000
  H   H1339     1.0  0.73903  0.09586  0.78000  1.0000
  C   C830      1.0  0.58540  0.04672  0.96942  1.0000
  H   H1340     1.0  0.89734  0.26137  0.89325  1.0000
  H   H1341     1.0  0.59605  0.07425  0.97819  1.0000
  N   N83       1.0  0.65291  0.21103  0.81304  1.0000
  C   C831      1.0  0.67340  0.23883  0.83247  1.0000
  C   C832      1.0  0.62286  0.23030  0.79510  1.0000
  C   C833      1.0  0.67921  0.19270  0.79065  1.0000
  C   C834      1.0  0.63611  0.18235  0.83408  1.0000
  H   H1342     1.0  0.61535  0.19504  0.85073  1.0000
  H   H1343     1.0  0.66141  0.29703  0.89269  1.0000
  S   S329      1.0  0.70120  0.29175  0.75794  1.0000
  C   C835      1.0  0.96079  0.00669  0.94989  1.0000
  H   H1344     1.0  0.69325  0.21359  0.77492  1.0000
  H   H1345     1.0  0.89401  0.17489  0.89404  1.0000
  H   H1346     1.0  0.69889  0.31416  0.91720  1.0000
  H   H1347     1.0  0.82828  0.01659  0.97119  1.0000
  Fe  Fe162     1.0  0.50094  0.16730  0.83960  1.0000
  H   H1348     1.0  0.81786  0.01865  0.84608  1.0000
  S   S330      1.0  0.99546  0.07647  0.77949  1.0000
  N   N84       1.0  0.86104  0.02340  0.81063  1.0000
  H   H1349     1.0  0.55414  0.04860  0.96832  1.0000
  S   S331      1.0  0.50103  0.03010  0.86996  1.0000
  H   H1350     1.0  0.94969  0.22966  0.79744  1.0000
  H   H1351     1.0  0.90476  0.30679  0.84281  1.0000
  C   C836      1.0  0.92826  0.24578  0.78382  1.0000
  H   H1352     1.0  0.90527  0.17859  0.96664  1.0000
  C   C837      1.0  0.64268  0.03198  0.94098  1.0000
  C   C838      1.0  0.51335  0.21667  0.90552  1.0000
  H   H1353     1.0  0.85006  0.22165  0.96358  1.0000
  N   N85       1.0  0.66229  0.27396  0.93984  1.0000
  C   C839      1.0  0.68577  0.24135  0.93103  1.0000
  C   C840      1.0  0.88551  0.04692  0.83084  1.0000
  C   C841      1.0  0.62221  0.26308  0.93900  1.0000
  C   C842      1.0  0.67220  0.28641  0.97222  1.0000
  H   H1354     1.0  0.61600  0.23953  0.95565  1.0000
  S   S332      1.0  0.50061  0.16981  0.78650  1.0000
  C   C843      1.0  0.88163  0.23744  0.82476  1.0000
  C   C844      1.0  0.96777  0.00312  0.91740  1.0000
  H   H1355     1.0  0.50854  0.15662  0.90651  1.0000
  H   H1356     1.0  0.58446  0.01684  0.84725  1.0000
  H   H1357     1.0  0.93271  0.26487  0.92328  1.0000
  C   C845      1.0  0.58464  0.00151  0.92676  1.0000
  H   H1358     1.0  0.97574  0.10052  0.95822  1.0000
  C   C846      1.0  0.83812  0.04778  0.78975  1.0000
  N   N86       1.0  0.60156  0.03695  0.93812  1.0000
  H   H1359     1.0  0.65143  0.33007  0.92327  1.0000
  H   H1360     1.0  0.85831  0.26926  0.77054  1.0000
  N   N87       1.0  0.90214  0.26544  0.80548  1.0000
  H   H1361     1.0  0.70191  0.29606  0.97345  1.0000
  C   C847      1.0  0.87491  0.28753  0.78673  1.0000
  S   S333      1.0  0.59652  0.12384  0.76299  1.0000
  H   H1362     1.0  0.71622  0.24854  0.93178  1.0000
  H   H1363     1.0  0.93945  0.31230  0.81253  1.0000
  H   H1364     1.0  0.52692  0.15117  0.96366  1.0000
  H   H1365     1.0  0.84713  0.25593  0.93238  1.0000
  N   N88       1.0  0.89456  0.21864  0.92924  1.0000
  C   C848      1.0  0.86703  0.24036  0.94807  1.0000
  C   C849      1.0  0.87430  0.19120  0.90925  1.0000
  C   C850      1.0  0.92053  0.19838  0.95071  1.0000
  C   C851      1.0  0.91618  0.24458  0.90883  1.0000
  H   H1366     1.0  0.85470  0.30243  0.80250  1.0000
  S   S334      1.0  0.58190  0.32582  0.88596  1.0000
  H   H1367     1.0  0.82004  0.06711  0.80380  1.0000
  H   H1368     1.0  0.64968  0.00818  0.95704  1.0000
  C   C852      1.0  0.66896  0.30510  0.91732  1.0000
  Fe  Fe163     1.0  0.99421  0.08169  0.83243  1.0000
  H   H1369     1.0  0.94148  0.18164  0.93713  1.0000
  H   H1370     1.0  0.85595  0.06547  0.77399  1.0000
  H   H1371     1.0  0.93675  0.21812  0.96596  1.0000
  H   H1372     1.0  0.90128  0.22010  0.83912  1.0000
  H   H1373     1.0  0.65636  0.05777  0.95044  1.0000
  S   S335      1.0  0.98826  0.02824  0.85911  1.0000
  S   S336      1.0  0.95081  0.29326  0.98365  1.0000
  H   H1374     1.0  0.68102  0.21715  0.94735  1.0000
  H   H1375     1.0  0.61735  0.01785  0.81482  1.0000
  H   H1376     1.0  0.61337  0.25413  0.91479  1.0000
  H   H1377     1.0  0.86130  0.25131  0.84113  1.0000
  H   H1378     1.0  0.88917  0.30932  0.77222  1.0000
  H   H1379     1.0  0.55363  0.00393  0.92435  1.0000
  H   H1380     1.0  0.64351  0.32507  0.84337  1.0000
  H   H1381     1.0  0.89318  0.33086  0.90756  1.0000
  H   H1382     1.0  0.79370  0.01160  0.94031  1.0000
  H   H1383     1.0  0.53233  0.00271  0.81016  1.0000
  S   S337      1.0  0.90538  0.13032  0.75297  1.0000
  S   S338      1.0  0.83090  0.32166  0.86650  1.0000
  H   H1384     1.0  0.56528  0.00514  0.77783  1.0000
  C   C853      1.0  0.83600  0.00063  0.83094  1.0000
  H   H1385     1.0  0.86705  0.47207  0.18540  1.0000
  H   H1386     1.0  0.96510  0.35250  0.03024  1.0000
  S   S339      1.0  0.84427  0.36803  0.01061  1.0000
  Fe  Fe164     1.0  0.97878  0.58877  0.03670  1.0000
  H   H1387     1.0  0.64840  0.47067  0.09483  1.0000
  S   S340      1.0  0.97680  0.58577  0.08994  1.0000
  S   S341      1.0  0.60056  0.36748  0.24131  1.0000
  Fe  Fe165     1.0  0.54718  0.37074  0.21412  1.0000
  H   H1388     1.0  0.60410  0.55360  0.05665  1.0000
  H   H1389     1.0  0.65115  0.49974  0.14960  1.0000
  H   H1390     1.0  0.65347  0.55745  0.09760  1.0000
  H   H1391     1.0  0.64754  0.39990  0.17759  1.0000
  H   H1392     1.0  0.60919  0.50278  0.09645  1.0000
  H   H1393     1.0  0.69232  0.52517  0.09698  1.0000
  C   C854      1.0  0.53585  0.46022  0.03307  1.0000
  C   C855      1.0  0.53292  0.49520  0.04774  1.0000
  C   C856      1.0  0.52463  0.49776  0.08007  1.0000
  Fe  Fe166     1.0  0.52352  0.66130  0.03871  1.0000
  H   H1394     1.0  0.51838  0.40503  0.09760  1.0000
  H   H1395     1.0  0.53671  0.52044  0.03391  1.0000
  H   H1396     1.0  0.65716  0.42612  0.22982  1.0000
  Fe  Fe167     1.0  0.95624  0.38227  0.20795  1.0000
  H   H1397     1.0  0.84501  0.51224  0.05890  1.0000
  H   H1398     1.0  0.97657  0.65137  0.16133  1.0000
  C   C857      1.0  0.52221  0.43008  0.08359  1.0000
  S   S342      1.0  0.95056  0.38344  0.15509  1.0000
  S   S343      1.0  0.71020  0.64797  0.21379  1.0000
  H   H1399     1.0  0.84650  0.47689  0.02841  1.0000
  S   S344      1.0  0.57970  0.57376  0.11782  1.0000
  H   H1400     1.0  0.52277  0.52493  0.09125  1.0000
  H   H1401     1.0  0.61226  0.46896  0.06505  1.0000
  C   C858      1.0  0.62922  0.48823  0.08024  1.0000
  H   H1402     1.0  0.86198  0.52304  0.22404  1.0000
  C   C859      1.0  0.58832  0.60315  0.22288  1.0000
  C   C860      1.0  0.55293  0.60298  0.20830  1.0000
  C   C861      1.0  0.54975  0.59477  0.17567  1.0000
  C   C862      1.0  0.58200  0.58615  0.15801  1.0000
  C   C863      1.0  0.61706  0.58598  0.17282  1.0000
  C   C864      1.0  0.62023  0.59466  0.20508  1.0000
  H   H1403     1.0  0.52823  0.60952  0.22206  1.0000
  H   H1404     1.0  0.90148  0.47425  0.15425  1.0000
  H   H1405     1.0  0.64197  0.57980  0.15912  1.0000
  H   H1406     1.0  0.64753  0.59476  0.21626  1.0000
  H   H1407     1.0  0.52251  0.59456  0.16426  1.0000
  S   S345      1.0  0.90263  0.38618  0.23455  1.0000
  H   H1408     1.0  0.89918  0.43068  0.02707  1.0000
  H   H1409     1.0  0.63896  0.55865  0.02653  1.0000
  Fe  Fe168     1.0  0.79044  0.37080  0.03710  1.0000
  H   H1410     1.0  0.85825  0.55753  0.19324  1.0000
  Fe  Fe169     1.0  0.70624  0.37712  0.03714  1.0000
  S   S346      1.0  0.75183  0.42013  0.03495  1.0000
  H   H1411     1.0  0.93458  0.43210  0.05733  1.0000
  C   C865      1.0  0.62827  0.64728  0.04538  1.0000
  S   S347      1.0  0.70193  0.37594  0.09009  1.0000
  H   H1412     1.0  0.72033  0.63068  0.03036  1.0000
  H   H1413     1.0  0.84714  0.46216  0.09894  1.0000
  S   S348      1.0  0.53863  0.60045  0.03602  1.0000
  S   S349      1.0  0.55308  0.37323  0.16124  1.0000
  Fe  Fe170     1.0  0.53464  0.60198  0.08925  1.0000
  Fe  Fe171     1.0  0.75105  0.41489  0.08787  1.0000
  H   H1414     1.0  0.94796  0.51947  0.22345  1.0000
  S   S350      1.0  0.75275  0.46884  0.11420  1.0000
  C   C866      1.0  0.76713  0.46362  0.15369  1.0000
  C   C867      1.0  0.76719  0.42844  0.16861  1.0000
  C   C868      1.0  0.77617  0.42566  0.20107  1.0000
  C   C869      1.0  0.78578  0.45804  0.21813  1.0000
  C   C870      1.0  0.78651  0.49282  0.20289  1.0000
  C   C871      1.0  0.77710  0.49561  0.17081  1.0000
  H   H1415     1.0  0.75968  0.40364  0.15532  1.0000
  H   H1416     1.0  0.77605  0.39863  0.21284  1.0000
  H   H1417     1.0  0.79331  0.51784  0.21619  1.0000
  H   H1418     1.0  0.77730  0.52269  0.15929  1.0000
  S   S351      1.0  0.72481  0.58418  0.15816  1.0000
  H   H1419     1.0  0.97701  0.34834  0.08867  1.0000
  H   H1420     1.0  0.53296  0.40020  0.03964  1.0000
  H   H1421     1.0  0.74105  0.34088  0.15381  1.0000
  Fe  Fe172     1.0  0.78523  0.60148  0.15993  1.0000
  S   S352      1.0  0.83121  0.57461  0.13146  1.0000
  C   C872      1.0  0.84203  0.60852  0.02760  1.0000
  C   C873      1.0  0.80642  0.60792  0.04171  1.0000
  C   C874      1.0  0.80261  0.59870  0.07407  1.0000
  C   C875      1.0  0.83452  0.58955  0.09196  1.0000
  C   C876      1.0  0.86988  0.59013  0.07768  1.0000
  C   C877      1.0  0.87360  0.59965  0.04566  1.0000
  H   H1422     1.0  0.78201  0.61468  0.02769  1.0000
  H   H1423     1.0  0.77512  0.59780  0.08501  1.0000
  H   H1424     1.0  0.89457  0.58363  0.09154  1.0000
  H   H1425     1.0  0.90100  0.59967  0.03475  1.0000
  S   S353      1.0  0.78923  0.59959  0.21316  1.0000
  H   H1426     1.0  0.91772  0.47872  0.22413  1.0000
  Fe  Fe173     1.0  0.71314  0.64591  0.16054  1.0000
  H   H1427     1.0  0.92980  0.51672  0.06965  1.0000
  Fe  Fe174     1.0  0.72764  0.58765  0.21140  1.0000
  H   H1428     1.0  0.93303  0.46827  0.02795  1.0000
  N   N89       1.0  0.88982  0.47206  0.06366  1.0000
  C   C878      1.0  0.91514  0.44982  0.04305  1.0000
  C   C879      1.0  0.91242  0.49712  0.08409  1.0000
  C   C880      1.0  0.86420  0.49493  0.04391  1.0000
  C   C881      1.0  0.86738  0.44639  0.08370  1.0000
  H   H1429     1.0  0.89397  0.56236  0.22270  1.0000
  C   C882      1.0  0.51927  0.46539  0.09808  1.0000
  H   H1430     1.0  0.85102  0.65220  0.21237  1.0000
  H   H1431     1.0  0.68876  0.56160  0.06768  1.0000
  H   H1432     1.0  0.68861  0.42395  0.16343  1.0000
  H   H1433     1.0  0.94189  0.56594  0.17958  1.0000
  C   C883      1.0  0.69803  0.64800  0.07584  1.0000
  H   H1434     1.0  0.59347  0.46581  0.16733  1.0000
  H   H1435     1.0  0.94458  0.52935  0.15040  1.0000
  H   H1436     1.0  0.88567  0.42922  0.09948  1.0000
  S   S354      1.0  0.95072  0.54301  0.00900  1.0000
  N   N90       1.0  0.64874  0.45912  0.18748  1.0000
  C   C884      1.0  0.66375  0.49399  0.17322  1.0000
  C   C885      1.0  0.65774  0.42671  0.16690  1.0000
  C   C886      1.0  0.60752  0.46250  0.19084  1.0000
  C   C887      1.0  0.66599  0.45330  0.21905  1.0000
  C   C888      1.0  0.91731  0.66114  0.15483  1.0000
  S   S355      1.0  0.77347  0.66316  0.15757  1.0000
  H   H1437     1.0  0.90534  0.56117  0.15089  1.0000
  H   H1438     1.0  0.95259  0.48392  0.19355  1.0000
  H   H1439     1.0  0.59538  0.43727  0.20261  1.0000
  C   C889      1.0  0.87841  0.65188  0.20137  1.0000
  H   H1440     1.0  0.88009  0.51483  0.02854  1.0000
  H   H1441     1.0  0.65767  0.51876  0.18848  1.0000
  C   C890      1.0  0.69546  0.63812  0.04351  1.0000
  H   H1442     1.0  0.65813  0.47607  0.23579  1.0000
  H   H1443     1.0  0.69245  0.51449  0.02409  1.0000
  Fe  Fe175     1.0  0.50720  0.41591  0.16438  1.0000
  N   N91       1.0  0.90455  0.51942  0.18797  1.0000
  C   C891      1.0  0.87861  0.54148  0.20801  1.0000
  C   C892      1.0  0.92496  0.54495  0.16623  1.0000
  C   C893      1.0  0.93187  0.49950  0.20831  1.0000
  C   C894      1.0  0.88279  0.49159  0.16949  1.0000
  C   C895      1.0  0.62403  0.53768  0.04140  1.0000
  C   C896      1.0  0.63076  0.65729  0.07736  1.0000
  H   H1444     1.0  0.60696  0.51936  0.02559  1.0000
  Fe  Fe176     1.0  0.96623  0.64761  0.08724  1.0000
  H   H1445     1.0  0.69729  0.45321  0.21763  1.0000
  C   C897      1.0  0.88206  0.66129  0.16930  1.0000
  H   H1446     1.0  0.85079  0.42657  0.06880  1.0000
  S   S356      1.0  0.50780  0.47019  0.13838  1.0000
  S   S357      1.0  0.96279  0.64938  0.03402  1.0000
  C   C898      1.0  0.94918  0.65126  0.17250  1.0000
  H   H1447     1.0  0.89425  0.51461  0.09967  1.0000
  H   H1448     1.0  0.93222  0.48093  0.09923  1.0000
  C   C899      1.0  0.66041  0.63760  0.02842  1.0000
  C   C900      1.0  0.67658  0.49489  0.03972  1.0000
  S   S358      1.0  0.79444  0.36950  0.09012  1.0000
  H   H1449     1.0  0.59980  0.48758  0.20521  1.0000
  N   N92       1.0  0.65051  0.51546  0.06080  1.0000
  C   C901      1.0  0.67221  0.54091  0.08170  1.0000
  H   H1450     1.0  0.69752  0.47877  0.05385  1.0000
  C   C902      1.0  0.53025  0.42742  0.05089  1.0000
  C   C903      1.0  0.90997  0.64242  0.21925  1.0000
  H   H1451     1.0  0.64462  0.42957  0.14308  1.0000
  H   H1452     1.0  0.86159  0.50559  0.15406  1.0000
  H   H1453     1.0  0.69483  0.49276  0.17044  1.0000
  H   H1454     1.0  0.72686  0.34611  0.21177  1.0000
  S   S359      1.0  0.70231  0.54131  0.24036  1.0000
  H   H1455     1.0  0.66129  0.47448  0.02430  1.0000
  S   S360      1.0  0.50575  0.41776  0.21752  1.0000
  S   S361      1.0  0.52488  0.66388  0.09198  1.0000
  H   H1456     1.0  0.72505  0.64874  0.08759  1.0000
  C   C904      1.0  0.94551  0.64217  0.20492  1.0000
  H   H1457     1.0  0.60433  0.34717  0.07476  1.0000
  Fe  Fe177     1.0  0.77175  0.65981  0.21077  1.0000
  S   S362      1.0  0.65233  0.38250  0.01121  1.0000
  H   H1458     1.0  0.96999  0.63487  0.21872  1.0000
  C   C905      1.0  0.66549  0.65777  0.09266  1.0000
  Fe  Fe178     1.0  0.99202  0.33645  0.15674  1.0000
  H   H1459     1.0  0.60139  0.64748  0.03362  1.0000
  H   H1460     1.0  0.60561  0.66420  0.09042  1.0000
  H   H1461     1.0  0.80269  0.46809  0.39763  1.0000
  Fe  Fe179     1.0  0.95760  0.62685  0.28604  1.0000
  Fe  Fe180     1.0  0.98036  0.33918  0.45770  1.0000
  S   S363      1.0  0.53896  0.35650  0.46704  1.0000
  H   H1462     1.0  0.64280  0.50002  0.33960  1.0000
  C   C906      1.0  0.55985  0.36182  0.29687  1.0000
  H   H1463     1.0  0.84561  0.52315  0.40267  1.0000
  H   H1464     1.0  0.52860  0.65081  0.46360  1.0000
  C   C907      1.0  0.96230  0.54093  0.46707  1.0000
  C   C908      1.0  0.96112  0.50559  0.45281  1.0000
  C   C909      1.0  0.96943  0.50155  0.42062  1.0000
  H   H1465     1.0  0.87997  0.52448  0.43392  1.0000
  H   H1466     1.0  0.84709  0.56931  0.27575  1.0000
  H   H1467     1.0  0.95446  0.48110  0.46684  1.0000
  H   H1468     1.0  0.57937  0.58393  0.40449  1.0000
  H   H1469     1.0  0.88809  0.43842  0.44072  1.0000
  H   H1470     1.0  0.88540  0.49167  0.40208  1.0000
  H   H1471     1.0  0.63480  0.54056  0.40578  1.0000
  Fe  Fe181     1.0  0.51759  0.41537  0.46349  1.0000
  Fe  Fe182     1.0  0.72927  0.33589  0.28582  1.0000
  S   S364      1.0  0.52136  0.41827  0.41027  1.0000
  C   C910      1.0  0.62519  0.34347  0.29883  1.0000
  H   H1472     1.0  0.81493  0.51825  0.34797  1.0000
  C   C911      1.0  0.90856  0.39617  0.27496  1.0000
  C   C912      1.0  0.94414  0.39652  0.28919  1.0000
  C   C913      1.0  0.94757  0.40392  0.32193  1.0000
  C   C914      1.0  0.91536  0.41126  0.34003  1.0000
  C   C915      1.0  0.88012  0.41077  0.32563  1.0000
  C   C916      1.0  0.87676  0.40314  0.29327  1.0000
  H   H1473     1.0  0.96879  0.39110  0.27501  1.0000
  S   S365      1.0  0.79814  0.45626  0.25823  1.0000
  H   H1474     1.0  0.85526  0.41580  0.33967  1.0000
  H   H1475     1.0  0.84940  0.40285  0.28233  1.0000
  S   S366      1.0  0.91785  0.42347  0.38017  1.0000
  C   C917      1.0  0.97952  0.56855  0.41635  1.0000
  S   S367      1.0  0.79063  0.34901  0.28340  1.0000
  H   H1476     1.0  0.59916  0.52326  0.34870  1.0000
  Fe  Fe183     1.0  0.53966  0.61944  0.28907  1.0000
  H   H1477     1.0  0.90324  0.48949  0.30824  1.0000
  S   S368      1.0  0.97808  0.33627  0.40446  1.0000
  H   H1478     1.0  0.89458  0.57497  0.31792  1.0000
  S   S369      1.0  0.54295  0.61955  0.34217  1.0000
  S   S370      1.0  0.95330  0.62722  0.33908  1.0000
  H   H1479     1.0  0.79431  0.51306  0.44152  1.0000
  H   H1480     1.0  0.97496  0.40475  0.33305  1.0000
  H   H1481     1.0  0.59646  0.60489  0.44067  1.0000
  H   H1482     1.0  0.82878  0.51692  0.47251  1.0000
  S   S371      1.0  0.77427  0.41236  0.33900  1.0000
  H   H1483     1.0  0.59216  0.50659  0.26227  1.0000
  C   C918      1.0  0.63157  0.53899  0.43204  1.0000
  H   H1484     1.0  0.60456  0.43970  0.27602  1.0000
  Fe  Fe184     1.0  0.71427  0.39410  0.33652  1.0000
  S   S372      1.0  0.66764  0.42173  0.36346  1.0000
  C   C919      1.0  0.66096  0.40691  0.47073  1.0000
  C   C920      1.0  0.69510  0.39971  0.45526  1.0000
  C   C921      1.0  0.69756  0.40336  0.42200  1.0000
  C   C922      1.0  0.66595  0.41463  0.40457  1.0000
  C   C923      1.0  0.63208  0.42170  0.42020  1.0000
  C   C924      1.0  0.62953  0.41762  0.45313  1.0000
  H   H1485     1.0  0.71944  0.39138  0.46886  1.0000
  H   H1486     1.0  0.72386  0.39813  0.40989  1.0000
  H   H1487     1.0  0.60747  0.42951  0.40669  1.0000
  H   H1488     1.0  0.60300  0.42247  0.46493  1.0000
  S   S373      1.0  0.71101  0.39598  0.28328  1.0000
  H   H1489     1.0  0.77982  0.64824  0.28578  1.0000
  H   H1490     1.0  0.59019  0.54126  0.29303  1.0000
  C   C925      1.0  0.58926  0.54292  0.47675  1.0000
  Fe  Fe185     1.0  0.77235  0.40904  0.28582  1.0000
  Fe  Fe186     1.0  0.70805  0.62767  0.46167  1.0000
  H   H1491     1.0  0.63413  0.51981  0.28316  1.0000
  C   C926      1.0  0.97846  0.53285  0.40230  1.0000
  Fe  Fe187     1.0  0.79229  0.62294  0.46169  1.0000
  S   S374      1.0  0.74756  0.57900  0.46505  1.0000
  S   S375      1.0  0.65440  0.63289  0.48829  1.0000
  H   H1492     1.0  0.88501  0.47290  0.47148  1.0000
  S   S376      1.0  0.79641  0.62193  0.40861  1.0000
  Fe  Fe188     1.0  0.53699  0.35746  0.41375  1.0000
  Fe  Fe189     1.0  0.78727  0.35098  0.33665  1.0000
  Fe  Fe190     1.0  0.96539  0.39769  0.40730  1.0000
  H   H1493     1.0  0.55941  0.54473  0.48464  1.0000
  S   S377      1.0  0.96222  0.39918  0.46051  1.0000
  Fe  Fe191     1.0  0.74800  0.58218  0.41188  1.0000
  H   H1494     1.0  0.60460  0.56653  0.48817  1.0000
  S   S378      1.0  0.74681  0.52833  0.38507  1.0000
  C   C927      1.0  0.73439  0.53346  0.34496  1.0000
  C   C928      1.0  0.73515  0.56854  0.32989  1.0000
  C   C929      1.0  0.72636  0.57142  0.29734  1.0000
  C   C930      1.0  0.71620  0.53919  0.28025  1.0000
  C   C931      1.0  0.71514  0.50442  0.29556  1.0000
  C   C932      1.0  0.72440  0.50156  0.32771  1.0000
  H   H1495     1.0  0.74269  0.59323  0.34327  1.0000
  H   H1496     1.0  0.72672  0.59848  0.28562  1.0000
  H   H1497     1.0  0.70776  0.47948  0.28236  1.0000
  H   H1498     1.0  0.72339  0.47457  0.33935  1.0000
  H   H1499     1.0  0.81426  0.53087  0.27644  1.0000
  H   H1500     1.0  0.79818  0.47648  0.47054  1.0000
  N   N93       1.0  0.84226  0.47724  0.43564  1.0000
  C   C933      1.0  0.86420  0.50540  0.41768  1.0000
  C   C934      1.0  0.82210  0.45215  0.41339  1.0000
  C   C935      1.0  0.86800  0.45475  0.45554  1.0000
  C   C936      1.0  0.81473  0.49678  0.45609  1.0000
  H   H1501     1.0  0.90112  0.52469  0.27771  1.0000
  H   H1502     1.0  0.80492  0.43098  0.42630  1.0000
  H   H1503     1.0  0.54305  0.46820  0.28993  1.0000
  N   N94       1.0  0.59204  0.54461  0.44178  1.0000
  H   H1504     1.0  0.60054  0.51593  0.48608  1.0000
  S   S379      1.0  0.59380  0.61552  0.26296  1.0000
  C   C937      1.0  0.84075  0.35523  0.46982  1.0000
  H   H1505     1.0  0.85357  0.48533  0.34823  1.0000
  H   H1506     1.0  0.51293  0.65527  0.40586  1.0000
  H   H1507     1.0  0.54047  0.50399  0.32001  1.0000
  C   C938      1.0  0.87075  0.33842  0.42025  1.0000
  C   C939      1.0  0.97173  0.57260  0.44897  1.0000
  H   H1508     1.0  0.96873  0.47405  0.40989  1.0000
  N   N95       1.0  0.59636  0.48445  0.30973  1.0000
  C   C940      1.0  0.61172  0.49628  0.34076  1.0000
  C   C941      1.0  0.55548  0.47795  0.31273  1.0000
  C   C942      1.0  0.61481  0.44925  0.29960  1.0000
  C   C943      1.0  0.60349  0.51423  0.28598  1.0000
  H   H1509     1.0  0.84191  0.43620  0.39799  1.0000
  H   H1510     1.0  0.65025  0.56070  0.44271  1.0000
  H   H1511     1.0  0.64218  0.51089  0.43959  1.0000
  H   H1512     1.0  0.54950  0.58712  0.43877  1.0000
  S   S380      1.0  0.54052  0.46279  0.49241  1.0000
  H   H1513     1.0  0.56690  0.51662  0.40155  1.0000
  H   H1514     1.0  0.85241  0.43408  0.47027  1.0000
  Fe  Fe192     1.0  0.99448  0.57995  0.33598  1.0000
  H   H1515     1.0  0.89913  0.53950  0.34809  1.0000
  H   H1516     1.0  0.81812  0.48278  0.31821  1.0000
  H   H1517     1.0  0.54922  0.45606  0.33095  1.0000
  S   S381      1.0  0.84594  0.62123  0.48868  1.0000
  S   S382      1.0  0.70370  0.62656  0.40867  1.0000
  H   H1518     1.0  0.81141  0.56700  0.30573  1.0000
  S   S383      1.0  0.98918  0.52622  0.36211  1.0000
  N   N96       1.0  0.85716  0.52829  0.31251  1.0000
  C   C944      1.0  0.83149  0.54979  0.29165  1.0000
  C   C945      1.0  0.87854  0.55464  0.33273  1.0000
  C   C946      1.0  0.83506  0.50261  0.33276  1.0000
  C   C947      1.0  0.88372  0.50617  0.29304  1.0000
  S   S384      1.0  0.90392  0.63016  0.25926  1.0000
  C   C948      1.0  0.56833  0.51474  0.42784  1.0000
  H   H1519     1.0  0.97230  0.60006  0.45999  1.0000
  H   H1520     1.0  0.85953  0.57120  0.34836  1.0000
  H   H1521     1.0  0.60938  0.42609  0.31682  1.0000
  H   H1522     1.0  0.53902  0.51627  0.43693  1.0000
  H   H1523     1.0  0.60621  0.47469  0.35934  1.0000
  C   C949      1.0  0.57881  0.58178  0.43082  1.0000
  H   H1524     1.0  0.57885  0.48628  0.43427  1.0000
  H   H1525     1.0  0.86862  0.48578  0.27757  1.0000
  H   H1526     1.0  0.64585  0.45252  0.29823  1.0000
  H   H1527     1.0  0.65186  0.33939  0.28715  1.0000
  C   C950      1.0  0.80341  0.34739  0.42187  1.0000
  C   C951      1.0  0.80573  0.35550  0.45458  1.0000
  H   H1528     1.0  0.98650  0.59284  0.40219  1.0000
  H   H1529     1.0  0.78063  0.36213  0.46786  1.0000
  H   H1530     1.0  0.76337  0.65388  0.34332  1.0000
  S   S385      1.0  0.99441  0.57622  0.28300  1.0000
  H   H1531     1.0  0.77648  0.34733  0.40992  1.0000
  H   H1532     1.0  0.90004  0.34672  0.46424  1.0000
  C   C952      1.0  0.87305  0.34678  0.45257  1.0000
  H   H1533     1.0  0.53001  0.35876  0.34168  1.0000
  C   C953      1.0  0.58770  0.34179  0.34682  1.0000
  C   C954      1.0  0.59439  0.35640  0.28156  1.0000
  H   H1534     1.0  0.86751  0.66215  0.43043  1.0000
  C   C955      1.0  0.55652  0.35466  0.32967  1.0000
  H   H1535     1.0  0.53608  0.37213  0.28358  1.0000
  C   C956      1.0  0.83610  0.33868  0.40481  1.0000
  C   C957      1.0  0.62183  0.33608  0.33128  1.0000
  H   H1536     1.0  0.64266  0.33526  0.43705  1.0000
  Fe  Fe193     1.0  0.75211  0.66639  0.41074  1.0000
  Fe  Fe194     1.0  0.50119  0.66625  0.33834  1.0000
  H   H1537     1.0  0.97156  0.51441  0.68795  1.0000
  C   C958      1.0  0.51718  0.46548  0.59878  1.0000
  S   S386      1.0  0.50691  0.46946  0.63934  1.0000
  H   H1538     1.0  0.87540  0.50794  0.65366  1.0000
  H   H1539     1.0  0.66465  0.54810  0.60805  1.0000
  S   S387      1.0  0.97551  0.58520  0.58910  1.0000
  H   H1540     1.0  0.84671  0.47288  0.52425  1.0000
  Fe  Fe195     1.0  0.54339  0.37025  0.71466  1.0000
  H   H1541     1.0  0.52908  0.52434  0.59464  1.0000
  H   H1542     1.0  0.89060  0.55922  0.72911  1.0000
  H   H1543     1.0  0.69810  0.42410  0.69986  1.0000
  Fe  Fe196     1.0  0.77339  0.66142  0.71282  1.0000
  S   S388      1.0  0.50334  0.41838  0.71804  1.0000
  C   C959      1.0  0.52083  0.42973  0.54956  1.0000
  C   C960      1.0  0.53054  0.46259  0.53314  1.0000
  C   C961      1.0  0.53354  0.49645  0.54959  1.0000
  C   C962      1.0  0.52683  0.49792  0.58221  1.0000
  H   H1544     1.0  0.65507  0.58183  0.57798  1.0000
  H   H1545     1.0  0.95736  0.54178  0.72193  1.0000
  H   H1546     1.0  0.54051  0.52181  0.53693  1.0000
  H   H1547     1.0  0.60706  0.54039  0.55456  1.0000
  Fe  Fe197     1.0  0.95893  0.37549  0.70685  1.0000
  H   H1548     1.0  0.68295  0.46914  0.55213  1.0000
  C   C963      1.0  0.68809  0.49283  0.56888  1.0000
  H   H1549     1.0  0.97623  0.64815  0.66116  1.0000
  S   S389      1.0  0.95558  0.37583  0.65370  1.0000
  H   H1550     1.0  0.84515  0.50803  0.55488  1.0000
  H   H1551     1.0  0.87925  0.51186  0.52384  1.0000
  S   S390      1.0  0.58498  0.57708  0.61661  1.0000
  H   H1552     1.0  0.88218  0.33819  0.67514  1.0000
  S   S391      1.0  0.71202  0.64798  0.71478  1.0000
  S   S392      1.0  0.59751  0.36878  0.74108  1.0000
  S   S393      1.0  0.70479  0.54092  0.74020  1.0000
  C   C964      1.0  0.59199  0.60869  0.72134  1.0000
  C   C965      1.0  0.55780  0.61306  0.70525  1.0000
  C   C966      1.0  0.55536  0.60416  0.67270  1.0000
  C   C967      1.0  0.58685  0.58990  0.65674  1.0000
  C   C968      1.0  0.62058  0.58495  0.67314  1.0000
  C   C969      1.0  0.62324  0.59483  0.70518  1.0000
  H   H1553     1.0  0.53362  0.62398  0.71767  1.0000
  C   C970      1.0  0.94945  0.65087  0.67311  1.0000
  H   H1554     1.0  0.64503  0.57433  0.66090  1.0000
  H   H1555     1.0  0.64965  0.59171  0.71749  1.0000
  H   H1556     1.0  0.52926  0.60805  0.65998  1.0000
  H   H1557     1.0  0.85027  0.45768  0.59477  1.0000
  C   C971      1.0  0.67586  0.53889  0.52832  1.0000
  H   H1558     1.0  0.69240  0.50609  0.68051  1.0000
  Fe  Fe198     1.0  0.79211  0.37336  0.53647  1.0000
  H   H1559     1.0  0.93381  0.46714  0.52216  1.0000
  Fe  Fe199     1.0  0.70937  0.38955  0.53751  1.0000
  S   S394      1.0  0.75969  0.42701  0.53576  1.0000
  H   H1560     1.0  0.89479  0.51244  0.59364  1.0000
  H   H1561     1.0  0.88959  0.42582  0.59399  1.0000
  S   S395      1.0  0.70564  0.38789  0.59058  1.0000
  H   H1562     1.0  0.92401  0.49468  0.64857  1.0000
  H   H1563     1.0  0.90996  0.54291  0.64402  1.0000
  S   S396      1.0  0.54167  0.60195  0.53553  1.0000
  S   S397      1.0  0.54730  0.37054  0.66159  1.0000
  Fe  Fe200     1.0  0.53879  0.60448  0.58875  1.0000
  Fe  Fe201     1.0  0.75926  0.42041  0.58859  1.0000
  Fe  Fe202     1.0  0.96545  0.64719  0.58744  1.0000
  S   S398      1.0  0.76943  0.47262  0.61600  1.0000
  C   C972      1.0  0.77746  0.46617  0.65665  1.0000
  C   C973      1.0  0.77479  0.43071  0.67100  1.0000
  C   C974      1.0  0.78073  0.42706  0.70394  1.0000
  C   C975      1.0  0.78963  0.45887  0.72207  1.0000
  C   C976      1.0  0.79204  0.49398  0.70758  1.0000
  C   C977      1.0  0.78586  0.49764  0.67502  1.0000
  H   H1564     1.0  0.76825  0.40629  0.65681  1.0000
  H   H1565     1.0  0.77914  0.39977  0.71520  1.0000
  H   H1566     1.0  0.79801  0.51856  0.72175  1.0000
  H   H1567     1.0  0.78747  0.52502  0.66409  1.0000
  S   S399      1.0  0.72903  0.58481  0.65918  1.0000
  C   C978      1.0  0.91142  0.64626  0.72100  1.0000
  H   H1568     1.0  0.90121  0.42841  0.52151  1.0000
  S   S400      1.0  0.65621  0.40197  0.51193  1.0000
  Fe  Fe203     1.0  0.78898  0.60345  0.66206  1.0000
  S   S401      1.0  0.83593  0.57827  0.63385  1.0000
  C   C979      1.0  0.84124  0.60877  0.52882  1.0000
  C   C980      1.0  0.80642  0.60946  0.54433  1.0000
  C   C981      1.0  0.80420  0.60083  0.57696  1.0000
  C   C982      1.0  0.83681  0.59088  0.59365  1.0000
  C   C983      1.0  0.87120  0.58983  0.57787  1.0000
  C   C984      1.0  0.87344  0.59899  0.54569  1.0000
  H   H1569     1.0  0.78149  0.61703  0.53128  1.0000
  H   H1570     1.0  0.77743  0.60134  0.58912  1.0000
  H   H1571     1.0  0.89631  0.58266  0.59083  1.0000
  H   H1572     1.0  0.90026  0.59840  0.53382  1.0000
  S   S402      1.0  0.79215  0.60149  0.71531  1.0000
  Fe  Fe204     1.0  0.74311  0.33779  0.58589  1.0000
  Fe  Fe205     1.0  0.71591  0.64626  0.66155  1.0000
  H   H1573     1.0  0.67117  0.51651  0.51027  1.0000
  Fe  Fe206     1.0  0.73078  0.58804  0.71246  1.0000
  S   S403      1.0  0.90513  0.37396  0.73373  1.0000
  N   N97       1.0  0.89125  0.46916  0.55847  1.0000
  C   C985      1.0  0.87027  0.44263  0.57881  1.0000
  C   C986      1.0  0.91684  0.44796  0.53735  1.0000
  C   C987      1.0  0.86438  0.49137  0.53938  1.0000
  C   C988      1.0  0.91341  0.49477  0.57866  1.0000
  H   H1574     1.0  0.95681  0.56221  0.68296  1.0000
  H   H1575     1.0  0.88936  0.57915  0.68992  1.0000
  C   C989      1.0  0.94627  0.64275  0.70576  1.0000
  H   H1576     1.0  0.51881  0.40339  0.53688  1.0000
  H   H1577     1.0  0.85613  0.54405  0.70050  1.0000
  Fe  Fe207     1.0  0.50321  0.41505  0.66496  1.0000
  H   H1578     1.0  0.65448  0.41427  0.65482  1.0000
  Fe  Fe208     1.0  0.97732  0.58924  0.53582  1.0000
  S   S404      1.0  0.94935  0.54430  0.50697  1.0000
  H   H1579     1.0  0.63709  0.34345  0.55471  1.0000
  H   H1580     1.0  0.65970  0.42457  0.72742  1.0000
  N   N98       1.0  0.65279  0.46112  0.68701  1.0000
  C   C990      1.0  0.67662  0.44249  0.71111  1.0000
  C   C991      1.0  0.62420  0.48473  0.70286  1.0000
  C   C992      1.0  0.63379  0.43223  0.66757  1.0000
  C   C993      1.0  0.67646  0.48496  0.66640  1.0000
  S   S405      1.0  0.96196  0.65009  0.53422  1.0000
  H   H1581     1.0  0.63755  0.50689  0.71774  1.0000
  H   H1582     1.0  0.93082  0.51426  0.56428  1.0000
  H   H1583     1.0  0.65912  0.56386  0.52134  1.0000
  S   S406      1.0  0.74179  0.33603  0.53273  1.0000
  H   H1584     1.0  0.60557  0.46755  0.71832  1.0000
  H   H1585     1.0  0.61649  0.41328  0.68272  1.0000
  H   H1586     1.0  0.69217  0.46335  0.72582  1.0000
  H   H1587     1.0  0.61475  0.44518  0.64963  1.0000
  H   H1588     1.0  0.69757  0.46798  0.65326  1.0000
  H   H1589     1.0  0.65917  0.50067  0.64890  1.0000
  H   H1590     1.0  0.92286  0.46445  0.69995  1.0000
  C   C994      1.0  0.69582  0.64377  0.54299  1.0000
  N   N99       1.0  0.91194  0.52325  0.69210  1.0000
  C   C995      1.0  0.90503  0.51677  0.65803  1.0000
  C   C996      1.0  0.95117  0.53590  0.69654  1.0000
  C   C997      1.0  0.88595  0.55259  0.70364  1.0000
  C   C998      1.0  0.90551  0.48781  0.70966  1.0000
  H   H1591     1.0  0.60601  0.49944  0.68523  1.0000
  C   C999      1.0  0.66741  0.66236  0.59314  1.0000
  H   H1592     1.0  0.85374  0.42257  0.56415  1.0000
  H   H1593     1.0  0.73149  0.34812  0.65418  1.0000
  H   H1594     1.0  0.61857  0.49266  0.54396  1.0000
  H   H1595     1.0  0.87554  0.47875  0.70828  1.0000
  H   H1596     1.0  0.97051  0.63339  0.71898  1.0000
  H   H1597     1.0  0.93314  0.47899  0.59411  1.0000
  H   H1598     1.0  0.70237  0.56529  0.58376  1.0000
  H   H1599     1.0  0.61585  0.50664  0.58494  1.0000
  H   H1600     1.0  0.91293  0.49065  0.73509  1.0000
  C   C1000     1.0  0.51431  0.43118  0.58258  1.0000
  H   H1601     1.0  0.70597  0.54728  0.52730  1.0000
  H   H1602     1.0  0.97633  0.35114  0.53140  1.0000
  S   S407      1.0  0.79666  0.37008  0.58939  1.0000
  H   H1603     1.0  0.99578  0.34617  0.58834  1.0000
  N   N100      1.0  0.66531  0.52602  0.56045  1.0000
  C   C1001     1.0  0.62503  0.51588  0.56089  1.0000
  C   C1002     1.0  0.67233  0.55656  0.58351  1.0000
  H   H1604     1.0  0.68150  0.48267  0.59319  1.0000
  H   H1605     1.0  0.93717  0.43080  0.55122  1.0000
  H   H1606     1.0  0.71914  0.35130  0.71258  1.0000
  Fe  Fe209     1.0  0.52488  0.66246  0.53761  1.0000
  C   C1003     1.0  0.66051  0.64527  0.52831  1.0000
  C   C1004     1.0  0.88015  0.65823  0.70383  1.0000
  H   H1607     1.0  0.71864  0.49951  0.56828  1.0000
  H   H1608     1.0  0.85317  0.66037  0.71538  1.0000
  H   H1609     1.0  0.50667  0.40609  0.59541  1.0000
  H   H1610     1.0  0.58221  0.34286  0.59092  1.0000
  H   H1611     1.0  0.72015  0.63584  0.52931  1.0000
  S   S408      1.0  0.84568  0.36647  0.51014  1.0000
  C   C1005     1.0  0.62908  0.65562  0.54596  1.0000
  C   C1006     1.0  0.63255  0.66447  0.57813  1.0000
  C   C1007     1.0  0.69929  0.65206  0.57561  1.0000
  H   H1612     1.0  0.72642  0.65084  0.58714  1.0000
  H   H1613     1.0  0.60188  0.65664  0.53476  1.0000
  C   C1008     1.0  0.91787  0.66318  0.65613  1.0000
  S   S409      1.0  0.52728  0.66621  0.59086  1.0000
  S   S410      1.0  0.77591  0.66480  0.65961  1.0000
  H   H1614     1.0  0.63539  0.52693  0.81381  1.0000
  Fe  Fe210     1.0  0.95940  0.62831  0.78712  1.0000
  H   H1615     1.0  0.77870  0.35997  0.96974  1.0000
  S   S411      1.0  0.53869  0.35236  0.96676  1.0000
  C   C1009     1.0  0.59179  0.35679  0.78121  1.0000
  C   C1010     1.0  0.97948  0.53353  0.90401  1.0000
  Fe  Fe211     1.0  0.99604  0.58125  0.83735  1.0000
  H   H1616     1.0  0.64681  0.53426  0.96926  1.0000
  C   C1011     1.0  0.96307  0.54036  0.96888  1.0000
  C   C1012     1.0  0.96015  0.50562  0.95379  1.0000
  C   C1013     1.0  0.96853  0.50217  0.92154  1.0000
  H   H1617     1.0  0.54939  0.52174  0.80538  1.0000
  H   H1618     1.0  0.59842  0.57790  0.90022  1.0000
  H   H1619     1.0  0.95224  0.48112  0.96732  1.0000
  H   H1620     1.0  0.63453  0.58436  0.92938  1.0000
  H   H1621     1.0  0.85121  0.56979  0.78107  1.0000
  C   C1014     1.0  0.55349  0.35145  0.82889  1.0000
  H   H1622     1.0  0.85481  0.43205  0.97115  1.0000
  C   C1015     1.0  0.87101  0.34683  0.95305  1.0000
  H   H1623     1.0  0.63816  0.44108  0.80550  1.0000
  S   S412      1.0  0.52604  0.41633  0.91082  1.0000
  Fe  Fe212     1.0  0.97646  0.34033  0.95592  1.0000
  H   H1624     1.0  0.58435  0.52361  0.77458  1.0000
  S   S413      1.0  0.59705  0.62141  0.76136  1.0000
  C   C1016     1.0  0.90974  0.38833  0.77340  1.0000
  C   C1017     1.0  0.94477  0.38950  0.78846  1.0000
  C   C1018     1.0  0.94731  0.39990  0.82068  1.0000
  C   C1019     1.0  0.91475  0.40977  0.83743  1.0000
  C   C1020     1.0  0.87999  0.40883  0.82213  1.0000
  C   C1021     1.0  0.87753  0.39791  0.79031  1.0000
  H   H1625     1.0  0.96964  0.38212  0.77532  1.0000
  S   S414      1.0  0.65557  0.62386  0.98866  1.0000
  H   H1626     1.0  0.85481  0.41610  0.83501  1.0000
  H   H1627     1.0  0.85062  0.39734  0.77860  1.0000
  S   S415      1.0  0.91658  0.42542  0.87686  1.0000
  H   H1628     1.0  0.84182  0.52320  0.90641  1.0000
  H   H1629     1.0  0.55452  0.43819  0.81929  1.0000
  Fe  Fe213     1.0  0.54309  0.62591  0.78759  1.0000
  H   H1630     1.0  0.90551  0.48898  0.81395  1.0000
  C   C1022     1.0  0.55696  0.36026  0.79640  1.0000
  H   H1631     1.0  0.89823  0.34805  0.96424  1.0000
  S   S416      1.0  0.54670  0.62366  0.84064  1.0000
  S   S417      1.0  0.95636  0.62983  0.84019  1.0000
  H   H1632     1.0  0.53266  0.65024  0.96362  1.0000
  H   H1633     1.0  0.97435  0.40101  0.83238  1.0000
  H   H1634     1.0  0.55379  0.47498  0.84835  1.0000
  S   S418      1.0  0.78864  0.34876  0.78555  1.0000
  S   S419      1.0  0.77383  0.41118  0.84216  1.0000
  H   H1635     1.0  0.90047  0.53813  0.85426  1.0000
  C   C1023     1.0  0.97430  0.57205  0.95155  1.0000
  C   C1024     1.0  0.63014  0.51459  0.95432  1.0000
  Fe  Fe214     1.0  0.71328  0.39505  0.83879  1.0000
  S   S420      1.0  0.66742  0.42329  0.86622  1.0000
  C   C1025     1.0  0.65833  0.39457  0.97122  1.0000
  C   C1026     1.0  0.69351  0.39232  0.95638  1.0000
  C   C1027     1.0  0.69692  0.40067  0.92379  1.0000
  C   C1028     1.0  0.66516  0.41189  0.90653  1.0000
  C   C1029     1.0  0.63047  0.41472  0.92168  1.0000
  C   C1030     1.0  0.62699  0.40574  0.95380  1.0000
  H   H1636     1.0  0.71781  0.38375  0.96987  1.0000
  H   H1637     1.0  0.72393  0.39880  0.91210  1.0000
  H   H1638     1.0  0.60597  0.42279  0.90824  1.0000
  H   H1639     1.0  0.59987  0.40727  0.96514  1.0000
  S   S421      1.0  0.71051  0.39812  0.78560  1.0000
  C   C1031     1.0  0.61941  0.56280  0.91510  1.0000
  S   S422      1.0  0.97479  0.33749  0.90268  1.0000
  H   H1640     1.0  0.59880  0.49152  0.90044  1.0000
  Fe  Fe215     1.0  0.77220  0.40918  0.78893  1.0000
  H   H1641     1.0  0.59020  0.57456  0.97354  1.0000
  Fe  Fe216     1.0  0.70950  0.62361  0.96209  1.0000
  H   H1642     1.0  0.88337  0.49393  0.90461  1.0000
  Fe  Fe217     1.0  0.79397  0.62171  0.96117  1.0000
  S   S423      1.0  0.75065  0.57639  0.96438  1.0000
  S   S424      1.0  0.99411  0.57625  0.78443  1.0000
  H   H1643     1.0  0.81816  0.53153  0.78035  1.0000
  S   S425      1.0  0.79737  0.62173  0.90808  1.0000
  Fe  Fe218     1.0  0.53607  0.35433  0.91346  1.0000
  Fe  Fe219     1.0  0.78488  0.34946  0.83874  1.0000
  Fe  Fe220     1.0  0.96287  0.39913  0.90546  1.0000
  H   H1644     1.0  0.96647  0.47509  0.91017  1.0000
  S   S426      1.0  0.95913  0.40058  0.95873  1.0000
  Fe  Fe221     1.0  0.75008  0.58063  0.91137  1.0000
  H   H1645     1.0  0.77340  0.34311  0.91231  1.0000
  S   S427      1.0  0.74812  0.52664  0.88496  1.0000
  C   C1032     1.0  0.73554  0.53219  0.84497  1.0000
  C   C1033     1.0  0.73756  0.56721  0.82990  1.0000
  C   C1034     1.0  0.72887  0.57038  0.79736  1.0000
  C   C1035     1.0  0.71750  0.53854  0.78032  1.0000
  C   C1036     1.0  0.71491  0.50391  0.79569  1.0000
  C   C1037     1.0  0.72418  0.50070  0.82781  1.0000
  H   H1646     1.0  0.74628  0.59159  0.84320  1.0000
  H   H1647     1.0  0.73043  0.59734  0.78556  1.0000
  H   H1648     1.0  0.70654  0.47929  0.78254  1.0000
  H   H1649     1.0  0.72238  0.47373  0.83940  1.0000
  C   C1038     1.0  0.98221  0.56866  0.91889  1.0000
  H   H1650     1.0  0.87650  0.52526  0.93734  1.0000
  H   H1651     1.0  0.60215  0.43901  0.77607  1.0000
  N   N101      1.0  0.84153  0.47594  0.93806  1.0000
  C   C1039     1.0  0.81313  0.49299  0.95922  1.0000
  C   C1040     1.0  0.86885  0.45436  0.95710  1.0000
  C   C1041     1.0  0.82257  0.45049  0.91534  1.0000
  C   C1042     1.0  0.86160  0.50594  0.92071  1.0000
  H   H1652     1.0  0.88456  0.47280  0.97377  1.0000
  H   H1653     1.0  0.63685  0.47601  0.77490  1.0000
  H   H1654     1.0  0.64032  0.54934  0.89901  1.0000
  H   H1655     1.0  0.89744  0.57414  0.82447  1.0000
  H   H1656     1.0  0.77780  0.65014  0.78642  1.0000
  H   H1657     1.0  0.99065  0.59297  0.90534  1.0000
  H   H1658     1.0  0.85442  0.48393  0.85211  1.0000
  H   H1659     1.0  0.55339  0.57048  0.94468  1.0000
  H   H1660     1.0  0.65009  0.49949  0.93837  1.0000
  H   H1661     1.0  0.56472  0.48707  0.93152  1.0000
  H   H1662     1.0  0.80676  0.42796  0.92786  1.0000
  C   C1043     1.0  0.57511  0.55435  0.95788  1.0000
  H   H1663     1.0  0.79122  0.50790  0.94517  1.0000
  N   N102      1.0  0.59462  0.48240  0.81100  1.0000
  C   C1044     1.0  0.56871  0.50427  0.79071  1.0000
  C   C1045     1.0  0.57260  0.45818  0.83269  1.0000
  C   C1046     1.0  0.61822  0.50855  0.82962  1.0000
  C   C1047     1.0  0.61897  0.45868  0.79085  1.0000
  H   H1664     1.0  0.88985  0.44022  0.94155  1.0000
  H   H1665     1.0  0.59122  0.44088  0.84815  1.0000
  S   S428      1.0  0.79998  0.45604  0.76253  1.0000
  Fe  Fe222     1.0  0.72693  0.33754  0.78729  1.0000
  C   C1048     1.0  0.80356  0.35356  0.95614  1.0000
  H   H1666     1.0  0.86126  0.57031  0.85397  1.0000
  H   H1667     1.0  0.55837  0.52202  0.90159  1.0000
  S   S429      1.0  0.54950  0.45892  0.99316  1.0000
  H   H1668     1.0  0.55986  0.53418  0.97344  1.0000
  C   C1049     1.0  0.57989  0.50773  0.91639  1.0000
  H   H1669     1.0  0.80215  0.46583  0.90008  1.0000
  H   H1670     1.0  0.55097  0.48548  0.77581  1.0000
  S   S430      1.0  0.70472  0.62394  0.90912  1.0000
  H   H1671     1.0  0.61727  0.49301  0.97008  1.0000
  N   N103      1.0  0.85961  0.52802  0.81754  1.0000
  C   C1050     1.0  0.83659  0.50221  0.83690  1.0000
  C   C1051     1.0  0.88059  0.55378  0.83860  1.0000
  C   C1052     1.0  0.88652  0.50594  0.79847  1.0000
  C   C1053     1.0  0.83489  0.55009  0.79630  1.0000
  H   H1672     1.0  0.81661  0.51784  0.85219  1.0000
  H   H1673     1.0  0.60075  0.52707  0.84489  1.0000
  H   H1674     1.0  0.81938  0.48328  0.82176  1.0000
  H   H1675     1.0  0.52665  0.35396  0.84073  1.0000
  H   H1676     1.0  0.79851  0.47125  0.97367  1.0000
  H   H1677     1.0  0.63830  0.49305  0.84510  1.0000
  H   H1678     1.0  0.90449  0.52458  0.78374  1.0000
  C   C1054     1.0  0.80062  0.34427  0.92371  1.0000
  H   H1679     1.0  0.84303  0.43616  0.89945  1.0000
  H   H1680     1.0  0.81440  0.56717  0.81006  1.0000
  S   S431      1.0  0.90554  0.63431  0.76108  1.0000
  N   N104      1.0  0.60112  0.53486  0.93595  1.0000
  Fe  Fe223     1.0  0.52324  0.41317  0.96408  1.0000
  H   H1681     1.0  0.97625  0.59908  0.96321  1.0000
  H   H1682     1.0  0.82604  0.51383  0.97569  1.0000
  H   H1683     1.0  0.87160  0.48583  0.78258  1.0000
  S   S432      1.0  0.84798  0.62095  0.98761  1.0000
  H   H1684     1.0  0.53298  0.37010  0.78317  1.0000
  H   H1685     1.0  0.51748  0.65710  0.90599  1.0000
  C   C1055     1.0  0.86811  0.33694  0.92105  1.0000
  C   C1056     1.0  0.83892  0.35493  0.97071  1.0000
  S   S433      1.0  0.99029  0.52762  0.86373  1.0000
  C   C1057     1.0  0.58481  0.33850  0.84581  1.0000
  C   C1058     1.0  0.83307  0.33571  0.90628  1.0000
  H   H1686     1.0  0.76059  0.65443  0.84387  1.0000
  H   H1687     1.0  0.64975  0.34167  0.78673  1.0000
  Fe  Fe224     1.0  0.75200  0.66503  0.91158  1.0000
  C   C1059     1.0  0.62286  0.34420  0.79832  1.0000
  C   C1060     1.0  0.61928  0.33465  0.83036  1.0000
  H   H1688     1.0  0.86660  0.66488  0.92784  1.0000
  C   C1061     1.0  0.86974  0.75968  0.07535  1.0000
  H   H1689     1.0  0.89609  0.69436  0.05286  1.0000
  H   H1690     1.0  0.88392  0.98069  0.18655  1.0000
  H   H1691     1.0  0.84696  0.74403  0.14459  1.0000
  H   H1692     1.0  0.63170  0.94777  0.14394  1.0000
  C   C1062     1.0  0.56295  0.74075  0.21189  1.0000
  H   H1693     1.0  0.60933  0.73139  0.10246  1.0000
  H   H1694     1.0  0.93780  0.93404  0.05472  1.0000
  H   H1695     1.0  0.97711  0.72415  0.08635  1.0000
  H   H1696     1.0  0.80233  0.79373  0.21156  1.0000
  H   H1697     1.0  0.66568  0.98427  0.10081  1.0000
  H   H1698     1.0  0.85694  0.81411  0.13704  1.0000
  H   H1699     1.0  0.93517  0.99368  0.22454  1.0000
  Fe  Fe225     1.0  0.54306  0.87598  0.21741  1.0000
  H   H1700     1.0  0.88997  0.74581  0.09181  1.0000
  H   H1701     1.0  0.65786  0.77135  0.03241  1.0000
  S   S434      1.0  0.54695  0.87728  0.16437  1.0000
  H   H1702     1.0  0.85387  0.93034  0.06829  1.0000
  C   C1063     1.0  0.51037  0.96633  0.10184  1.0000
  H   H1703     1.0  0.65917  0.73518  0.06216  1.0000
  C   C1064     1.0  0.51946  0.92962  0.05375  1.0000
  C   C1065     1.0  0.53255  0.96167  0.03799  1.0000
  H   H1704     1.0  0.85465  0.84444  0.17105  1.0000
  S   S435      1.0  0.90461  0.87101  0.23575  1.0000
  H   H1705     1.0  0.84661  0.69038  0.09363  1.0000
  H   H1706     1.0  0.88643  0.77895  0.05991  1.0000
  H   H1707     1.0  0.80339  0.75380  0.16470  1.0000
  H   H1708     1.0  0.85017  0.77720  0.08959  1.0000
  Fe  Fe226     1.0  0.95877  0.87125  0.20957  1.0000
  H   H1709     1.0  0.57420  0.73031  0.07201  1.0000
  H   H1710     1.0  0.96856  0.99568  0.19260  1.0000
  S   S436      1.0  0.84795  0.86400  0.00747  1.0000
  S   S437      1.0  0.95614  0.87331  0.15646  1.0000
  H   H1711     1.0  0.90571  0.77548  0.16184  1.0000
  C   C1066     1.0  0.79721  0.99296  0.20260  1.0000
  H   H1712     1.0  0.59262  0.68363  0.15222  1.0000
  C   C1067     1.0  0.97652  0.82134  0.04498  1.0000
  C   C1068     1.0  0.96655  0.78902  0.02797  1.0000
  C   C1069     1.0  0.96666  0.75418  0.04306  1.0000
  C   C1070     1.0  0.97715  0.75122  0.07489  1.0000
  H   H1713     1.0  0.80720  0.72199  0.09249  1.0000
  C   C1071     1.0  0.52341  0.99815  0.08598  1.0000
  H   H1714     1.0  0.95964  0.72924  0.02980  1.0000
  H   H1715     1.0  0.85256  0.96624  0.09828  1.0000
  Fe  Fe227     1.0  0.79502  0.86949  0.03502  1.0000
  S   S438      1.0  0.74808  0.82778  0.03408  1.0000
  H   H1716     1.0  0.54831  0.71897  0.22628  1.0000
  Fe  Fe228     1.0  0.71116  0.87824  0.03817  1.0000
  S   S439      1.0  0.75779  0.92003  0.03349  1.0000
  C   C1072     1.0  0.98776  0.78306  0.09190  1.0000
  Fe  Fe229     1.0  0.75123  0.83205  0.08702  1.0000
  S   S440      1.0  0.70978  0.87900  0.09134  1.0000
  S   S441      1.0  0.74841  0.77847  0.11394  1.0000
  C   C1073     1.0  0.73258  0.78448  0.15303  1.0000
  C   C1074     1.0  0.73340  0.81974  0.16781  1.0000
  C   C1075     1.0  0.72293  0.82319  0.19990  1.0000
  C   C1076     1.0  0.71073  0.79150  0.21672  1.0000
  C   C1077     1.0  0.70946  0.75658  0.20168  1.0000
  C   C1078     1.0  0.72060  0.75306  0.17001  1.0000
  H   H1717     1.0  0.74275  0.84405  0.15472  1.0000
  H   H1718     1.0  0.72396  0.85020  0.21161  1.0000
  H   H1719     1.0  0.70091  0.73196  0.21481  1.0000
  H   H1720     1.0  0.72014  0.72584  0.15872  1.0000
  Fe  Fe230     1.0  0.76015  0.91598  0.08650  1.0000
  S   S442      1.0  0.80179  0.86905  0.08784  1.0000
  S   S443      1.0  0.76784  0.96962  0.11261  1.0000
  C   C1079     1.0  0.77892  0.96410  0.15290  1.0000
  C   C1080     1.0  0.77483  0.92949  0.16839  1.0000
  C   C1081     1.0  0.78118  0.92691  0.20136  1.0000
  C   C1082     1.0  0.79223  0.95889  0.21844  1.0000
  H   H1721     1.0  0.57597  0.76146  0.22839  1.0000
  C   C1083     1.0  0.53469  0.99579  0.05422  1.0000
  H   H1722     1.0  0.76611  0.90508  0.15511  1.0000
  H   H1723     1.0  0.77771  0.90038  0.21355  1.0000
  H   H1724     1.0  0.93728  0.98344  0.09626  1.0000
  H   H1725     1.0  0.60475  0.68012  0.22388  1.0000
  H   H1726     1.0  0.63812  0.99794  0.22173  1.0000
  C   C1084     1.0  0.82763  0.70630  0.07748  1.0000
  H   H1727     1.0  0.69969  0.91691  0.20556  1.0000
  S   S444      1.0  0.79776  0.70610  0.23906  1.0000
  H   H1728     1.0  0.89259  0.72786  0.02119  1.0000
  H   H1729     1.0  0.62425  0.73335  0.03161  1.0000
  S   S445      1.0  0.50386  0.82700  0.21956  1.0000
  S   S446      1.0  0.65625  0.88183  0.01334  1.0000
  N   N105      1.0  0.84897  0.73170  0.05627  1.0000
  H   H1730     1.0  0.62675  0.94987  0.23144  1.0000
  C   C1085     1.0  0.87591  0.70956  0.03730  1.0000
  H   H1731     1.0  0.83763  0.77189  0.01926  1.0000
  S   S447      1.0  0.59672  0.87764  0.24439  1.0000
  H   H1732     1.0  0.71321  0.98330  0.19158  1.0000
  H   H1733     1.0  0.63289  0.74177  0.15702  1.0000
  H   H1734     1.0  0.61805  0.81659  0.10447  1.0000
  N   N106      1.0  0.89383  0.97472  0.06160  1.0000
  C   C1086     1.0  0.89833  0.99960  0.16931  1.0000
  H   H1735     1.0  0.90132  0.93245  0.02541  1.0000
  H   H1736     1.0  0.80731  0.73123  0.01932  1.0000
  H   H1737     1.0  0.55614  0.67598  0.18059  1.0000
  H   H1738     1.0  0.86140  0.68800  0.02273  1.0000
  S   S448      1.0  0.66727  0.67292  0.13216  1.0000
  C   C1087     1.0  0.79019  0.99562  0.17006  1.0000
  H   H1739     1.0  0.59113  0.77068  0.15859  1.0000
  H   H1740     1.0  0.57146  0.76506  0.10236  1.0000
  C   C1088     1.0  0.82265  0.75139  0.03482  1.0000
  N   N107      1.0  0.61427  0.77510  0.06752  1.0000
  C   C1089     1.0  0.58921  0.79815  0.04734  1.0000
  C   C1090     1.0  0.59140  0.74936  0.08708  1.0000
  C   C1091     1.0  0.64005  0.75285  0.04742  1.0000
  C   C1092     1.0  0.63652  0.79994  0.08844  1.0000
  H   H1741     1.0  0.84081  0.77040  0.23034  1.0000
  H   H1742     1.0  0.57154  0.78034  0.03153  1.0000
  H   H1743     1.0  0.60533  0.81799  0.03210  1.0000
  H   H1744     1.0  0.80130  0.76731  0.04866  1.0000
  H   H1745     1.0  0.66638  0.96213  0.04537  1.0000
  H   H1746     1.0  0.67345  0.96717  0.23745  1.0000
  H   H1747     1.0  0.60274  0.93955  0.17807  1.0000
  C   C1093     1.0  0.91809  0.95172  0.04069  1.0000
  H   H1748     1.0  0.55199  0.71355  0.15254  1.0000
  H   H1749     1.0  0.65385  0.89780  0.19882  1.0000
  S   S449      1.0  0.55242  0.70664  0.01100  1.0000
  N   N108      1.0  0.59123  0.72373  0.19060  1.0000
  C   C1094     1.0  0.61871  0.70227  0.20959  1.0000
  S   S450      1.0  0.99978  0.82393  0.21177  1.0000
  C   C1095     1.0  0.61106  0.75374  0.17305  1.0000
  C   C1096     1.0  0.57220  0.69821  0.16798  1.0000
  C   C1097     1.0  0.98690  0.81833  0.07716  1.0000
  H   H1750     1.0  0.63955  0.68790  0.19409  1.0000
  H   H1751     1.0  0.62576  0.77335  0.18956  1.0000
  S   S451      1.0  0.92045  0.67546  0.11517  1.0000
  H   H1752     1.0  0.63464  0.72087  0.22597  1.0000
  H   H1753     1.0  0.90522  0.80510  0.19642  1.0000
  C   C1098     1.0  0.67474  0.91841  0.18964  1.0000
  H   H1754     1.0  0.54103  0.75582  0.19801  1.0000
  H   H1755     1.0  0.65341  0.82019  0.07423  1.0000
  C   C1099     1.0  0.64873  0.96848  0.22130  1.0000
  N   N109      1.0  0.85080  0.78552  0.18170  1.0000
  C   C1100     1.0  0.83426  0.75108  0.16794  1.0000
  C   C1101     1.0  0.89180  0.78018  0.18525  1.0000
  C   C1102     1.0  0.83360  0.79282  0.21308  1.0000
  C   C1103     1.0  0.84347  0.81789  0.16061  1.0000
  H   H1756     1.0  0.89019  0.93234  0.09784  1.0000
  H   H1757     1.0  0.83867  0.72652  0.18383  1.0000
  C   C1104     1.0  0.87165  0.94980  0.08250  1.0000
  H   H1758     1.0  0.89820  0.75517  0.20014  1.0000
  H   H1759     1.0  0.61366  0.98684  0.16647  1.0000
  H   H1760     1.0  0.61990  0.98014  0.03921  1.0000
  C   C1105     1.0  0.65031  0.98777  0.03863  1.0000
  H   H1761     1.0  0.50181  0.84408  0.09761  1.0000
  C   C1106     1.0  0.86797  0.99767  0.04214  1.0000
  H   H1762     1.0  0.65758  0.99443  0.01361  1.0000
  H   H1763     1.0  0.81280  0.82183  0.15670  1.0000
  N   N110      1.0  0.65911  0.95689  0.18880  1.0000
  H   H1764     1.0  0.68382  0.90893  0.16567  1.0000
  H   H1765     1.0  0.51832  0.90313  0.04126  1.0000
  C   C1107     1.0  0.62536  0.95783  0.16835  1.0000
  H   H1766     1.0  0.84309  0.82007  0.22327  1.0000
  C   C1108     1.0  0.50854  0.93193  0.08583  1.0000
  H   H1767     1.0  0.65646  0.78353  0.10348  1.0000
  H   H1768     1.0  0.56949  0.81523  0.06193  1.0000
  H   H1769     1.0  0.69699  0.97502  0.15197  1.0000
  H   H1770     1.0  0.91731  0.98196  0.15453  1.0000
  C   C1109     1.0  0.68773  0.98301  0.17622  1.0000
  H   H1771     1.0  0.81149  0.68506  0.06370  1.0000
  H   H1772     1.0  0.93569  0.96963  0.02487  1.0000
  H   H1773     1.0  0.84966  0.97972  0.02711  1.0000
  H   H1774     1.0  0.97592  0.84845  0.03339  1.0000
  Fe  Fe231     1.0  0.50335  0.83225  0.16660  1.0000
  S   S452      1.0  0.50660  0.77918  0.13885  1.0000
  H   H1775     1.0  0.99493  0.84299  0.09037  1.0000
  H   H1776     1.0  0.85740  0.66813  0.15550  1.0000
  C   C1110     1.0  0.91746  0.99972  0.08124  1.0000
  S   S453      1.0  0.75282  0.67158  0.46371  1.0000
  N   N111      1.0  0.90021  0.76005  0.30401  1.0000
  H   H1777     1.0  0.86487  0.69627  0.39903  1.0000
  C   C1111     1.0  0.59103  0.86331  0.28389  1.0000
  C   C1112     1.0  0.55608  0.86565  0.29900  1.0000
  C   C1113     1.0  0.55266  0.85582  0.33126  1.0000
  C   C1114     1.0  0.58423  0.84329  0.34800  1.0000
  C   C1115     1.0  0.61874  0.84027  0.33259  1.0000
  C   C1116     1.0  0.62219  0.85042  0.30069  1.0000
  H   H1778     1.0  0.53210  0.87581  0.28597  1.0000
  Fe  Fe232     1.0  0.95835  0.89285  0.41019  1.0000
  H   H1779     1.0  0.64307  0.83110  0.34569  1.0000
  H   H1780     1.0  0.64907  0.84828  0.28904  1.0000
  H   H1781     1.0  0.61605  0.72425  0.43601  1.0000
  H   H1782     1.0  0.64966  0.72604  0.40423  1.0000
  H   H1783     1.0  0.69571  0.81399  0.43125  1.0000
  H   H1784     1.0  0.53376  0.97572  0.29159  1.0000
  H   H1785     1.0  0.76859  0.77366  0.33587  1.0000
  H   H1786     1.0  0.94492  0.72226  0.40330  1.0000
  H   H1787     1.0  0.61481  0.77365  0.47642  1.0000
  N   N112      1.0  0.82369  0.96286  0.42998  1.0000
  H   H1788     1.0  0.84516  0.92885  0.46824  1.0000
  H   H1789     1.0  0.68475  0.73197  0.34842  1.0000
  H   H1790     1.0  0.60032  0.91214  0.46462  1.0000
  H   H1791     1.0  0.89974  0.72061  0.34263  1.0000
  C   C1117     1.0  0.90862  0.88387  0.27581  1.0000
  C   C1118     1.0  0.94238  0.87985  0.29260  1.0000
  C   C1119     1.0  0.94392  0.88910  0.32514  1.0000
  C   C1120     1.0  0.91181  0.90296  0.34045  1.0000
  C   C1121     1.0  0.87838  0.90672  0.32347  1.0000
  C   C1122     1.0  0.87674  0.89700  0.29139  1.0000
  H   H1792     1.0  0.96690  0.86919  0.28061  1.0000
  S   S454      1.0  0.53869  0.85467  0.46878  1.0000
  H   H1793     1.0  0.88432  0.76739  0.35260  1.0000
  Fe  Fe233     1.0  0.97407  0.83726  0.46290  1.0000
  H   H1794     1.0  0.88062  0.81663  0.31089  1.0000
  S   S455      1.0  0.97159  0.83142  0.40977  1.0000
  S   S456      1.0  0.77287  0.91292  0.33879  1.0000
  Fe  Fe234     1.0  0.78249  0.85098  0.33511  1.0000
  S   S457      1.0  0.82774  0.82084  0.36174  1.0000
  C   C1123     1.0  0.83713  0.84553  0.46749  1.0000
  C   C1124     1.0  0.80172  0.84690  0.45299  1.0000
  C   C1125     1.0  0.79825  0.83957  0.42024  1.0000
  C   C1126     1.0  0.83021  0.83045  0.40239  1.0000
  C   C1127     1.0  0.86521  0.82837  0.41717  1.0000
  C   C1128     1.0  0.86870  0.83612  0.44954  1.0000
  H   H1795     1.0  0.77728  0.85413  0.46686  1.0000
  H   H1796     1.0  0.77104  0.84069  0.40883  1.0000
  H   H1797     1.0  0.88991  0.82212  0.40323  1.0000
  H   H1798     1.0  0.89610  0.83564  0.46053  1.0000
  S   S458      1.0  0.78584  0.85016  0.28192  1.0000
  Fe  Fe235     1.0  0.71189  0.89818  0.33583  1.0000
  S   S459      1.0  0.66668  0.92612  0.36439  1.0000
  C   C1129     1.0  0.65782  0.89445  0.46899  1.0000
  C   C1130     1.0  0.69214  0.88963  0.45318  1.0000
  C   C1131     1.0  0.69506  0.89828  0.42063  1.0000
  C   C1132     1.0  0.66392  0.91273  0.40436  1.0000
  C   C1133     1.0  0.62998  0.91791  0.42039  1.0000
  C   C1134     1.0  0.62684  0.90848  0.45251  1.0000
  H   H1799     1.0  0.71606  0.87865  0.46589  1.0000
  H   H1800     1.0  0.72127  0.89412  0.40815  1.0000
  S   S460      1.0  0.70888  0.90138  0.28260  1.0000
  Fe  Fe236     1.0  0.72381  0.84031  0.28424  1.0000
  H   H1801     1.0  0.71343  0.98076  0.28323  1.0000
  S   S461      1.0  0.72159  0.83619  0.33741  1.0000
  Fe  Fe237     1.0  0.77096  0.91109  0.28553  1.0000
  H   H1802     1.0  0.85420  0.71315  0.46905  1.0000
  H   H1803     1.0  0.69487  0.77893  0.40076  1.0000
  C   C1135     1.0  0.66816  0.69924  0.29262  1.0000
  H   H1804     1.0  0.78722  0.91810  0.41529  1.0000
  C   C1136     1.0  0.87850  0.79314  0.29347  1.0000
  S   S462      1.0  0.80016  0.95764  0.25947  1.0000
  C   C1137     1.0  0.93969  0.77129  0.30950  1.0000
  H   H1805     1.0  0.94703  0.98285  0.46228  1.0000
  S   S463      1.0  0.95527  0.89738  0.46339  1.0000
  H   H1806     1.0  0.65312  0.67851  0.27742  1.0000
  H   H1807     1.0  0.96979  0.88599  0.33831  1.0000
  H   H1808     1.0  0.85067  0.89988  0.27853  1.0000
  H   H1809     1.0  0.86744  0.98571  0.29435  1.0000
  H   H1810     1.0  0.65760  0.81296  0.40363  1.0000
  H   H1811     1.0  0.88402  0.75423  0.47001  1.0000
  H   H1812     1.0  0.52929  0.77456  0.40950  1.0000
  C   C1138     1.0  0.62261  0.69238  0.33473  1.0000
  C   C1139     1.0  0.76456  0.71426  0.34323  1.0000
  S   S464      1.0  0.52107  0.91842  0.41376  1.0000
  H   H1813     1.0  0.58501  0.93105  0.33671  1.0000
  N   N113      1.0  0.64208  0.71960  0.31392  1.0000
  C   C1140     1.0  0.52883  0.67771  0.45166  1.0000
  C   C1141     1.0  0.52959  0.74747  0.42105  1.0000
  H   H1814     1.0  0.85399  0.73711  0.33054  1.0000
  H   H1815     1.0  0.72579  0.97833  0.34087  1.0000
  H   H1816     1.0  0.60573  0.92829  0.40776  1.0000
  C   C1142     1.0  0.77979  0.74333  0.29287  1.0000
  H   H1817     1.0  0.68369  0.71887  0.27674  1.0000
  C   C1143     1.0  0.85230  0.93744  0.44360  1.0000
  C   C1144     1.0  0.78666  0.94403  0.43007  1.0000
  H   H1818     1.0  0.85492  0.91128  0.42924  1.0000
  H   H1819     1.0  0.56931  0.94297  0.27958  1.0000
  H   H1820     1.0  0.86910  0.72145  0.27465  1.0000
  H   H1821     1.0  0.57657  0.98370  0.43414  1.0000
  N   N114      1.0  0.58785  0.98453  0.31298  1.0000
  H   H1822     1.0  0.66809  0.72691  0.47409  1.0000
  N   N115      1.0  0.65595  0.76947  0.43921  1.0000
  C   C1145     1.0  0.63230  0.74362  0.42037  1.0000
  C   C1146     1.0  0.63183  0.79193  0.46055  1.0000
  C   C1147     1.0  0.68283  0.74731  0.45829  1.0000
  C   C1148     1.0  0.67691  0.79485  0.41773  1.0000
  Fe  Fe238     1.0  0.51896  0.91430  0.46705  1.0000
  H   H1823     1.0  0.83135  0.98548  0.32368  1.0000
  C   C1149     1.0  0.52025  0.68021  0.41907  1.0000
  H   H1824     1.0  0.81312  0.99196  0.47379  1.0000
  H   H1825     1.0  0.61150  0.75935  0.40576  1.0000
  C   C1150     1.0  0.92609  0.69187  0.46091  1.0000
  C   C1151     1.0  0.61396  0.74034  0.29493  1.0000
  H   H1826     1.0  0.77802  0.93571  0.45447  1.0000
  H   H1827     1.0  0.62769  0.76122  0.27900  1.0000
  H   H1828     1.0  0.94021  0.71232  0.47701  1.0000
  H   H1829     1.0  0.59693  0.72087  0.28014  1.0000
  H   H1830     1.0  0.88877  0.80390  0.27032  1.0000
  H   H1831     1.0  0.70064  0.76576  0.47341  1.0000
  C   C1152     1.0  0.83414  0.97204  0.39696  1.0000
  Fe  Fe239     1.0  0.53520  0.85715  0.41563  1.0000
  C   C1153     1.0  0.87185  0.73217  0.45433  1.0000
  C   C1154     1.0  0.89859  0.73045  0.27942  1.0000
  H   H1832     1.0  0.64875  0.81137  0.47544  1.0000
  C   C1155     1.0  0.52010  0.71530  0.40396  1.0000
  C   C1156     1.0  0.88419  0.68285  0.41649  1.0000
  C   C1157     1.0  0.76778  0.67873  0.32917  1.0000
  C   C1158     1.0  0.78310  0.70812  0.27867  1.0000
  H   H1833     1.0  0.91437  0.70494  0.28685  1.0000
  H   H1834     1.0  0.78393  0.76839  0.27883  1.0000
  H   H1835     1.0  0.54536  0.77018  0.46638  1.0000
  S   S465      1.0  0.58179  0.83039  0.38799  1.0000
  H   H1836     1.0  0.59427  0.75638  0.31047  1.0000
  H   H1837     1.0  0.59567  0.96973  0.36202  1.0000
  H   H1838     1.0  0.94181  0.79308  0.32847  1.0000
  N   N116      1.0  0.90165  0.71108  0.43759  1.0000
  S   S466      1.0  0.75216  0.71970  0.38329  1.0000
  C   C1159     1.0  0.56418  0.97287  0.28589  1.0000
  H   H1839     1.0  0.91087  0.74015  0.25660  1.0000
  C   C1160     1.0  0.77683  0.67561  0.29669  1.0000
  H   H1840     1.0  0.85344  0.91673  0.33518  1.0000
  C   C1161     1.0  0.53877  0.74496  0.45323  1.0000
  S   S467      1.0  0.91252  0.91749  0.38026  1.0000
  H   H1841     1.0  0.57009  0.99012  0.26440  1.0000
  H   H1842     1.0  0.76431  0.96253  0.42006  1.0000
  H   H1843     1.0  0.70203  0.73100  0.44262  1.0000
  H   H1844     1.0  0.54843  0.96359  0.34766  1.0000
  H   H1845     1.0  0.61179  0.80968  0.44690  1.0000
  H   H1846     1.0  0.94092  0.75675  0.43387  1.0000
  C   C1162     1.0  0.57867  0.96129  0.34105  1.0000
  H   H1847     1.0  0.95721  0.74699  0.31707  1.0000
  H   H1848     1.0  0.67901  0.76697  0.31844  1.0000
  H   H1849     1.0  0.95888  0.97787  0.40465  1.0000
  H   H1850     1.0  0.52581  0.85761  0.34315  1.0000
  C   C1163     1.0  0.53819  0.71025  0.46865  1.0000
  C   C1164     1.0  0.88394  0.74546  0.33382  1.0000
  H   H1851     1.0  0.85284  0.74682  0.43730  1.0000
  H   H1852     1.0  0.84812  0.78652  0.29103  1.0000
  C   C1165     1.0  0.66350  0.74650  0.33354  1.0000
  H   H1853     1.0  0.64469  0.76292  0.34942  1.0000
  H   H1854     1.0  0.90665  0.75517  0.40301  1.0000
  H   H1855     1.0  0.95252  0.78339  0.28767  1.0000
  C   C1166     1.0  0.77055  0.74635  0.32499  1.0000
  S   S468      1.0  0.94988  0.79113  0.49309  1.0000
  H   H1856     1.0  0.87975  0.99253  0.33529  1.0000
  C   C1167     1.0  0.92445  0.73739  0.41850  1.0000
  S   S469      1.0  0.69564  0.79470  0.25614  1.0000
  S   S470      1.0  0.54469  0.96054  0.49605  1.0000
  H   H1857     1.0  0.88068  0.95065  0.44379  1.0000
  S   S471      1.0  0.50583  0.72033  0.36436  1.0000
  H   H1858     1.0  0.63443  0.94970  0.29897  1.0000
  H   H1859     1.0  0.83594  0.94613  0.38228  1.0000
  H   H1860     1.0  0.60190  0.70664  0.35054  1.0000
  C   C1168     1.0  0.62788  0.97958  0.30474  1.0000
  H   H1861     1.0  0.64640  0.98767  0.32492  1.0000
  C   C1169     1.0  0.82175  0.99779  0.44890  1.0000
  H   H1862     1.0  0.68977  0.68350  0.30635  1.0000
  H   H1863     1.0  0.86216  0.98591  0.39585  1.0000
  H   H1864     1.0  0.90994  0.67182  0.47593  1.0000
  H   H1865     1.0  0.63616  0.99746  0.28424  1.0000
  H   H1866     1.0  0.81291  0.99064  0.38569  1.0000
  H   H1867     1.0  0.60700  0.67117  0.32043  1.0000
  H   H1868     1.0  0.64293  0.67681  0.34994  1.0000
  H   H1869     1.0  0.94873  0.67565  0.44893  1.0000
  S   S472      1.0  0.50220  0.66962  0.28529  1.0000
  C   C1170     1.0  0.85827  0.99930  0.31690  1.0000
  H   H1870     1.0  0.90582  0.66674  0.40310  1.0000
  C   C1171     1.0  0.88342  0.66698  0.67162  1.0000
  H   H1871     1.0  0.84661  0.74292  0.64806  1.0000
  H   H1872     1.0  0.56353  0.78399  0.52698  1.0000
  H   H1873     1.0  0.70355  0.98461  0.55300  1.0000
  S   S473      1.0  0.79814  0.70869  0.74117  1.0000
  H   H1874     1.0  0.61927  0.74085  0.53102  1.0000
  H   H1875     1.0  0.90472  0.97268  0.70437  1.0000
  H   H1876     1.0  0.55812  0.82099  0.55524  1.0000
  H   H1877     1.0  0.60795  0.67194  0.59170  1.0000
  H   H1878     1.0  0.59453  0.69106  0.65238  1.0000
  H   H1879     1.0  0.61665  0.91449  0.70001  1.0000
  H   H1880     1.0  0.80844  0.68734  0.56784  1.0000
  C   C1172     1.0  0.82115  0.75331  0.53839  1.0000
  Fe  Fe240     1.0  0.54133  0.86627  0.71782  1.0000
  C   C1173     1.0  0.61544  0.97299  0.65984  1.0000
  C   C1174     1.0  0.51903  0.96534  0.60219  1.0000
  S   S474      1.0  0.54636  0.86856  0.66489  1.0000
  H   H1881     1.0  0.86706  0.96860  0.60646  1.0000
  H   H1882     1.0  0.89852  0.75138  0.68495  1.0000
  S   S475      1.0  0.50494  0.91721  0.72176  1.0000
  C   C1175     1.0  0.52169  0.92933  0.55305  1.0000
  C   C1176     1.0  0.53424  0.96134  0.53678  1.0000
  H   H1883     1.0  0.55667  0.72462  0.65157  1.0000
  H   H1884     1.0  0.50483  0.90677  0.59862  1.0000
  H   H1885     1.0  0.58676  0.96336  0.66659  1.0000
  H   H1886     1.0  0.51811  0.90317  0.54034  1.0000
  C   C1177     1.0  0.92489  0.99097  0.56960  1.0000
  H   H1887     1.0  0.88708  0.80165  0.64615  1.0000
  Fe  Fe241     1.0  0.95654  0.87737  0.70927  1.0000
  H   H1888     1.0  0.60195  0.77772  0.65483  1.0000
  H   H1889     1.0  0.84402  0.69219  0.59747  1.0000
  H   H1890     1.0  0.85702  0.68885  0.52559  1.0000
  S   S476      1.0  0.95454  0.87573  0.65612  1.0000
  H   H1891     1.0  0.86650  0.74411  0.71715  1.0000
  H   H1892     1.0  0.58596  0.77439  0.72528  1.0000
  H   H1893     1.0  0.56209  0.77396  0.59944  1.0000
  C   C1178     1.0  0.97750  0.82201  0.54850  1.0000
  C   C1179     1.0  0.96622  0.78956  0.53230  1.0000
  C   C1180     1.0  0.96637  0.75503  0.54797  1.0000
  C   C1181     1.0  0.97792  0.75262  0.57961  1.0000
  H   H1894     1.0  0.88967  0.74558  0.59417  1.0000
  H   H1895     1.0  0.65429  0.90908  0.67198  1.0000
  H   H1896     1.0  0.95805  0.72998  0.53544  1.0000
  C   C1182     1.0  0.57073  0.75463  0.70924  1.0000
  Fe  Fe242     1.0  0.79016  0.86640  0.53409  1.0000
  S   S477      1.0  0.74201  0.82617  0.53313  1.0000
  H   H1897     1.0  0.93378  0.98378  0.59413  1.0000
  Fe  Fe243     1.0  0.70654  0.87780  0.53522  1.0000
  S   S478      1.0  0.75459  0.91801  0.53063  1.0000
  H   H1898     1.0  0.88181  0.83612  0.67697  1.0000
  Fe  Fe244     1.0  0.74388  0.83210  0.58598  1.0000
  S   S479      1.0  0.70367  0.88025  0.58831  1.0000
  S   S480      1.0  0.73883  0.77888  0.61310  1.0000
  C   C1183     1.0  0.72770  0.78476  0.65334  1.0000
  C   C1184     1.0  0.72551  0.82041  0.66736  1.0000
  C   C1185     1.0  0.71713  0.82377  0.69994  1.0000
  C   C1186     1.0  0.71059  0.79142  0.71811  1.0000
  C   C1187     1.0  0.71310  0.75608  0.70397  1.0000
  C   C1188     1.0  0.72167  0.75279  0.67175  1.0000
  H   H1899     1.0  0.73021  0.84522  0.65317  1.0000
  H   H1900     1.0  0.71486  0.85121  0.71085  1.0000
  H   H1901     1.0  0.70870  0.73109  0.71806  1.0000
  H   H1902     1.0  0.72324  0.72534  0.66099  1.0000
  Fe  Fe245     1.0  0.75519  0.91567  0.58382  1.0000
  S   S481      1.0  0.79554  0.86770  0.58701  1.0000
  S   S482      1.0  0.76262  0.96963  0.60971  1.0000
  C   C1189     1.0  0.77209  0.96427  0.65036  1.0000
  C   C1190     1.0  0.76759  0.92963  0.66578  1.0000
  C   C1191     1.0  0.77379  0.92685  0.69877  1.0000
  C   C1192     1.0  0.78512  0.95863  0.71596  1.0000
  C   C1193     1.0  0.78991  0.99287  0.70031  1.0000
  H   H1903     1.0  0.91006  0.91946  0.58439  1.0000
  H   H1904     1.0  0.75903  0.90523  0.65239  1.0000
  H   H1905     1.0  0.77038  0.90022  0.71083  1.0000
  H   H1906     1.0  0.60279  0.97761  0.72261  1.0000
  S   S483      1.0  0.99722  0.92519  0.71200  1.0000
  H   H1907     1.0  0.59503  0.82349  0.52635  1.0000
  S   S484      1.0  0.50841  0.96971  0.64277  1.0000
  H   H1908     1.0  0.92436  0.92196  0.54360  1.0000
  S   S485      1.0  0.92037  0.67557  0.61594  1.0000
  H   H1909     1.0  0.64040  0.74465  0.65480  1.0000
  H   H1910     1.0  0.90406  0.97462  0.51005  1.0000
  H   H1911     1.0  0.88352  0.97849  0.66614  1.0000
  Fe  Fe246     1.0  0.99972  0.91921  0.65909  1.0000
  H   H1912     1.0  0.97774  0.72583  0.59158  1.0000
  S   S486      1.0  0.55097  0.70860  0.50875  1.0000
  C   C1194     1.0  0.87276  0.70940  0.54032  1.0000
  C   C1195     1.0  0.90096  0.92861  0.56031  1.0000
  C   C1196     1.0  0.61993  0.75980  0.67019  1.0000
  H   H1913     1.0  0.89559  0.78576  0.71610  1.0000
  C   C1197     1.0  0.88082  0.98015  0.52717  1.0000
  H   H1914     1.0  0.80536  0.72489  0.59610  1.0000
  H   H1915     1.0  0.64497  0.79821  0.60080  1.0000
  N   N117      1.0  0.89165  0.96911  0.55973  1.0000
  C   C1198     1.0  0.64461  0.92560  0.69287  1.0000
  H   H1916     1.0  0.62337  0.95784  0.63774  1.0000
  H   H1917     1.0  0.94921  0.98562  0.55356  1.0000
  S   S487      1.0  0.59424  0.85710  0.74453  1.0000
  H   H1918     1.0  0.89211  0.69284  0.55562  1.0000
  H   H1919     1.0  0.64210  0.69359  0.69468  1.0000
  H   H1920     1.0  0.99762  0.84440  0.59315  1.0000
  H   H1921     1.0  0.66447  0.91967  0.71275  1.0000
  C   C1199     1.0  0.51441  0.93129  0.58594  1.0000
  H   H1922     1.0  0.55112  0.77161  0.69447  1.0000
  N   N118      1.0  0.60484  0.78414  0.56444  1.0000
  C   C1200     1.0  0.62436  0.81197  0.58458  1.0000
  C   C1201     1.0  0.63298  0.76228  0.54640  1.0000
  C   C1202     1.0  0.58274  0.75840  0.58465  1.0000
  C   C1203     1.0  0.57939  0.80399  0.54226  1.0000
  H   H1923     1.0  0.60411  0.82827  0.59929  1.0000
  C   C1204     1.0  0.78313  0.99576  0.66772  1.0000
  H   H1924     1.0  0.80095  0.82088  0.69347  1.0000
  H   H1925     1.0  0.87646  0.91107  0.55321  1.0000
  S   S488      1.0  0.66963  0.67339  0.63361  1.0000
  H   H1926     1.0  0.69056  0.96447  0.65432  1.0000
  H   H1927     1.0  0.63648  0.77886  0.68587  1.0000
  C   C1205     1.0  0.53944  0.99494  0.55334  1.0000
  H   H1928     1.0  0.80610  0.77318  0.64961  1.0000
  C   C1206     1.0  0.68043  0.97944  0.67584  1.0000
  C   C1207     1.0  0.63091  0.98695  0.71429  1.0000
  N   N119      1.0  0.59708  0.73323  0.68903  1.0000
  H   H1929     1.0  0.55336  0.73559  0.72421  1.0000
  H   H1930     1.0  0.88623  0.77874  0.56230  1.0000
  C   C1208     1.0  0.57557  0.70835  0.66753  1.0000
  C   C1209     1.0  0.62207  0.71031  0.70926  1.0000
  H   H1931     1.0  0.84494  0.82976  0.64853  1.0000
  N   N120      1.0  0.84713  0.73277  0.55957  1.0000
  H   H1932     1.0  0.60117  0.74167  0.60061  1.0000
  H   H1933     1.0  0.80870  0.78438  0.72183  1.0000
  S   S489      1.0  0.65249  0.88206  0.50906  1.0000
  H   H1934     1.0  0.80109  0.77069  0.55237  1.0000
  C   C1210     1.0  0.82530  0.70837  0.58124  1.0000
  H   H1935     1.0  0.55763  0.68843  0.68109  1.0000
  C   C1211     1.0  0.98875  0.81960  0.58051  1.0000
  H   H1936     1.0  0.81289  0.73811  0.67939  1.0000
  N   N121      1.0  0.84906  0.78614  0.68366  1.0000
  C   C1212     1.0  0.82325  0.80496  0.70617  1.0000
  C   C1213     1.0  0.86649  0.81462  0.66279  1.0000
  C   C1214     1.0  0.82780  0.75894  0.66421  1.0000
  C   C1215     1.0  0.87876  0.76603  0.70136  1.0000
  H   H1937     1.0  0.64005  0.83254  0.56971  1.0000
  H   H1938     1.0  0.83836  0.82527  0.72172  1.0000
  H   H1939     1.0  0.93347  0.97149  0.66928  1.0000
  Fe  Fe247     1.0  0.50462  0.91532  0.66854  1.0000
  H   H1940     1.0  0.89048  0.72695  0.52442  1.0000
  H   H1941     1.0  0.65044  0.78086  0.53116  1.0000
  H   H1942     1.0  0.65468  0.98844  0.54274  1.0000
  C   C1216     1.0  0.86013  0.97683  0.58168  1.0000
  H   H1943     1.0  0.56641  0.73811  0.57001  1.0000
  H   H1944     1.0  0.65238  0.74681  0.56261  1.0000
  C   C1217     1.0  0.86940  0.76008  0.57815  1.0000
  N   N122      1.0  0.64283  0.96622  0.68565  1.0000
  H   H1945     1.0  0.85568  0.96434  0.51905  1.0000
  C   C1218     1.0  0.90887  0.98549  0.68047  1.0000
  H   H1946     1.0  0.80429  0.73364  0.52358  1.0000
  H   H1947     1.0  0.83440  0.96109  0.57473  1.0000
  H   H1948     1.0  0.83665  0.77261  0.52213  1.0000
  H   H1949     1.0  0.63909  0.72822  0.72545  1.0000
  H   H1950     1.0  0.85890  0.67571  0.65845  1.0000
  C   C1219     1.0  0.98911  0.78476  0.59594  1.0000
  H   H1951     1.0  0.85096  0.77833  0.59283  1.0000
  S   S490      1.0  0.90208  0.87592  0.73521  1.0000
  S   S491      1.0  0.84331  0.85765  0.50746  1.0000
  H   H1952     1.0  0.60588  0.68996  0.72386  1.0000
  H   H1953     1.0  0.97688  0.84885  0.53649  1.0000
  H   H1954     1.0  0.65151  0.98312  0.73388  1.0000
  H   H1955     1.0  0.70166  0.97471  0.69493  1.0000
  C   C1220     1.0  0.53145  0.99700  0.58579  1.0000
  S   S492      1.0  0.99993  0.83240  0.71439  1.0000
  H   H1956     1.0  0.90842  0.72267  0.76987  1.0000
  H   H1957     1.0  0.65749  0.81349  0.90691  1.0000
  H   H1958     1.0  0.60150  0.90504  0.96836  1.0000
  C   C1221     1.0  0.58862  0.84837  0.78520  1.0000
  C   C1222     1.0  0.55318  0.84823  0.79977  1.0000
  C   C1223     1.0  0.55031  0.84287  0.83286  1.0000
  C   C1224     1.0  0.58294  0.83753  0.85096  1.0000
  C   C1225     1.0  0.61793  0.83757  0.83618  1.0000
  C   C1226     1.0  0.62077  0.84297  0.80349  1.0000
  H   H1959     1.0  0.52822  0.85229  0.78563  1.0000
  Fe  Fe248     1.0  0.96233  0.89546  0.90894  1.0000
  H   H1960     1.0  0.64304  0.83419  0.85026  1.0000
  H   H1961     1.0  0.64808  0.84331  0.79240  1.0000
  H   H1962     1.0  0.90251  0.97975  0.80628  1.0000
  Fe  Fe249     1.0  0.52075  0.91365  0.97003  1.0000
  H   H1963     1.0  0.94271  0.77280  0.84184  1.0000
  S   S493      1.0  0.52371  0.91682  0.91686  1.0000
  H   H1964     1.0  0.77112  0.77413  0.83964  1.0000
  H   H1965     1.0  0.96568  0.97589  0.90621  1.0000
  H   H1966     1.0  0.90470  0.80626  0.84290  1.0000
  H   H1967     1.0  0.89624  0.72010  0.84108  1.0000
  C   C1227     1.0  0.92476  0.74231  0.78523  1.0000
  H   H1968     1.0  0.71463  0.97594  0.83630  1.0000
  S   S494      1.0  0.97732  0.83445  0.90700  1.0000
  H   H1969     1.0  0.60882  0.67129  0.82104  1.0000
  S   S495      1.0  0.95753  0.89752  0.96214  1.0000
  C   C1228     1.0  0.90698  0.88757  0.77547  1.0000
  C   C1229     1.0  0.94212  0.88713  0.79039  1.0000
  C   C1230     1.0  0.94510  0.89600  0.82289  1.0000
  C   C1231     1.0  0.91287  0.90544  0.84021  1.0000
  C   C1232     1.0  0.87794  0.90576  0.82514  1.0000
  C   C1233     1.0  0.87503  0.89692  0.79289  1.0000
  H   H1970     1.0  0.96680  0.87987  0.77686  1.0000
  S   S496      1.0  0.53770  0.85318  0.97269  1.0000
  H   H1971     1.0  0.88395  0.97168  0.97153  1.0000
  Fe  Fe250     1.0  0.97792  0.83811  0.96025  1.0000
  H   H1972     1.0  0.88600  0.75745  0.96561  1.0000
  S   S497      1.0  0.77147  0.91466  0.83872  1.0000
  Fe  Fe251     1.0  0.78274  0.85292  0.83573  1.0000
  S   S498      1.0  0.82949  0.82472  0.86229  1.0000
  C   C1234     1.0  0.84120  0.85252  0.96738  1.0000
  C   C1235     1.0  0.80572  0.85477  0.95311  1.0000
  C   C1236     1.0  0.80165  0.84692  0.92050  1.0000
  C   C1237     1.0  0.83306  0.83622  0.90257  1.0000
  C   C1238     1.0  0.86818  0.83347  0.91710  1.0000
  C   C1239     1.0  0.87224  0.84188  0.94931  1.0000
  H   H1973     1.0  0.78167  0.86295  0.96708  1.0000
  H   H1974     1.0  0.77435  0.84863  0.90930  1.0000
  H   H1975     1.0  0.89254  0.82575  0.90323  1.0000
  H   H1976     1.0  0.89959  0.84021  0.96023  1.0000
  S   S499      1.0  0.78410  0.85123  0.78246  1.0000
  Fe  Fe252     1.0  0.71090  0.89794  0.83782  1.0000
  S   S500      1.0  0.66588  0.92389  0.86802  1.0000
  C   C1240     1.0  0.66043  0.89324  0.97298  1.0000
  C   C1241     1.0  0.69511  0.89166  0.95725  1.0000
  C   C1242     1.0  0.69728  0.90008  0.92460  1.0000
  C   C1243     1.0  0.66478  0.91062  0.90806  1.0000
  C   C1244     1.0  0.63046  0.91235  0.92399  1.0000
  C   C1245     1.0  0.62824  0.90357  0.95628  1.0000
  H   H1977     1.0  0.72004  0.88379  0.97020  1.0000
  H   H1978     1.0  0.72399  0.89916  0.91235  1.0000
  S   S501      1.0  0.70560  0.90052  0.78461  1.0000
  Fe  Fe253     1.0  0.72257  0.84002  0.78623  1.0000
  C   C1246     1.0  0.92658  0.69445  0.95577  1.0000
  S   S502      1.0  0.72238  0.83623  0.83948  1.0000
  Fe  Fe254     1.0  0.76748  0.91165  0.78548  1.0000
  H   H1979     1.0  0.64884  0.81013  0.97888  1.0000
  H   H1980     1.0  0.70163  0.76558  0.97582  1.0000
  C   C1247     1.0  0.82106  0.95012  0.91352  1.0000
  C   C1248     1.0  0.87397  0.78719  0.78698  1.0000
  C   C1249     1.0  0.92268  0.78904  0.82684  1.0000
  C   C1250     1.0  0.62337  0.69300  0.83554  1.0000
  C   C1251     1.0  0.87768  0.73802  0.82623  1.0000
  H   H1981     1.0  0.70351  0.73153  0.94450  1.0000
  H   H1982     1.0  0.97223  0.89646  0.83441  1.0000
  H   H1983     1.0  0.65111  0.72648  0.90618  1.0000
  C   C1252     1.0  0.76650  0.67956  0.83047  1.0000
  H   H1984     1.0  0.84803  0.89803  0.78128  1.0000
  H   H1985     1.0  0.68531  0.72026  0.77859  1.0000
  H   H1986     1.0  0.94496  0.72506  0.79921  1.0000
  H   H1987     1.0  0.85593  0.76935  0.77156  1.0000
  H   H1988     1.0  0.54441  0.96125  0.85609  1.0000
  H   H1989     1.0  0.85525  0.71715  0.96569  1.0000
  C   C1253     1.0  0.76445  0.71468  0.84537  1.0000
  C   C1254     1.0  0.52171  0.71747  0.90648  1.0000
  C   C1255     1.0  0.78175  0.74485  0.79597  1.0000
  C   C1256     1.0  0.55263  0.98601  0.79583  1.0000
  H   H1990     1.0  0.59176  0.92601  0.78146  1.0000
  N   N123      1.0  0.64261  0.72048  0.81489  1.0000
  H   H1991     1.0  0.58991  0.97817  0.94375  1.0000
  C   C1257     1.0  0.77215  0.74713  0.82807  1.0000
  H   H1992     1.0  0.60186  0.70684  0.85087  1.0000
  H   H1993     1.0  0.52769  0.77667  0.91446  1.0000
  H   H1994     1.0  0.60534  0.91988  0.91116  1.0000
  C   C1258     1.0  0.78366  0.71004  0.78087  1.0000
  H   H1995     1.0  0.80332  0.92975  0.92679  1.0000
  H   H1996     1.0  0.53614  0.96414  0.78309  1.0000
  C   C1259     1.0  0.53143  0.67781  0.95282  1.0000
  H   H1997     1.0  0.58458  0.93054  0.85577  1.0000
  H   H1998     1.0  0.85354  0.75063  0.93373  1.0000
  H   H1999     1.0  0.62673  0.92897  0.81166  1.0000
  C   C1260     1.0  0.56347  0.94481  0.84039  1.0000
  C   C1261     1.0  0.66934  0.70046  0.79394  1.0000
  H   H2000     1.0  0.69904  0.98217  0.77939  1.0000
  N   N124      1.0  0.65671  0.76926  0.94185  1.0000
  C   C1262     1.0  0.63347  0.74341  0.92261  1.0000
  C   C1263     1.0  0.67715  0.79554  0.92078  1.0000
  C   C1264     1.0  0.63225  0.79076  0.96364  1.0000
  C   C1265     1.0  0.68407  0.74714  0.96048  1.0000
  H   H2001     1.0  0.86009  0.71900  0.81132  1.0000
  S   S503      1.0  0.69619  0.79390  0.75774  1.0000
  C   C1266     1.0  0.52306  0.68165  0.92027  1.0000
  H   H2002     1.0  0.94483  0.72357  0.89842  1.0000
  S   S504      1.0  0.95260  0.79093  0.98820  1.0000
  H   H2003     1.0  0.88688  0.93648  0.94125  1.0000
  C   C1267     1.0  0.92372  0.73921  0.91270  1.0000
  H   H2004     1.0  0.61548  0.77179  0.97913  1.0000
  H   H2005     1.0  0.88470  0.98862  0.90148  1.0000
  H   H2006     1.0  0.93959  0.75996  0.92725  1.0000
  H   H2007     1.0  0.80218  0.96591  0.89720  1.0000
  H   H2008     1.0  0.69545  0.81489  0.93460  1.0000
  H   H2009     1.0  0.85814  0.75351  0.84224  1.0000
  H   H2010     1.0  0.61744  0.72351  0.93794  1.0000
  Fe  Fe255     1.0  0.53509  0.85520  0.91944  1.0000
  H   H2011     1.0  0.93953  0.80918  0.81248  1.0000
  N   N125      1.0  0.89979  0.76416  0.80636  1.0000
  H   H2012     1.0  0.79756  0.97620  0.97038  1.0000
  H   H2013     1.0  0.88955  0.80737  0.77178  1.0000
  H   H2014     1.0  0.61190  0.80851  0.95033  1.0000
  H   H2015     1.0  0.69546  0.78036  0.90358  1.0000
  C   C1268     1.0  0.87276  0.73560  0.95035  1.0000
  H   H2016     1.0  0.54637  0.92238  0.82906  1.0000
  H   H2017     1.0  0.78727  0.77019  0.78270  1.0000
  H   H2018     1.0  0.54326  0.77004  0.97130  1.0000
  S   S505      1.0  0.58171  0.82888  0.89178  1.0000
  S   S506      1.0  0.75287  0.66893  0.96463  1.0000
  H   H2019     1.0  0.84068  0.93327  0.89866  1.0000
  S   S507      1.0  0.79507  0.95685  0.75668  1.0000
  N   N126      1.0  0.90143  0.71366  0.93297  1.0000
  S   S508      1.0  0.75127  0.71914  0.88531  1.0000
  H   H2020     1.0  0.68486  0.73375  0.84954  1.0000
  H   H2021     1.0  0.90551  0.75549  0.89624  1.0000
  H   H2022     1.0  0.85487  0.80419  0.80216  1.0000
  H   H2023     1.0  0.85301  0.91263  0.83851  1.0000
  C   C1269     1.0  0.53786  0.74531  0.95713  1.0000
  S   S509      1.0  0.91528  0.91976  0.87997  1.0000
  C   C1270     1.0  0.61439  0.74061  0.79554  1.0000
  H   H2024     1.0  0.59805  0.72081  0.78050  1.0000
  C   C1271     1.0  0.77588  0.67720  0.79802  1.0000
  H   H2025     1.0  0.66976  0.72611  0.97594  1.0000
  C   C1272     1.0  0.88251  0.68528  0.91295  1.0000
  H   H2026     1.0  0.94223  0.71489  0.97079  1.0000
  H   H2027     1.0  0.69050  0.68450  0.80793  1.0000
  H   H2028     1.0  0.64394  0.76350  0.85070  1.0000
  H   H2029     1.0  0.85105  0.93313  0.97076  1.0000
  C   C1273     1.0  0.86689  0.95333  0.95575  1.0000
  H   H2030     1.0  0.52309  0.84240  0.84431  1.0000
  C   C1274     1.0  0.53907  0.70982  0.97113  1.0000
  H   H2031     1.0  0.62793  0.76174  0.77975  1.0000
  N   N127      1.0  0.58171  0.96897  0.81633  1.0000
  Fe  Fe256     1.0  0.50566  0.67109  0.83878  1.0000
  H   H2032     1.0  0.62534  0.96378  0.78135  1.0000
  C   C1275     1.0  0.52889  0.74909  0.92502  1.0000
  H   H2033     1.0  0.61243  0.75905  0.90821  1.0000
  H   H2034     1.0  0.67816  0.76882  0.81979  1.0000
  S   S510      1.0  0.54747  0.95987  0.99836  1.0000
  C   C1276     1.0  0.66323  0.74779  0.83472  1.0000
  H   H2035     1.0  0.95389  0.98210  0.96376  1.0000
  H   H2036     1.0  0.94147  0.76108  0.76950  1.0000
  N   N128      1.0  0.84147  0.97555  0.93534  1.0000
  H   H2037     1.0  0.59410  0.75624  0.81081  1.0000
  H   H2038     1.0  0.86219  0.69857  0.89624  1.0000
  S   S511      1.0  0.50689  0.67706  0.78590  1.0000
  C   C1277     1.0  0.60741  0.94603  0.79674  1.0000
  H   H2039     1.0  0.65478  0.68004  0.77813  1.0000
  H   H2040     1.0  0.62561  0.98723  0.84777  1.0000
  H   H2041     1.0  0.59635  0.99278  0.90347  1.0000
  H   H2042     1.0  0.85229  0.98137  0.84652  1.0000
  H   H2043     1.0  0.64367  0.67813  0.85124  1.0000
  H   H2044     1.0  0.81679  0.98294  0.81644  1.0000
  H   H2045     1.0  0.86728  0.97952  0.77589  1.0000
  H   H2046     1.0  0.94800  0.67712  0.94332  1.0000
  H   H2047     1.0  0.91073  0.67538  0.97191  1.0000
  S   S512      1.0  0.51000  0.72400  0.86642  1.0000
  C   C1278     1.0  0.81409  0.99590  0.95533  1.0000
  C   C1279     1.0  0.88470  0.99824  0.79112  1.0000
  H   H2048     1.0  0.90319  0.66885  0.89878  1.0000
  C   C1280     1.0  0.60318  0.99909  0.83232  1.0000
