data_image0
_chemical_formula_structural       H2CHCNH5SH6CHNCH4C2H3CHNH4SNCHCH4CH2FeC2H2SC2HCH5FeH2SNH3CHCHSC2H2CHC2H4CHCSNH3CH2FeC2SH2FeS2FeCFeHSCH3SH2C2SH2C4SHCH3NCHSHCHSCSCHFeH3CH4C7H4CH5NH5CH4C2HC4NC2H2C2FeSNFeHSFeS2C7H2CSCHFeS3H2CH5CSCHCH6SC6H3CHCHSH2CH6CHCFeS2FeSFeHFeS3C3H2CH2CH3CHCNC2HSC2SCNCH8C2NHCFeSHS2FeSHCSCSHFeSCH3C2HC2SH5CFeH3CHCH3C2FeHCH2C2H7CH2CH4CNFeS2FeSHFeSFeS2H2C3HCS2HCH3CHC3HC2H5CHSHCSHSH2CH2C2HFeSHFeCS2FeSH3CH3FeSHCHCHNH3C3H2CHCHC3NCH6CH3CNC3HCH5C2H3CH5CH4NCSH3CH3C2HCH4CHCHCH4C2HSH2SH2SH3CHC3H5CH2C3HC2SHCSN2FeH2FeHC2H2SC2HSHCSH2C2HC2H2C3FeHSHFeSC2HCH3SC2HCHCHC3HFeSCFeHSCSHC2HSNH2NFeSH2CH3CH2C2FeSFeS2Fe2CHSFeCSH2SHSCH3C4HSH4CH4CHCH5S3C3H2Fe2SHC2HCHCHFeC2SH5NH5SCFe2S2Fe2S3HC6H4C2FeHSCH3NHCHCH4CH
_chemical_formula_sum              "H384 C240 N24 S96 Fe48"
_cell_length_a       43.5499
_cell_length_b       46.8785
_cell_length_c       38.272
_cell_angle_alpha    89.3058
_cell_angle_beta     89.3148
_cell_angle_gamma    135.294

_space_group_name_H-M_alt    "P 1"
_space_group_IT_number       1

loop_
  _space_group_symop_operation_xyz
  'x, y, z'

loop_
  _atom_site_type_symbol
  _atom_site_label
  _atom_site_symmetry_multiplicity
  _atom_site_fract_x
  _atom_site_fract_y
  _atom_site_fract_z
  _atom_site_occupancy
  H   H1        1.0  0.46806  0.02445  0.12382  1.0000
  H   H2        1.0  0.42977  0.99436  0.08969  1.0000
  C   C1        1.0  0.48602  0.00588  0.04428  1.0000
  H   H3        1.0  0.47502  0.05546  0.05071  1.0000
  C   C2        1.0  0.46040  0.00608  0.10077  1.0000
  N   N1        1.0  0.49679  0.03072  0.07454  1.0000
  H   H4        1.0  0.08113  0.47930  0.02929  1.0000
  H   H5        1.0  0.45623  0.99414  0.03134  1.0000
  H   H6        1.0  0.48678  0.10985  0.47828  1.0000
  H   H7        1.0  0.10084  0.47905  0.40174  1.0000
  H   H8        1.0  0.06469  0.48294  0.38740  1.0000
  S   S1        1.0  0.00276  0.48199  0.42920  1.0000
  H   H9        1.0  0.49488  0.06550  0.50122  1.0000
  H   H10       1.0  0.40831  0.44119  0.62620  1.0000
  H   H11       1.0  0.41292  0.41622  0.65840  1.0000
  H   H12       1.0  0.46463  0.48707  0.71111  1.0000
  H   H13       1.0  0.49598  0.10718  0.54195  1.0000
  H   H14       1.0  0.26589  0.48680  0.74142  1.0000
  C   C3        1.0  0.41994  0.44379  0.65290  1.0000
  H   H15       1.0  0.39998  0.44343  0.67175  1.0000
  N   N2        1.0  0.46696  0.48120  0.65559  1.0000
  C   C4        1.0  0.49239  0.48050  0.63035  1.0000
  H   H16       1.0  0.48722  0.45389  0.63529  1.0000
  H   H17       1.0  0.09247  0.48204  0.50914  1.0000
  H   H18       1.0  0.48319  0.47922  0.60293  1.0000
  H   H19       1.0  0.47408  0.45678  0.69901  1.0000
  C   C5        1.0  0.48111  0.48398  0.69143  1.0000
  C   C6        1.0  0.27368  0.48801  0.81138  1.0000
  H   H20       1.0  0.27734  0.46944  0.79838  1.0000
  H   H21       1.0  0.26084  0.47557  0.83857  1.0000
  H   H22       1.0  0.18613  0.43300  0.81668  1.0000
  C   C7        1.0  0.20086  0.44651  0.79006  1.0000
  H   H23       1.0  0.20207  0.42647  0.77643  1.0000
  N   N3        1.0  0.24479  0.48834  0.79192  1.0000
  H   H24       1.0  0.17829  0.44586  0.77566  1.0000
  H   H25       1.0  0.19233  0.59133  0.08084  1.0000
  H   H26       1.0  0.22057  0.66735  0.05030  1.0000
  H   H27       1.0  0.27004  0.62867  0.06597  1.0000
  S   S2        1.0  0.01446  0.51461  0.13144  1.0000
  N   N4        1.0  0.22994  0.62993  0.03526  1.0000
  C   C8        1.0  0.18856  0.59293  0.05242  1.0000
  H   H28       1.0  0.45378  0.97964  0.11057  1.0000
  C   C9        1.0  0.06646  0.51460  0.03140  1.0000
  H   H29       1.0  0.47894  0.52960  0.06922  1.0000
  H   H30       1.0  0.25238  0.60204  0.02575  1.0000
  H   H31       1.0  0.04552  0.49880  0.05456  1.0000
  H   H32       1.0  0.25134  0.66648  0.08032  1.0000
  C   C10       1.0  0.07436  0.54668  0.01624  1.0000
  H   H33       1.0  0.29464  0.65642  0.02482  1.0000
  H   H34       1.0  0.16211  0.59158  0.04945  1.0000
  Fe  Fe1       1.0  0.00143  0.52435  0.07829  1.0000
  C   C11       1.0  0.26327  0.62929  0.03820  1.0000
  C   C12       1.0  0.24523  0.66623  0.05213  1.0000
  H   H35       1.0  0.17679  0.56499  0.04075  1.0000
  H   H36       1.0  0.27618  0.69459  0.03942  1.0000
  S   S3        1.0  0.05276  0.56361  0.03520  1.0000
  C   C13       1.0  0.49653  0.56032  0.05849  1.0000
  C   C14       1.0  0.01261  0.52511  0.23095  1.0000
  H   H37       1.0  0.01926  0.52231  0.20470  1.0000
  C   C15       1.0  0.08658  0.50356  0.01701  1.0000
  H   H38       1.0  0.47207  0.55821  0.04579  1.0000
  H   H39       1.0  0.49645  0.51641  0.01348  1.0000
  H   H40       1.0  0.48033  0.97948  0.05221  1.0000
  H   H41       1.0  0.03630  0.50208  0.25482  1.0000
  H   H42       1.0  0.05838  0.50451  0.48858  1.0000
  Fe  Fe2       1.0  0.03218  0.54091  0.45130  1.0000
  H   H43       1.0  0.09176  0.55058  0.38077  1.0000
  H   H44       1.0  0.41889  0.73589  0.46269  1.0000
  S   S4        1.0  0.02336  0.50029  0.32894  1.0000
  N   N5        1.0  0.13076  0.54013  0.39507  1.0000
  H   H45       1.0  0.14640  0.59524  0.39276  1.0000
  H   H46       1.0  0.10645  0.55899  0.42578  1.0000
  H   H47       1.0  0.04883  0.69213  0.48163  1.0000
  C   C16       1.0  0.04703  0.63835  0.45501  1.0000
  H   H48       1.0  0.43576  0.71439  0.48353  1.0000
  C   C17       1.0  0.01385  0.51724  0.29360  1.0000
  H   H49       1.0  0.02953  0.60724  0.44743  1.0000
  S   S5        1.0  0.09075  0.58413  0.48502  1.0000
  C   C18       1.0  0.11833  0.56222  0.39873  1.0000
  C   C19       1.0  0.41995  0.72504  0.48819  1.0000
  H   H50       1.0  0.19637  0.58994  0.41207  1.0000
  H   H51       1.0  0.15757  0.55557  0.44638  1.0000
  C   C20       1.0  0.16693  0.55738  0.41862  1.0000
  H   H52       1.0  0.11793  0.53123  0.34015  1.0000
  C   C21       1.0  0.14477  0.54408  0.35843  1.0000
  C   C22       1.0  0.02237  0.51376  0.25940  1.0000
  H   H53       1.0  0.08264  0.65734  0.45237  1.0000
  H   H54       1.0  0.17315  0.57644  0.35035  1.0000
  H   H55       1.0  0.08151  0.49259  0.43201  1.0000
  H   H56       1.0  0.03871  0.64970  0.43550  1.0000
  C   C23       1.0  0.05708  0.67980  0.49988  1.0000
  H   H57       1.0  0.17654  0.54085  0.41727  1.0000
  C   C24       1.0  0.09069  0.52627  0.49910  1.0000
  S   S6        1.0  0.03605  0.56685  0.39984  1.0000
  N   N6        1.0  0.03409  0.63811  0.49093  1.0000
  H   H58       1.0  0.15442  0.52779  0.35461  1.0000
  H   H59       1.0  0.42013  0.78220  0.49576  1.0000
  H   H60       1.0  0.38571  0.69794  0.49719  1.0000
  C   C25       1.0  0.09278  0.49676  0.40443  1.0000
  H   H61       1.0  0.49007  0.80512  0.47640  1.0000
  H   H62       1.0  0.09316  0.70068  0.49836  1.0000
  Fe  Fe3       1.0  0.00118  0.50609  0.37905  1.0000
  C   C26       1.0  0.11308  0.56694  0.50143  1.0000
  C   C27       1.0  0.48896  0.79212  0.50147  1.0000
  S   S7        1.0  0.45229  0.55727  0.57686  1.0000
  H   H63       1.0  0.35828  0.75160  0.68898  1.0000
  H   H64       1.0  0.31182  0.66442  0.70677  1.0000
  Fe  Fe4       1.0  0.28975  0.59262  0.63186  1.0000
  S   S8        1.0  0.27939  0.56055  0.58336  1.0000
  S   S9        1.0  0.30025  0.57940  0.68461  1.0000
  Fe  Fe5       1.0  0.33646  0.62308  0.56131  1.0000
  C   C28       1.0  0.46304  0.61525  0.54066  1.0000
  Fe  Fe6       1.0  0.23934  0.57175  0.56601  1.0000
  H   H65       1.0  0.49461  0.62816  0.53200  1.0000
  S   S10       1.0  0.24411  0.59779  0.61697  1.0000
  C   C29       1.0  0.27678  0.58381  0.71865  1.0000
  H   H66       1.0  0.37306  0.53606  0.58908  1.0000
  H   H67       1.0  0.35008  0.56950  0.57182  1.0000
  H   H68       1.0  0.48788  0.57353  0.74258  1.0000
  S   S11       1.0  0.34943  0.65459  0.61093  1.0000
  H   H69       1.0  0.47512  0.63373  0.62093  1.0000
  H   H70       1.0  0.20548  0.60343  0.53952  1.0000
  C   C30       1.0  0.43556  0.58004  0.56198  1.0000
  C   C31       1.0  0.21873  0.57544  0.74214  1.0000
  S   S12       1.0  0.48134  0.87128  0.65945  1.0000
  H   H71       1.0  0.18796  0.56607  0.73891  1.0000
  H   H72       1.0  0.46034  0.76411  0.56830  1.0000
  C   C32       1.0  0.42290  0.64371  0.63467  1.0000
  C   C33       1.0  0.40903  0.61772  0.54191  1.0000
  C   C34       1.0  0.38148  0.58235  0.56298  1.0000
  C   C35       1.0  0.39456  0.56340  0.57276  1.0000
  S   S13       1.0  0.29578  0.63169  0.53943  1.0000
  H   H73       1.0  0.40626  0.61161  0.63653  1.0000
  C   C36       1.0  0.44960  0.63381  0.53036  1.0000
  H   H74       1.0  0.45821  0.67006  0.69784  1.0000
  H   H75       1.0  0.45672  0.51899  0.66638  1.0000
  H   H76       1.0  0.23664  0.67457  0.68775  1.0000
  N   N7        1.0  0.29546  0.69813  0.71089  1.0000
  C   C37       1.0  0.47419  0.66551  0.67923  1.0000
  H   H77       1.0  0.47112  0.66116  0.51402  1.0000
  S   S14       1.0  0.17540  0.52485  0.53893  1.0000
  H   H78       1.0  0.17186  0.62609  0.51821  1.0000
  C   C38       1.0  0.15143  0.54129  0.52543  1.0000
  H   H79       1.0  0.34272  0.75954  0.72837  1.0000
  S   S15       1.0  0.31021  0.70916  0.59548  1.0000
  C   C39       1.0  0.34110  0.73765  0.71483  1.0000
  S   S16       1.0  0.39471  0.64373  0.53160  1.0000
  C   C40       1.0  0.27428  0.68031  0.74584  1.0000
  H   H80       1.0  0.47612  0.72095  0.65534  1.0000
  Fe  Fe7       1.0  0.30327  0.65713  0.59141  1.0000
  H   H81       1.0  0.04810  0.68079  0.52687  1.0000
  H   H82       1.0  0.46367  0.51535  0.62087  1.0000
  H   H83       1.0  0.41848  0.64916  0.60768  1.0000
  C   C41       1.0  0.17356  0.58185  0.52820  1.0000
  H   H84       1.0  0.24237  0.50633  0.74084  1.0000
  H   H85       1.0  0.02908  0.59138  0.50961  1.0000
  H   H86       1.0  0.03688  0.62232  0.54309  1.0000
  H   H87       1.0  0.35995  0.73427  0.73021  1.0000
  C   C42       1.0  0.49106  0.66560  0.61902  1.0000
  C   C43       1.0  0.43422  0.82610  0.64158  1.0000
  C   C44       1.0  0.39728  0.81891  0.63855  1.0000
  C   C45       1.0  0.35983  0.78339  0.62331  1.0000
  C   C46       1.0  0.35864  0.75426  0.61233  1.0000
  C   C47       1.0  0.39536  0.76110  0.61584  1.0000
  C   C48       1.0  0.43347  0.79738  0.62997  1.0000
  H   H88       1.0  0.39801  0.84130  0.64712  1.0000
  H   H89       1.0  0.33159  0.77833  0.62031  1.0000
  H   H90       1.0  0.39460  0.73877  0.60736  1.0000
  H   H91       1.0  0.46211  0.80295  0.63231  1.0000
  C   C49       1.0  0.29509  0.67058  0.69200  1.0000
  H   H92       1.0  0.48732  0.72020  0.61031  1.0000
  H   H93       1.0  0.08157  0.64171  0.51419  1.0000
  H   H94       1.0  0.45883  0.63404  0.68364  1.0000
  H   H95       1.0  0.26113  0.64094  0.68756  1.0000
  H   H96       1.0  0.46196  0.73241  0.54441  1.0000
  N   N8        1.0  0.46971  0.67230  0.64266  1.0000
  H   H97       1.0  0.23980  0.65030  0.74396  1.0000
  H   H98       1.0  0.47935  0.89133  0.73094  1.0000
  H   H99       1.0  0.43860  0.79441  0.53988  1.0000
  H   H100      1.0  0.28577  0.71641  0.66406  1.0000
  H   H101      1.0  0.48966  0.67192  0.59133  1.0000
  C   C50       1.0  0.27131  0.70388  0.69085  1.0000
  H   H102      1.0  0.22023  0.55912  0.69012  1.0000
  H   H103      1.0  0.41048  0.71376  0.55709  1.0000
  H   H104      1.0  0.31176  0.68356  0.66584  1.0000
  H   H105      1.0  0.27147  0.72507  0.70389  1.0000
  C   C51       1.0  0.10990  0.51353  0.51094  1.0000
  C   C52       1.0  0.23704  0.57169  0.71451  1.0000
  H   H106      1.0  0.40521  0.64665  0.65290  1.0000
  C   C53       1.0  0.44410  0.74119  0.54756  1.0000
  C   C54       1.0  0.49079  0.71440  0.63760  1.0000
  C   C55       1.0  0.04589  0.62282  0.51561  1.0000
  C   C56       1.0  0.15443  0.59463  0.51618  1.0000
  N   N9        1.0  0.44360  0.75716  0.51433  1.0000
  C   C57       1.0  0.47454  0.51672  0.64756  1.0000
  C   C58       1.0  0.29799  0.59937  0.75044  1.0000
  H   H107      1.0  0.32894  0.60911  0.75362  1.0000
  H   H108      1.0  0.38720  0.74441  0.53043  1.0000
  C   C59       1.0  0.42139  0.77011  0.52028  1.0000
  C   C60       1.0  0.49670  0.90704  0.75552  1.0000
  Fe  Fe8       1.0  0.20031  0.55530  0.93408  1.0000
  S   S17       1.0  0.22469  0.61245  0.90988  1.0000
  N   N10       1.0  0.46518  0.72212  0.92457  1.0000
  Fe  Fe9       1.0  0.27415  0.56899  0.90009  1.0000
  H   H109      1.0  0.10721  0.59139  0.97411  1.0000
  S   S18       1.0  0.30221  0.54490  0.88486  1.0000
  Fe  Fe10      1.0  0.23667  0.59471  0.86134  1.0000
  S   S19       1.0  0.26580  0.58397  0.95243  1.0000
  S   S20       1.0  0.20617  0.53479  0.88400  1.0000
  C   C61       1.0  0.27966  0.60307  0.77800  1.0000
  C   C62       1.0  0.34846  0.56324  0.90673  1.0000
  C   C63       1.0  0.35978  0.58178  0.93903  1.0000
  C   C64       1.0  0.39618  0.59488  0.95635  1.0000
  C   C65       1.0  0.42173  0.59012  0.94109  1.0000
  C   C66       1.0  0.41062  0.57204  0.90862  1.0000
  C   C67       1.0  0.37390  0.55834  0.89165  1.0000
  H   H110      1.0  0.33985  0.58505  0.95104  1.0000
  H   H111      1.0  0.42974  0.56771  0.89690  1.0000
  C   C68       1.0  0.24141  0.51362  0.81023  1.0000
  S   S21       1.0  0.30512  0.62773  0.87428  1.0000
  C   C69       1.0  0.23993  0.59096  0.77399  1.0000
  H   H112      1.0  0.40532  0.66507  0.94622  1.0000
  Fe  Fe11      1.0  0.29044  0.63979  0.92502  1.0000
  S   S22       1.0  0.21770  0.59717  0.80777  1.0000
  S   S23       1.0  0.14349  0.51319  0.97279  1.0000
  S   S24       1.0  0.46744  0.60685  0.96270  1.0000
  H   H113      1.0  0.46345  0.74678  0.87769  1.0000
  H   H114      1.0  0.27409  0.54515  0.81307  1.0000
  C   C70       1.0  0.10143  0.56685  0.98614  1.0000
  H   H115      1.0  0.47659  0.71146  0.97538  1.0000
  H   H116      1.0  0.41232  0.78176  0.96653  1.0000
  H   H117      1.0  0.22055  0.51538  0.79613  1.0000
  H   H118      1.0  0.14178  0.57116  0.94831  1.0000
  H   H119      1.0  0.47551  0.88516  0.77780  1.0000
  C   C71       1.0  0.12114  0.55552  0.97157  1.0000
  S   S25       1.0  0.49251  0.55385  0.81212  1.0000
  C   C72       1.0  0.11460  0.52446  0.98743  1.0000
  H   H120      1.0  0.47170  0.77183  0.91692  1.0000
  C   C73       1.0  0.41730  0.69154  0.93031  1.0000
  H   H121      1.0  0.30691  0.51928  0.81380  1.0000
  H   H122      1.0  0.36517  0.54379  0.86681  1.0000
  H   H123      1.0  0.40448  0.60857  0.98160  1.0000
  H   H124      1.0  0.46100  0.69141  0.88060  1.0000
  H   H125      1.0  0.29149  0.67539  0.76177  1.0000
  H   H126      1.0  0.39994  0.67994  0.90518  1.0000
  S   S26       1.0  0.33715  0.69801  0.95362  1.0000
  C   C74       1.0  0.37344  0.74026  0.92497  1.0000
  C   C75       1.0  0.36830  0.73620  0.88877  1.0000
  C   C76       1.0  0.39903  0.76995  0.86617  1.0000
  C   C77       1.0  0.43490  0.80777  0.87977  1.0000
  C   C78       1.0  0.43907  0.81201  0.91598  1.0000
  C   C79       1.0  0.40857  0.77830  0.93855  1.0000
  H   H127      1.0  0.34056  0.70721  0.87814  1.0000
  H   H128      1.0  0.39533  0.76661  0.83819  1.0000
  H   H129      1.0  0.46536  0.84146  0.92670  1.0000
  C   C80       1.0  0.47955  0.75667  0.90336  1.0000
  H   H130      1.0  0.22719  0.50132  0.83712  1.0000
  C   C81       1.0  0.48651  0.73667  0.95871  1.0000
  H   H131      1.0  0.40721  0.70454  0.94439  1.0000
  S   S27       1.0  0.47524  0.84918  0.85148  1.0000
  H   H132      1.0  0.29668  0.61587  0.80214  1.0000
  H   H133      1.0  0.29632  0.53674  0.75661  1.0000
  C   C82       1.0  0.47731  0.70361  0.90610  1.0000
  H   H134      1.0  0.47832  0.75104  0.97330  1.0000
  H   H135      1.0  0.46787  0.67804  0.92180  1.0000
  H   H136      1.0  0.48839  0.54426  0.99039  1.0000
  H   H137      1.0  0.27381  0.70017  0.76086  1.0000
  H   H138      1.0  0.21069  0.60395  0.98471  1.0000
  H   H139      1.0  0.19789  0.63196  0.99456  1.0000
  C   C83       1.0  0.22263  0.63118  0.99798  1.0000
  H   H140      1.0  0.25316  0.65840  0.98395  1.0000
  C   C84       1.0  0.26312  0.50522  0.75617  1.0000
  Fe  Fe12      1.0  0.60734  0.15925  0.12012  1.0000
  S   S28       1.0  0.59950  0.16895  0.06485  1.0000
  S   S29       1.0  0.54875  0.12019  0.15670  1.0000
  Fe  Fe13      1.0  0.70150  0.20550  0.10757  1.0000
  S   S30       1.0  0.75602  0.21945  0.13493  1.0000
  Fe  Fe14      1.0  0.66455  0.23253  0.07074  1.0000
  H   H141      1.0  0.83769  0.25266  0.15668  1.0000
  Fe  Fe15      1.0  0.63623  0.15338  0.04998  1.0000
  S   S31       1.0  0.66970  0.22439  0.12767  1.0000
  S   S32       1.0  0.63942  0.13933  0.10517  1.0000
  S   S33       1.0  0.68144  0.28679  0.04693  1.0000
  C   C85       1.0  0.61537  0.30008  0.10829  1.0000
  C   C86       1.0  0.63118  0.28479  0.09413  1.0000
  C   C87       1.0  0.66205  0.30573  0.06647  1.0000
  H   H142      1.0  0.73286  0.16253  0.24262  1.0000
  H   H143      1.0  0.64758  0.09031  0.04512  1.0000
  C   C88       1.0  0.81287  0.30258  0.12602  1.0000
  H   H144      1.0  0.57584  0.16574  0.21984  1.0000
  H   H145      1.0  0.78550  0.29671  0.11673  1.0000
  C   C89       1.0  0.80694  0.27007  0.13623  1.0000
  H   H146      1.0  0.65236  0.04132  0.03463  1.0000
  H   H147      1.0  0.59103  0.28344  0.12933  1.0000
  H   H148      1.0  0.55492  0.32292  0.23617  1.0000
  C   C90       1.0  0.56012  0.11438  0.19855  1.0000
  H   H149      1.0  0.91032  0.32303  0.16065  1.0000
  C   C91       1.0  0.57240  0.14086  0.22524  1.0000
  N   N11       1.0  0.70987  0.19045  0.23786  1.0000
  C   C92       1.0  0.88322  0.31749  0.15107  1.0000
  C   C93       1.0  0.88944  0.35010  0.14104  1.0000
  H   H150      1.0  0.65882  0.12841  0.22228  1.0000
  S   S34       1.0  0.70154  0.21846  0.05093  1.0000
  C   C94       1.0  0.53660  0.04571  0.09058  1.0000
  C   C95       1.0  0.84211  0.27769  0.14887  1.0000
  S   S35       1.0  0.60915  0.35427  0.11305  1.0000
  C   C96       1.0  0.61987  0.39573  0.20404  1.0000
  N   N12       1.0  0.60866  0.38731  0.24191  1.0000
  C   C97       1.0  0.63379  0.07230  0.02194  1.0000
  H   H151      1.0  0.68731  0.16533  0.18673  1.0000
  H   H152      1.0  0.67384  0.38582  0.05752  1.0000
  H   H153      1.0  0.51342  0.08532  0.08475  1.0000
  H   H154      1.0  0.61896  0.25651  0.10424  1.0000
  H   H155      1.0  0.59023  0.37488  0.18793  1.0000
  H   H156      1.0  0.94257  0.38000  0.22820  1.0000
  H   H157      1.0  0.63691  0.42725  0.19655  1.0000
  H   H158      1.0  0.54493  0.06103  0.18540  1.0000
  C   C98       1.0  0.63650  0.04454  0.01590  1.0000
  C   C99       1.0  0.58566  0.34515  0.25076  1.0000
  N   N13       1.0  0.80782  0.35376  0.02597  1.0000
  H   H159      1.0  0.54585  0.06484  0.11338  1.0000
  C   C100      1.0  0.67473  0.15938  0.21412  1.0000
  Fe  Fe16      1.0  0.65838  0.48484  0.13302  1.0000
  S   S36       1.0  0.60685  0.47519  0.00892  1.0000
  H   H160      1.0  0.82049  0.40560  0.01027  1.0000
  S   S37       1.0  0.91067  0.45882  0.15003  1.0000
  S   S38       1.0  0.83924  0.44370  0.08199  1.0000
  Fe  Fe17      1.0  0.95012  0.45000  0.12587  1.0000
  S   S39       1.0  0.94109  0.39941  0.14645  1.0000
  H   H161      1.0  0.59619  0.42416  0.24375  1.0000
  C   C101      1.0  0.77366  0.47457  0.07416  1.0000
  S   S40       1.0  0.60097  0.43198  0.10314  1.0000
  C   C102      1.0  0.74520  0.19236  0.23542  1.0000
  S   S41       1.0  0.67025  0.45189  0.04609  1.0000
  H   H162      1.0  0.60629  0.33994  0.24422  1.0000
  Fe  Fe18      1.0  0.63923  0.41659  0.09696  1.0000
  S   S42       1.0  0.69447  0.46725  0.12964  1.0000
  C   C103      1.0  0.92083  0.42044  0.22826  1.0000
  H   H163      1.0  0.75876  0.42056  0.08485  1.0000
  H   H164      1.0  0.77147  0.35897  0.05858  1.0000
  H   H165      1.0  0.86456  0.41747  0.03128  1.0000
  C   C104      1.0  0.85426  0.34277  0.12853  1.0000
  C   C105      1.0  0.63057  0.33654  0.09516  1.0000
  H   H166      1.0  0.74004  0.45903  0.07723  1.0000
  C   C106      1.0  0.56162  0.07551  0.23947  1.0000
  C   C107      1.0  0.78432  0.45276  0.07849  1.0000
  S   S43       1.0  0.94029  0.45856  0.07093  1.0000
  H   H167      1.0  0.81023  0.31090  0.04022  1.0000
  H   H168      1.0  0.55711  0.05000  0.24492  1.0000
  H   H169      1.0  0.64890  0.15891  0.21366  1.0000
  H   H170      1.0  0.54903  0.37159  0.23663  1.0000
  H   H171      1.0  0.88679  0.34602  0.21629  1.0000
  C   C108      1.0  0.67749  0.34233  0.05351  1.0000
  Fe  Fe19      1.0  0.90648  0.47376  0.09580  1.0000
  H   H172      1.0  0.70120  0.22967  0.22882  1.0000
  H   H173      1.0  0.85890  0.36270  0.04887  1.0000
  H   H174      1.0  0.81384  0.36806  0.08025  1.0000
  C   C109      1.0  0.90897  0.36235  0.23866  1.0000
  H   H175      1.0  0.79765  0.48512  0.19550  1.0000
  C   C110      1.0  0.66196  0.35778  0.06787  1.0000
  H   H176      1.0  0.70146  0.35878  0.03220  1.0000
  H   H177      1.0  0.95479  0.43864  0.21844  1.0000
  H   H178      1.0  0.53206  0.02034  0.10001  1.0000
  C   C111      1.0  0.83206  0.34273  0.03005  1.0000
  C   C112      1.0  0.72729  0.23035  0.22762  1.0000
  Fe  Fe20      1.0  0.63794  0.47323  0.05544  1.0000
  H   H179      1.0  0.76404  0.31721  0.07012  1.0000
  C   C113      1.0  0.78852  0.34925  0.06023  1.0000
  H   H180      1.0  0.74099  0.23943  0.20033  1.0000
  H   H181      1.0  0.89985  0.40650  0.20500  1.0000
  C   C114      1.0  0.55487  0.08181  0.20574  1.0000
  C   C115      1.0  0.82775  0.47241  0.07520  1.0000
  H   H182      1.0  0.85893  0.36801  0.12117  1.0000
  H   H183      1.0  0.64155  0.39207  0.19606  1.0000
  H   H184      1.0  0.77211  0.21526  0.25322  1.0000
  H   H185      1.0  0.75944  0.20070  0.20832  1.0000
  H   H186      1.0  0.56469  0.06433  0.07143  1.0000
  H   H187      1.0  0.75358  0.25443  0.24519  1.0000
  H   H188      1.0  0.83261  0.47679  0.15135  1.0000
  C   C116      1.0  0.58013  0.39289  0.25089  1.0000
  H   H189      1.0  0.53154  0.08459  0.04254  1.0000
  H   H190      1.0  0.87262  0.49131  0.18189  1.0000
  C   C117      1.0  0.83781  0.39624  0.01292  1.0000
  H   H191      1.0  0.51323  0.02405  0.02420  1.0000
  H   H192      1.0  0.74876  0.29463  0.00992  1.0000
  H   H193      1.0  0.83861  0.35065  0.24302  1.0000
  H   H194      1.0  0.92026  0.44196  0.23923  1.0000
  C   C118      1.0  0.50450  0.06552  0.06262  1.0000
  N   N14       1.0  0.90626  0.38915  0.25445  1.0000
  Fe  Fe21      1.0  0.62415  0.19540  0.39788  1.0000
  S   S44       1.0  0.65235  0.20408  0.34447  1.0000
  S   S45       1.0  0.60523  0.22414  0.42467  1.0000
  Fe  Fe22      1.0  0.63797  0.14357  0.42654  1.0000
  S   S46       1.0  0.66850  0.14873  0.37586  1.0000
  H   H195      1.0  0.58839  0.15480  0.27975  1.0000
  Fe  Fe23      1.0  0.70376  0.21395  0.37321  1.0000
  S   S47       1.0  0.77296  0.26450  0.35209  1.0000
  Fe  Fe24      1.0  0.61509  0.13830  0.35023  1.0000
  S   S48       1.0  0.58255  0.09255  0.30778  1.0000
  S   S49       1.0  0.67852  0.21030  0.42612  1.0000
  H   H196      1.0  0.64168  0.41034  0.29079  1.0000
  H   H197      1.0  0.61420  0.29601  0.32340  1.0000
  C   C119      1.0  0.52297  0.13485  0.47546  1.0000
  C   C120      1.0  0.81686  0.32189  0.44396  1.0000
  C   C121      1.0  0.84440  0.34104  0.37366  1.0000
  H   H198      1.0  0.63511  0.07082  0.43480  1.0000
  C   C122      1.0  0.62732  0.05834  0.46117  1.0000
  S   S50       1.0  0.58166  0.12815  0.40104  1.0000
  S   S51       1.0  0.93437  0.48033  0.38866  1.0000
  H   H199      1.0  0.82571  0.47689  0.48847  1.0000
  C   C123      1.0  0.80602  0.30125  0.38381  1.0000
  H   H200      1.0  0.76576  0.26053  0.42754  1.0000
  H   H201      1.0  0.71795  0.20216  0.29302  1.0000
  H   H202      1.0  0.96929  0.42735  0.27748  1.0000
  C   C124      1.0  0.79332  0.29153  0.41915  1.0000
  H   H203      1.0  0.84795  0.33998  0.28453  1.0000
  C   C125      1.0  0.61097  0.26154  0.40368  1.0000
  C   C126      1.0  0.61260  0.26547  0.36724  1.0000
  C   C127      1.0  0.61449  0.29406  0.35157  1.0000
  H   H204      1.0  0.61086  0.24555  0.35115  1.0000
  C   C128      1.0  0.61284  0.28733  0.42425  1.0000
  C   C129      1.0  0.62365  0.02647  0.46860  1.0000
  H   H205      1.0  0.61141  0.28438  0.45244  1.0000
  H   H206      1.0  0.76162  0.42338  0.42425  1.0000
  H   H207      1.0  0.85766  0.38401  0.27868  1.0000
  H   H208      1.0  0.80617  0.31430  0.47117  1.0000
  H   H209      1.0  0.67776  0.14930  0.28268  1.0000
  C   C130      1.0  0.93460  0.40890  0.28501  1.0000
  H   H210      1.0  0.62874  0.01468  0.44776  1.0000
  S   S52       1.0  0.61011  0.47321  0.45424  1.0000
  H   H211      1.0  0.92443  0.38629  0.30549  1.0000
  C   C131      1.0  0.72269  0.34651  0.42254  1.0000
  S   S53       1.0  0.62582  0.11444  0.48003  1.0000
  H   H212      1.0  0.57711  0.33805  0.27927  1.0000
  S   S54       1.0  0.76326  0.47815  0.46945  1.0000
  H   H213      1.0  0.53216  0.13442  0.44834  1.0000
  H   H214      1.0  0.82746  0.42185  0.44870  1.0000
  C   C132      1.0  0.53080  0.09180  0.49753  1.0000
  H   H215      1.0  0.93378  0.42977  0.29733  1.0000
  H   H216      1.0  0.85498  0.34862  0.34655  1.0000
  C   C133      1.0  0.57944  0.13466  0.25911  1.0000
  C   C134      1.0  0.61620  0.31975  0.37218  1.0000
  H   H217      1.0  0.77393  0.36915  0.36590  1.0000
  Fe  Fe25      1.0  0.64862  0.41124  0.38045  1.0000
  S   S55       1.0  0.72127  0.45747  0.37451  1.0000
  H   H218      1.0  0.70527  0.33793  0.39760  1.0000
  Fe  Fe26      1.0  0.65156  0.47081  0.41957  1.0000
  C   C135      1.0  0.62101  0.07398  0.48786  1.0000
  S   S56       1.0  0.64320  0.45353  0.36291  1.0000
  S   S57       1.0  0.64947  0.42319  0.43724  1.0000
  Fe  Fe27      1.0  0.93856  0.46096  0.44064  1.0000
  S   S58       1.0  0.88053  0.40011  0.46438  1.0000
  H   H219      1.0  0.76006  0.41075  0.37994  1.0000
  H   H220      1.0  0.53291  0.16418  0.47764  1.0000
  H   H221      1.0  0.70709  0.35081  0.44194  1.0000
  C   C136      1.0  0.85410  0.36195  0.43363  1.0000
  H   H222      1.0  0.61723  0.33626  0.42468  1.0000
  H   H223      1.0  0.77812  0.39965  0.47170  1.0000
  H   H224      1.0  0.60271  0.16415  0.47018  1.0000
  Fe  Fe28      1.0  0.72209  0.47284  0.42959  1.0000
  S   S59       1.0  0.61597  0.35371  0.35199  1.0000
  H   H225      1.0  0.78800  0.36925  0.46150  1.0000
  C   C137      1.0  0.86867  0.37130  0.39863  1.0000
  H   H226      1.0  0.89834  0.40180  0.39069  1.0000
  C   C138      1.0  0.77608  0.41746  0.40530  1.0000
  H   H227      1.0  0.71650  0.32012  0.43182  1.0000
  N   N15       1.0  0.76990  0.38362  0.41776  1.0000
  H   H228      1.0  0.78403  0.35048  0.40021  1.0000
  H   H229      1.0  0.57196  0.38790  0.27944  1.0000
  H   H230      1.0  0.81134  0.44618  0.40165  1.0000
  C   C139      1.0  0.61628  0.31683  0.40858  1.0000
  C   C140      1.0  0.78906  0.37643  0.39180  1.0000
  C   C141      1.0  0.79171  0.39400  0.45143  1.0000
  H   H231      1.0  0.82492  0.40346  0.38824  1.0000
  H   H232      1.0  0.54000  0.08985  0.47106  1.0000
  C   C142      1.0  0.64899  0.41555  0.26208  1.0000
  H   H233      1.0  0.69422  0.49158  0.49325  1.0000
  C   C143      1.0  0.59235  0.16459  0.49659  1.0000
  H   H234      1.0  0.66594  0.17856  0.27704  1.0000
  C   C144      1.0  0.57388  0.10181  0.26622  1.0000
  C   C145      1.0  0.69224  0.17972  0.27421  1.0000
  C   C146      1.0  0.86059  0.36487  0.26569  1.0000
  N   N16       1.0  0.54447  0.13083  0.50169  1.0000
  C   C147      1.0  0.61334  0.00970  0.50265  1.0000
  H   H235      1.0  0.89987  0.33924  0.25792  1.0000
  H   H236      1.0  0.60400  0.19467  0.49887  1.0000
  H   H237      1.0  0.67126  0.41209  0.25624  1.0000
  H   H238      1.0  0.66724  0.44759  0.25598  1.0000
  H   H239      1.0  0.69538  0.03595  0.60450  1.0000
  H   H240      1.0  0.73819  0.10557  0.52769  1.0000
  C   C148      1.0  0.60687  0.02524  0.52936  1.0000
  H   H241      1.0  0.60989  0.16256  0.51565  1.0000
  H   H242      1.0  0.54775  0.12935  0.55753  1.0000
  H   H243      1.0  0.80349  0.10542  0.55857  1.0000
  C   C149      1.0  0.72378  0.03076  0.71893  1.0000
  N   N17       1.0  0.73364  0.06287  0.55651  1.0000
  C   C150      1.0  0.69701  0.04882  0.57903  1.0000
  C   C151      1.0  0.53194  0.13222  0.53718  1.0000
  C   C152      1.0  0.72754  0.02824  0.54922  1.0000
  H   H244      1.0  0.54701  0.08810  0.51655  1.0000
  C   C153      1.0  0.77506  0.09420  0.57471  1.0000
  H   H245      1.0  0.54199  0.16140  0.54111  1.0000
  H   H246      1.0  0.69996  0.07390  0.58467  1.0000
  H   H247      1.0  0.78062  0.12073  0.58072  1.0000
  H   H248      1.0  0.77488  0.08190  0.59995  1.0000
  H   H249      1.0  0.60589  0.06921  0.54279  1.0000
  C   C154      1.0  0.73471  0.07997  0.52323  1.0000
  C   C155      1.0  0.72222  0.03439  0.75501  1.0000
  H   H250      1.0  0.74891  0.05756  0.70274  1.0000
  H   H251      1.0  0.59868  0.01252  0.55564  1.0000
  H   H252      1.0  0.66529  0.02473  0.56628  1.0000
  C   C156      1.0  0.61086  0.05732  0.52197  1.0000
  H   H253      1.0  0.75491  0.03771  0.53277  1.0000
  H   H254      1.0  0.72549  0.01394  0.57387  1.0000
  H   H255      1.0  0.70400  0.05668  0.50878  1.0000
  H   H256      1.0  0.69689  0.00435  0.53491  1.0000
  H   H257      1.0  0.76220  0.09126  0.50565  1.0000
  C   C157      1.0  0.69289  0.99285  0.70368  1.0000
  H   H258      1.0  0.56952  0.48071  0.50764  1.0000
  H   H259      1.0  0.73584  0.03744  0.89230  1.0000
  H   H260      1.0  0.85295  0.40090  0.98707  1.0000
  H   H261      1.0  0.71873  0.06844  0.97301  1.0000
  N   N18       1.0  0.73790  0.07910  0.91851  1.0000
  C   C158      1.0  0.73402  0.06354  0.95387  1.0000
  S   S60       1.0  0.68963  0.00709  0.82153  1.0000
  H   H262      1.0  0.75971  0.08149  0.86672  1.0000
  H   H263      1.0  0.71297  0.03025  0.95410  1.0000
  H   H264      1.0  0.67947  0.06569  0.92436  1.0000
  C   C159      1.0  0.76642  0.12332  0.91941  1.0000
  H   H265      1.0  0.78974  0.08521  0.90160  1.0000
  H   H266      1.0  0.75301  0.13061  0.93796  1.0000
  H   H267      1.0  0.76637  0.07843  0.96378  1.0000
  C   C160      1.0  0.69419  0.05890  0.90699  1.0000
  C   C161      1.0  0.75678  0.07060  0.89378  1.0000
  H   H268      1.0  0.76971  0.13592  0.89317  1.0000
  C   C162      1.0  0.59553  0.05295  0.96798  1.0000
  H   H269      1.0  0.69532  0.06823  0.87974  1.0000
  H   H270      1.0  0.58453  0.00721  0.93874  1.0000
  H   H271      1.0  0.79978  0.13961  0.92790  1.0000
  H   H272      1.0  0.67144  0.02546  0.90767  1.0000
  C   C163      1.0  0.59837  0.02529  0.96187  1.0000
  H   H273      1.0  0.57951  0.05606  0.94933  1.0000
  C   C164      1.0  0.61883  0.02092  0.98589  1.0000
  H   H274      1.0  0.75409  0.33474  0.99708  1.0000
  C   C165      1.0  0.69029  0.00007  0.77645  1.0000
  H   H275      1.0  0.78601  0.32910  0.97466  1.0000
  H   H276      1.0  0.56312  0.47929  0.95675  1.0000
  H   H277      1.0  0.67065  0.47777  0.97183  1.0000
  H   H278      1.0  0.74606  0.06400  0.76636  1.0000
  C   C166      1.0  0.77277  0.32690  0.00070  1.0000
  C   C167      1.0  0.61324  0.07660  0.99798  1.0000
  H   H279      1.0  0.69177  0.49032  0.92763  1.0000
  S   S61       1.0  0.60813  0.11042  0.00467  1.0000
  H   H280      1.0  0.84703  0.34559  0.00477  1.0000
  H   H281      1.0  0.57844  0.59891  0.07352  1.0000
  S   S62       1.0  0.79294  0.54362  0.06225  1.0000
  H   H282      1.0  0.56784  0.63803  0.04091  1.0000
  H   H283      1.0  0.82997  0.53144  0.21885  1.0000
  S   S63       1.0  0.69268  0.52746  0.08612  1.0000
  H   H284      1.0  0.83586  0.49771  0.22698  1.0000
  H   H285      1.0  0.88968  0.51800  0.14071  1.0000
  H   H286      1.0  0.54872  0.54806  0.06100  1.0000
  C   C168      1.0  0.86488  0.50317  0.16245  1.0000
  H   H287      1.0  0.91517  0.55448  0.21458  1.0000
  C   C169      1.0  0.80631  0.51611  0.06592  1.0000
  C   C170      1.0  0.84981  0.53578  0.06190  1.0000
  C   C171      1.0  0.86064  0.51402  0.06694  1.0000
  H   H288      1.0  0.87518  0.56794  0.05545  1.0000
  H   H289      1.0  0.89422  0.52929  0.06403  1.0000
  H   H290      1.0  0.72795  0.52585  0.18783  1.0000
  H   H291      1.0  0.91000  0.58850  0.20489  1.0000
  H   H292      1.0  0.88210  0.56480  0.13003  1.0000
  C   C172      1.0  0.85649  0.54811  0.15126  1.0000
  H   H293      1.0  0.77335  0.54378  0.23882  1.0000
  H   H294      1.0  0.59126  0.59041  0.03279  1.0000
  C   C173      1.0  0.56386  0.57828  0.05105  1.0000
  C   C174      1.0  0.67623  0.51047  0.21914  1.0000
  C   C175      1.0  0.55388  0.61605  0.01962  1.0000
  H   H295      1.0  0.82448  0.52336  0.13894  1.0000
  C   C176      1.0  0.90812  0.56559  0.19346  1.0000
  C   C177      1.0  0.71647  0.52337  0.21398  1.0000
  S   S64       1.0  0.96644  0.54016  0.09910  1.0000
  H   H296      1.0  0.85569  0.56945  0.16230  1.0000
  C   C178      1.0  0.83061  0.51057  0.20617  1.0000
  S   S65       1.0  0.98121  0.55362  0.20111  1.0000
  N   N19       1.0  0.86502  0.53187  0.17834  1.0000
  N   N20       1.0  0.53180  0.57546  0.03338  1.0000
  Fe  Fe29      1.0  0.97373  0.52409  0.15166  1.0000
  H   H297      1.0  0.66124  0.55832  0.03244  1.0000
  H   H298      1.0  0.93503  0.58141  0.17339  1.0000
  Fe  Fe30      1.0  0.72282  0.50391  0.07940  1.0000
  H   H299      1.0  0.50961  0.58084  0.08092  1.0000
  C   C179      1.0  0.74217  0.53365  0.24279  1.0000
  C   C180      1.0  0.99486  0.54051  0.23656  1.0000
  H   H300      1.0  0.66963  0.61377  0.01065  1.0000
  H   H301      1.0  0.70881  0.53007  0.01525  1.0000
  S   S66       1.0  0.64213  0.49544  0.18409  1.0000
  C   C181      1.0  0.64150  0.55296  0.01131  1.0000
  C   C182      1.0  0.66197  0.50816  0.25304  1.0000
  H   H302      1.0  0.76149  0.58013  0.00611  1.0000
  S   S67       1.0  0.72501  0.52124  0.41524  1.0000
  H   H303      1.0  0.67899  0.61428  0.44570  1.0000
  C   C183      1.0  0.98713  0.54472  0.27081  1.0000
  S   S68       1.0  0.75802  0.54010  0.31276  1.0000
  H   H304      1.0  0.81399  0.53613  0.41168  1.0000
  H   H305      1.0  0.98996  0.53598  0.32562  1.0000
  C   C184      1.0  0.81516  0.50429  0.45183  1.0000
  C   C185      1.0  0.83246  0.53107  0.42310  1.0000
  H   H306      1.0  0.70168  0.54529  0.47008  1.0000
  C   C186      1.0  0.72715  0.53004  0.27680  1.0000
  C   C187      1.0  0.83912  0.49769  0.46630  1.0000
  H   H307      1.0  0.88784  0.57329  0.38758  1.0000
  H   H308      1.0  0.97363  0.55681  0.27536  1.0000
  C   C188      1.0  0.87422  0.55205  0.40945  1.0000
  C   C189      1.0  0.89802  0.54514  0.42364  1.0000
  C   C190      1.0  0.88011  0.51746  0.45177  1.0000
  Fe  Fe31      1.0  0.96923  0.53873  0.41477  1.0000
  H   H309      1.0  0.72365  0.58770  0.49574  1.0000
  S   S69       1.0  0.95053  0.57212  0.40666  1.0000
  H   H310      1.0  0.50670  0.78334  0.49726  1.0000
  Fe  Fe32      1.0  0.71655  0.50063  0.36017  1.0000
  S   S70       1.0  0.96788  0.51739  0.46785  1.0000
  C   C191      1.0  0.64859  0.55261  0.44819  1.0000
  C   C192      1.0  0.65522  0.58519  0.45944  1.0000
  H   H311      1.0  0.66716  0.55681  0.42595  1.0000
  C   C193      1.0  0.63111  0.58041  0.48804  1.0000
  H   H312      1.0  0.96807  0.57969  0.48664  1.0000
  H   H313      1.0  0.75900  0.58404  0.47725  1.0000
  H   H314      1.0  0.89803  0.51174  0.46282  1.0000
  S   S71       1.0  0.64154  0.62288  0.50137  1.0000
  C   C194      1.0  0.61794  0.51478  0.46566  1.0000
  C   C195      1.0  0.68709  0.51741  0.28184  1.0000
  H   H315      1.0  0.67580  0.51548  0.30791  1.0000
  C   C196      1.0  0.72636  0.56632  0.48985  1.0000
  H   H316      1.0  0.75214  0.52925  0.49852  1.0000
  C   C197      1.0  0.60016  0.54247  0.50532  1.0000
  H   H317      1.0  0.97616  0.62140  0.47396  1.0000
  C   C198      1.0  0.99635  0.53286  0.29930  1.0000
  C   C199      1.0  0.59357  0.50989  0.49410  1.0000
  C   C200      1.0  0.98637  0.61144  0.49303  1.0000
  H   H318      1.0  0.63114  0.49871  0.25709  1.0000
  Fe  Fe33      1.0  0.60790  0.62619  0.54514  1.0000
  S   S72       1.0  0.55359  0.57325  0.57993  1.0000
  C   C201      1.0  0.57379  0.59028  0.71289  1.0000
  Fe  Fe34      1.0  0.59065  0.61604  0.62419  1.0000
  H   H319      1.0  0.52619  0.68584  0.62487  1.0000
  S   S73       1.0  0.57634  0.64870  0.53712  1.0000
  C   C202      1.0  0.64849  0.69810  0.72415  1.0000
  S   S74       1.0  0.55755  0.63652  0.62275  1.0000
  H   H320      1.0  0.78678  0.58927  0.53489  1.0000
  C   C203      1.0  0.75389  0.57243  0.54647  1.0000
  C   C204      1.0  0.53991  0.58790  0.71253  1.0000
  H   H321      1.0  0.50980  0.54534  0.64852  1.0000
  S   S75       1.0  0.60225  0.59933  0.67430  1.0000
  N   N21       1.0  0.53993  0.92158  0.75539  1.0000
  H   H322      1.0  0.67785  0.77049  0.73647  1.0000
  H   H323      1.0  0.61963  0.73282  0.73227  1.0000
  N   N22       1.0  0.71923  0.54367  0.52150  1.0000
  Fe  Fe35      1.0  0.52503  0.59849  0.57553  1.0000
  S   S76       1.0  0.69644  0.99034  0.65807  1.0000
  H   H324      1.0  0.52812  0.50833  0.63200  1.0000
  H   H325      1.0  0.64783  0.67419  0.72897  1.0000
  C   C205      1.0  0.64626  0.74357  0.74965  1.0000
  H   H326      1.0  0.64918  0.49857  0.52024  1.0000
  H   H327      1.0  0.60021  0.96250  0.72510  1.0000
  H   H328      1.0  0.55216  0.93562  0.70014  1.0000
  C   C206      1.0  0.66081  0.95819  0.72499  1.0000
  H   H329      1.0  0.62143  0.68528  0.70627  1.0000
  H   H330      1.0  0.74956  0.55642  0.57073  1.0000
  C   C207      1.0  0.58394  0.58324  0.74434  1.0000
  C   C208      1.0  0.53403  0.88652  0.75225  1.0000
  Fe  Fe36      1.0  0.59496  0.93776  0.56261  1.0000
  S   S77       1.0  0.59738  0.95766  0.61636  1.0000
  Fe  Fe37      1.0  0.57334  0.86296  0.59139  1.0000
  S   S78       1.0  0.57503  0.87756  0.64757  1.0000
  S   S79       1.0  0.54882  0.80409  0.57277  1.0000
  Fe  Fe38      1.0  0.53856  0.89185  0.62893  1.0000
  Fe  Fe39      1.0  0.63395  0.94202  0.63022  1.0000
  C   C209      1.0  0.58184  0.74222  0.56914  1.0000
  H   H331      1.0  0.52647  0.73690  0.64238  1.0000
  S   S80       1.0  0.61104  0.97083  0.51072  1.0000
  Fe  Fe40      1.0  0.61119  0.68526  0.58521  1.0000
  C   C210      1.0  0.67613  0.52189  0.53782  1.0000
  S   S81       1.0  0.64375  0.74836  0.59909  1.0000
  H   H332      1.0  0.56956  0.71508  0.55705  1.0000
  H   H333      1.0  0.63757  0.92867  0.71344  1.0000
  S   S82       1.0  0.63583  0.92634  0.57550  1.0000
  H   H334      1.0  0.57136  0.97672  0.72667  1.0000
  S   S83       1.0  0.53219  0.87280  0.57401  1.0000
  C   C211      1.0  0.56153  0.75529  0.56337  1.0000
  H   H335      1.0  0.71591  0.49669  0.53487  1.0000
  H   H336      1.0  0.75375  0.59520  0.55412  1.0000
  H   H337      1.0  0.61013  0.58505  0.74478  1.0000
  C   C212      1.0  0.57733  0.79060  0.57876  1.0000
  C   C213      1.0  0.61378  0.81296  0.59980  1.0000
  C   C214      1.0  0.63416  0.79992  0.60549  1.0000
  C   C215      1.0  0.61813  0.76441  0.59038  1.0000
  H   H338      1.0  0.67288  0.54291  0.54356  1.0000
  S   S84       1.0  0.64742  0.66760  0.59008  1.0000
  H   H339      1.0  0.62620  0.84018  0.61178  1.0000
  H   H340      1.0  0.66242  0.81736  0.62176  1.0000
  H   H341      1.0  0.53342  0.73789  0.54693  1.0000
  H   H342      1.0  0.67967  0.72380  0.70974  1.0000
  C   C216      1.0  0.56708  0.95038  0.72554  1.0000
  H   H343      1.0  0.53231  0.59404  0.68869  1.0000
  H   H344      1.0  0.58121  0.53824  0.52720  1.0000
  H   H345      1.0  0.50918  0.68679  0.68605  1.0000
  H   H346      1.0  0.51710  0.86998  0.72779  1.0000
  C   C217      1.0  0.51486  0.57646  0.74310  1.0000
  H   H347      1.0  0.67035  0.50585  0.56259  1.0000
  C   C218      1.0  0.72050  0.51408  0.51171  1.0000
  H   H348      1.0  0.97522  0.61075  0.51961  1.0000
  H   H349      1.0  0.51691  0.51084  0.69371  1.0000
  H   H350      1.0  0.50793  0.81676  0.52066  1.0000
  H   H351      1.0  0.56587  0.89621  0.75157  1.0000
  H   H352      1.0  0.52267  0.75988  0.95537  1.0000
  S   S85       1.0  0.52200  0.63414  0.86972  1.0000
  S   S86       1.0  0.62782  0.61881  0.95740  1.0000
  S   S87       1.0  0.62387  0.98702  0.97939  1.0000
  C   C219      1.0  0.62053  0.57798  0.97165  1.0000
  C   C220      1.0  0.75843  0.57075  0.93560  1.0000
  C   C221      1.0  0.59019  0.53974  0.95683  1.0000
  H   H353      1.0  0.79150  0.59873  0.94425  1.0000
  H   H354      1.0  0.57031  0.53433  0.93581  1.0000
  Fe  Fe41      1.0  0.58762  0.62005  0.92063  1.0000
  Fe  Fe42      1.0  0.52952  0.59256  0.85881  1.0000
  S   S88       1.0  0.51489  0.56896  0.91448  1.0000
  H   H355      1.0  0.74117  0.57932  0.92798  1.0000
  C   C222      1.0  0.68995  0.50254  0.95137  1.0000
  C   C223      1.0  0.52490  0.56921  0.77447  1.0000
  H   H356      1.0  0.56759  0.56740  0.79936  1.0000
  C   C224      1.0  0.60190  0.67634  0.77482  1.0000
  H   H357      1.0  0.67921  0.70304  0.78691  1.0000
  C   C225      1.0  0.61181  0.51495  0.99603  1.0000
  H   H358      1.0  0.79073  0.55493  0.98268  1.0000
  Fe  Fe43      1.0  0.51415  0.61539  0.92562  1.0000
  C   C226      1.0  0.55988  0.57319  0.77519  1.0000
  C   C227      1.0  0.51289  0.54724  0.00421  1.0000
  S   S89       1.0  0.60249  0.64052  0.86359  1.0000
  H   H359      1.0  0.60008  0.65220  0.78225  1.0000
  H   H360      1.0  0.76269  0.56037  0.91177  1.0000
  H   H361      1.0  0.53857  0.55798  0.98459  1.0000
  H   H362      1.0  0.63610  0.93503  0.77811  1.0000
  H   H363      1.0  0.51425  0.86458  0.77476  1.0000
  N   N23       1.0  0.73386  0.53892  0.96358  1.0000
  H   H364      1.0  0.49967  0.93254  0.75797  1.0000
  H   H365      1.0  0.76164  0.51646  0.95019  1.0000
  H   H366      1.0  0.59422  0.95325  0.78957  1.0000
  H   H367      1.0  0.71310  0.56409  0.98834  1.0000
  H   H368      1.0  0.67061  0.50925  0.94523  1.0000
  S   S90       1.0  0.62999  0.74183  0.85282  1.0000
  C   C228      1.0  0.65987  0.96177  0.76150  1.0000
  Fe  Fe44      1.0  0.63670  0.95533  0.85821  1.0000
  Fe  Fe45      1.0  0.54078  0.88874  0.87615  1.0000
  S   S91       1.0  0.55171  0.88109  0.93113  1.0000
  S   S92       1.0  0.65540  0.95216  0.91146  1.0000
  Fe  Fe46      1.0  0.60449  0.94922  0.93159  1.0000
  Fe  Fe47      1.0  0.60134  0.88465  0.90639  1.0000
  S   S93       1.0  0.59969  0.83938  0.93073  1.0000
  S   S94       1.0  0.58907  0.95653  0.87853  1.0000
  S   S95       1.0  0.58710  0.88803  0.85112  1.0000
  H   H369      1.0  0.67778  0.73700  0.80552  1.0000
  C   C229      1.0  0.62079  0.76866  0.87381  1.0000
  C   C230      1.0  0.62886  0.79986  0.85581  1.0000
  C   C231      1.0  0.62200  0.82163  0.87263  1.0000
  C   C232      1.0  0.60812  0.81289  0.90779  1.0000
  C   C233      1.0  0.60033  0.78188  0.92569  1.0000
  C   C234      1.0  0.60595  0.75946  0.90866  1.0000
  H   H370      1.0  0.64049  0.80725  0.82886  1.0000
  H   H371      1.0  0.62831  0.84564  0.85868  1.0000
  H   H372      1.0  0.59020  0.77528  0.95300  1.0000
  H   H373      1.0  0.59997  0.73580  0.92288  1.0000
  C   C235      1.0  0.72932  0.55420  0.99462  1.0000
  C   C236      1.0  0.75766  0.52828  0.97288  1.0000
  Fe  Fe48      1.0  0.59363  0.68073  0.87853  1.0000
  H   H374      1.0  0.59685  0.68532  0.79928  1.0000
  S   S96       1.0  0.58564  0.66520  0.93563  1.0000
  C   C237      1.0  0.58620  0.50857  0.96876  1.0000
  H   H375      1.0  0.51320  0.72612  0.90079  1.0000
  H   H376      1.0  0.64308  0.75404  0.77417  1.0000
  H   H377      1.0  0.56683  0.96891  0.79159  1.0000
  N   N24       1.0  0.64419  0.71122  0.75720  1.0000
  H   H378      1.0  0.51551  0.78014  0.89816  1.0000
  C   C238      1.0  0.56170  0.94222  0.78838  1.0000
  H   H379      1.0  0.54189  0.92140  0.81138  1.0000
  C   C239      1.0  0.64611  0.58434  0.99893  1.0000
  H   H380      1.0  0.74025  0.50460  0.99417  1.0000
  H   H381      1.0  0.57397  0.66271  0.75780  1.0000
  H   H382      1.0  0.58133  0.62872  0.00119  1.0000
  H   H383      1.0  0.71257  0.75318  0.76797  1.0000
  C   C240      1.0  0.68008  0.72682  0.78035  1.0000
  H   H384      1.0  0.53096  0.61495  0.00524  1.0000
