data_image0
_chemical_formula_structural       FeS2FeSFeSFeS3C3HCH3CHCH3CHC3H4NH3C2HC3HCHCHFeSFeS2FeSFeS3C2NCH2C3HC3H5CH6CH2CH2CH5CHCH2C2H2FeS2FeS2C6H4C2SH3CHCH2NHC4H3CH3FeHSH2C4H2FeHSH2SCHCH2CSNCH2CH2CHCH2S2HFeS2HS2C7H4C3H2NC2HC2H3CHCH3NHSHFeCH6CH4Fe2CSH3SHCH4C4H2C2HNH2SFeSCFeSFeSHSFeHSHCSH6CHCH2C6FeNH2C3H5SCH4NCH2C2SH4CHC2HCSHSHFeSHFeS2FeS2FeSHS2C2H4C6H4CH3CH6CH2NCH2FeNC3HSC2HCH2FeH4C2HCHFeH2SH3SFeS2FeSFeS2CFeH3CSH5CHNH4C2HC3HCH3C2H2CNC2HCH3NCHCSH2C3SHFeHCH2SC2FeS2FeS2Fe2S3C3HCHC2HC4H4CHSFeCHCH6SC2HNH3CH2CH2S2HCH4NH7CFe2C2HCH4C6H7C3H2CNH3CHCH2FeS2FeS2FeSFeS3C7HCH2C3H3C2H3CH3NHSC2SH5SHCH4CH5CHNCH5CH2NS2C7H3NHCHCH10CFeS2FeS2FeSFeS3HC6H4C2HC2H3C2H7CH2SHC3H4CH2NH2CH2CH7C2N2C4H11SFeS2FeS2FeSFeHS2CNC2H2C3SHC6H4NH3C3H5NCHCHSH7NHCHCH2CH2CH2CH8C2HCHSC6H14C2H2SFeS2FeS2FeSFeS3CH4CH2NH2C6H4NC4H19CH3NHNCH4CH5C2H7SCSC8H4NCHCH7CHC4H4CFeH3C2HFeS2FeCSFe3S2FeS2FeC6H2FeH2C2H4SHCHSH2C4HCHCH2CHCHCHNCH2CNCH2C2SCHCH2FeS2HSFeSFeS3FeHSCHSH2NC2HC6H5CH3C2H2SH2CHNH3C2H14FeS2FeS2FeS4C7H3C3SH6CHNHSH3FeCFeHSHCHCHCH2CHSC2HSFeS2FeSFeS3H2SHSH5NC7H3C2HCH2C3H3FeH2NFeH3CHCHC2H9C2HFeH3FeCS2CSH2CH2SCHC3H6CHNH7C3HFeS2CSFeSC7H4SCH8C2HCH4NHFeCH4C4H2CNH2C2H7SC2FeSCHCSCH3C3HSH6NHCH2C3FeH2SH2SFeSHSC7H6FeCHC2H6SFeHN2C3HCS2FeSHFeSFeSHSC2HSHCH2C3HCFeHSHC3HC2HCNH6CH2CH4FeS2HFeCFeSCSH3C2HC4H3NC3SCHCH2CHC2H2CH3CHSCHSH4CH4
_chemical_formula_sum              "Fe96 S192 C480 H768 N48"
_cell_length_a       59.1611
_cell_length_b       59.0585
_cell_length_c       36.0164
_cell_angle_alpha    89.9779
_cell_angle_beta     89.8953
_cell_angle_gamma    119.808

_space_group_name_H-M_alt    "P 1"
_space_group_IT_number       1

loop_
  _space_group_symop_operation_xyz
  'x, y, z'

loop_
  _atom_site_type_symbol
  _atom_site_label
  _atom_site_symmetry_multiplicity
  _atom_site_fract_x
  _atom_site_fract_y
  _atom_site_fract_z
  _atom_site_occupancy
  Fe  Fe1       1.0  0.15030  0.46690  0.37717  1.0000
  S   S1        1.0  0.14079  0.43505  0.33519  1.0000
  S   S2        1.0  0.16865  0.46891  0.43374  1.0000
  Fe  Fe2       1.0  0.13771  0.49880  0.32257  1.0000
  S   S3        1.0  0.12734  0.46971  0.27655  1.0000
  Fe  Fe3       1.0  0.10590  0.43931  0.32035  1.0000
  S   S4        1.0  0.06557  0.40284  0.31525  1.0000
  Fe  Fe4       1.0  0.16294  0.46749  0.29429  1.0000
  S   S5        1.0  0.19045  0.46866  0.24841  1.0000
  S   S6        1.0  0.11389  0.46853  0.36572  1.0000
  S   S7        1.0  0.17488  0.49931  0.33694  1.0000
  C   C1        1.0  0.21307  0.45711  0.24679  1.0000
  C   C2        1.0  0.21270  0.43915  0.27252  1.0000
  C   C3        1.0  0.07919  0.36752  0.23029  1.0000
  H   H1        1.0  0.10103  0.38304  0.29767  1.0000
  C   C4        1.0  0.23152  0.46571  0.21782  1.0000
  H   H2        1.0  0.19860  0.43229  0.29490  1.0000
  H   H3        1.0  0.07339  0.34651  0.23165  1.0000
  H   H4        1.0  0.23185  0.47943  0.19759  1.0000
  C   C5        1.0  0.15195  0.45912  0.47689  1.0000
  H   H5        1.0  0.06439  0.42510  0.24274  1.0000
  C   C6        1.0  0.12483  0.44732  0.47938  1.0000
  H   H6        1.0  0.02880  0.41182  0.19663  1.0000
  H   H7        1.0  0.11344  0.44396  0.45442  1.0000
  H   H8        1.0  0.11888  0.35891  0.21349  1.0000
  C   C7        1.0  0.04017  0.39644  0.28331  1.0000
  H   H9        1.0  0.13475  0.42557  0.24268  1.0000
  C   C8        1.0  0.01472  0.37627  0.29122  1.0000
  C   C9        1.0  0.24873  0.43826  0.23979  1.0000
  C   C10       1.0  0.24936  0.45653  0.21446  1.0000
  H   H10       1.0  0.11043  0.41711  0.20739  1.0000
  H   H11       1.0  0.11945  0.38327  0.18284  1.0000
  H   H12       1.0  0.14435  0.39239  0.21735  1.0000
  H   H13       1.0  0.07421  0.37158  0.20220  1.0000
  N   N1        1.0  0.10717  0.38450  0.23863  1.0000
  H   H14       1.0  0.10184  0.41632  0.25520  1.0000
  H   H15       1.0  0.06676  0.37069  0.25059  1.0000
  H   H16       1.0  0.22952  0.41541  0.28846  1.0000
  C   C11       1.0  0.11254  0.37909  0.27671  1.0000
  C   C12       1.0  0.11388  0.41208  0.23580  1.0000
  H   H17       1.0  0.13351  0.39156  0.28393  1.0000
  C   C13       1.0  0.04498  0.40952  0.24930  1.0000
  C   C14       1.0  0.23027  0.42962  0.26878  1.0000
  C   C15       1.0  0.12313  0.37948  0.21186  1.0000
  H   H18       1.0  0.10744  0.35837  0.28010  1.0000
  C   C16       1.0  0.02473  0.40194  0.22318  1.0000
  H   H19       1.0  0.12032  0.38273  0.74832  1.0000
  C   C17       1.0  0.09228  0.36404  0.83364  1.0000
  H   H20       1.0  0.25452  0.47961  0.91579  1.0000
  Fe  Fe5       1.0  0.15010  0.49365  0.69976  1.0000
  S   S8        1.0  0.14343  0.46952  0.75094  1.0000
  Fe  Fe6       1.0  0.12610  0.44684  0.64853  1.0000
  S   S9        1.0  0.11703  0.41853  0.69583  1.0000
  S   S10       1.0  0.11009  0.43374  0.59010  1.0000
  Fe  Fe7       1.0  0.10362  0.44256  0.72720  1.0000
  S   S11       1.0  0.07074  0.42735  0.76999  1.0000
  Fe  Fe8       1.0  0.15739  0.44686  0.71701  1.0000
  S   S12       1.0  0.17839  0.42793  0.74613  1.0000
  S   S13       1.0  0.10943  0.46868  0.67865  1.0000
  S   S14       1.0  0.16744  0.47330  0.66692  1.0000
  C   C18       1.0  0.21268  0.44182  0.75183  1.0000
  C   C19       1.0  0.23036  0.46681  0.73880  1.0000
  N   N2        1.0  0.09830  0.37834  0.79804  1.0000
  C   C20       1.0  0.22242  0.42730  0.77001  1.0000
  H   H21       1.0  0.22323  0.47823  0.72477  1.0000
  H   H22       1.0  0.20893  0.40788  0.77996  1.0000
  C   C21       1.0  0.15399  0.45554  0.54449  1.0000
  C   C22       1.0  0.12684  0.44360  0.54695  1.0000
  C   C23       1.0  0.24947  0.43759  0.77502  1.0000
  H   H23       1.0  0.16538  0.45851  0.56933  1.0000
  C   C24       1.0  0.11543  0.37220  0.77538  1.0000
  C   C25       1.0  0.03676  0.40598  0.76403  1.0000
  C   C26       1.0  0.02631  0.39204  0.73117  1.0000
  H   H24       1.0  0.02780  0.41274  0.81958  1.0000
  H   H25       1.0  0.03900  0.39476  0.70789  1.0000
  H   H26       1.0  0.13057  0.41349  0.82008  1.0000
  H   H27       1.0  0.13435  0.37835  0.78949  1.0000
  H   H28       1.0  0.09977  0.50565  0.56585  1.0000
  C   C27       1.0  0.11173  0.40668  0.80547  1.0000
  H   H29       1.0  0.23800  0.45339  0.88311  1.0000
  H   H30       1.0  0.10611  0.35099  0.76925  1.0000
  H   H31       1.0  0.06042  0.37495  0.79414  1.0000
  H   H32       1.0  0.10626  0.47956  0.57491  1.0000
  H   H33       1.0  0.25973  0.42989  0.85907  1.0000
  H   H34       1.0  0.11618  0.41791  0.77920  1.0000
  C   C28       1.0  0.11189  0.49995  0.58269  1.0000
  H   H35       1.0  0.07944  0.36842  0.85130  1.0000
  H   H36       1.0  0.07750  0.38141  0.75108  1.0000
  C   C29       1.0  0.01993  0.40212  0.79400  1.0000
  H   H37       1.0  0.08205  0.34256  0.82911  1.0000
  H   H38       1.0  0.15030  0.48924  0.59274  1.0000
  C   C30       1.0  0.07379  0.37057  0.77776  1.0000
  H   H39       1.0  0.09944  0.41221  0.82241  1.0000
  H   H40       1.0  0.11034  0.36951  0.84968  1.0000
  H   H41       1.0  0.06319  0.34938  0.77122  1.0000
  H   H42       1.0  0.10649  0.49962  0.61240  1.0000
  H   H43       1.0  0.25663  0.42601  0.78842  1.0000
  C   C31       1.0  0.25737  0.47708  0.74382  1.0000
  H   H44       1.0  0.09135  0.43015  0.51577  1.0000
  C   C32       1.0  0.16643  0.46324  0.50963  1.0000
  H   H45       1.0  0.14128  0.49752  0.52783  1.0000
  H   H46       1.0  0.24482  0.42355  0.92471  1.0000
  C   C33       1.0  0.25747  0.46944  0.89184  1.0000
  C   C34       1.0  0.11237  0.43949  0.51422  1.0000
  H   H47       1.0  0.26127  0.44964  0.95765  1.0000
  H   H48       1.0  0.18741  0.47221  0.50794  1.0000
  Fe  Fe9       1.0  0.11128  0.65255  0.22738  1.0000
  S   S15       1.0  0.12040  0.63405  0.17942  1.0000
  S   S16       1.0  0.07431  0.62359  0.25824  1.0000
  Fe  Fe10      1.0  0.16049  0.65170  0.20288  1.0000
  S   S17       1.0  0.18204  0.62918  0.20853  1.0000
  S   S18       1.0  0.13072  0.53321  0.32053  1.0000
  C   C35       1.0  0.16715  0.60176  0.23834  1.0000
  C   C36       1.0  0.14584  0.59726  0.26037  1.0000
  C   C37       1.0  0.13492  0.57611  0.28524  1.0000
  C   C38       1.0  0.14486  0.55898  0.28791  1.0000
  C   C39       1.0  0.16603  0.56327  0.26557  1.0000
  C   C40       1.0  0.17727  0.58475  0.24106  1.0000
  H   H49       1.0  0.13772  0.61007  0.25843  1.0000
  H   H50       1.0  0.11853  0.57291  0.30237  1.0000
  H   H51       1.0  0.17386  0.55020  0.26751  1.0000
  H   H52       1.0  0.19375  0.58811  0.22408  1.0000
  C   C41       1.0  0.04427  0.62232  0.26805  1.0000
  C   C42       1.0  0.04131  0.64439  0.26653  1.0000
  S   S19       1.0  0.11511  0.66871  0.09316  1.0000
  H   H53       1.0  0.24850  0.84045  0.20983  1.0000
  H   H54       1.0  0.09387  0.66053  0.01953  1.0000
  H   H55       1.0  0.26126  0.83468  0.16771  1.0000
  C   C43       1.0  0.11463  0.66829  0.01669  1.0000
  H   H56       1.0  0.06585  0.64880  0.19439  1.0000
  C   C44       1.0  0.02279  0.59824  0.27836  1.0000
  H   H57       1.0  0.07983  0.64334  0.15360  1.0000
  H   H58       1.0  0.01896  0.63663  0.19450  1.0000
  N   N3        1.0  0.04009  0.63389  0.14766  1.0000
  H   H59       1.0  0.24974  0.68919  0.33335  1.0000
  C   C45       1.0  0.03558  0.61639  0.11580  1.0000
  C   C46       1.0  0.13013  0.67409  0.04877  1.0000
  C   C47       1.0  0.01629  0.62345  0.17077  1.0000
  C   C48       1.0  0.25905  0.80117  0.28431  1.0000
  H   H60       1.0  0.03141  0.65981  0.11676  1.0000
  H   H61       1.0  0.24263  0.70876  0.23826  1.0000
  H   H62       1.0  0.05717  0.61618  0.18127  1.0000
  C   C49       1.0  0.25060  0.69135  0.30260  1.0000
  H   H63       1.0  0.05778  0.66313  0.25927  1.0000
  H   H64       1.0  0.23287  0.72493  0.29763  1.0000
  H   H65       1.0  0.20296  0.65557  0.32744  1.0000
  Fe  Fe11      1.0  0.13446  0.67218  0.14956  1.0000
  H   H66       1.0  0.06524  0.66859  0.11660  1.0000
  S   S20       1.0  0.15079  0.66760  0.25306  1.0000
  H   H67       1.0  0.01953  0.61468  0.09785  1.0000
  H   H68       1.0  0.02492  0.58109  0.27983  1.0000
  C   C50       1.0  0.15696  0.68425  0.04468  1.0000
  C   C51       1.0  0.20523  0.65872  0.29691  1.0000
  C   C52       1.0  0.22724  0.68884  0.24656  1.0000
  C   C53       1.0  0.06165  0.63560  0.17021  1.0000
  H   H69       1.0  0.21010  0.64425  0.28500  1.0000
  H   H70       1.0  0.23185  0.67454  0.23340  1.0000
  Fe  Fe12      1.0  0.16424  0.70383  0.21847  1.0000
  H   H71       1.0  0.21831  0.78870  0.29262  1.0000
  S   S21       1.0  0.18851  0.74347  0.24725  1.0000
  H   H72       1.0  0.20857  0.68541  0.23420  1.0000
  H   H73       1.0  0.18583  0.65365  0.28556  1.0000
  S   S22       1.0  0.12344  0.69011  0.19675  1.0000
  C   C54       1.0  0.22274  0.76341  0.25378  1.0000
  H   H74       1.0  0.05114  0.67399  0.15739  1.0000
  C   C55       1.0  0.23209  0.78483  0.27815  1.0000
  H   H75       1.0  0.21509  0.70194  0.33392  1.0000
  H   H76       1.0  0.23394  0.74268  0.21580  1.0000
  C   C56       1.0  0.04720  0.66021  0.13396  1.0000
  S   S23       1.0  0.17606  0.68868  0.16897  1.0000
  N   N4        1.0  0.22518  0.68580  0.28736  1.0000
  C   C57       1.0  0.24079  0.75866  0.23530  1.0000
  H   H77       1.0  0.16913  0.68888  0.06905  1.0000
  H   H78       1.0  0.03038  0.59643  0.12529  1.0000
  C   C58       1.0  0.21780  0.70430  0.30332  1.0000
  H   H79       1.0  0.19925  0.70149  0.29130  1.0000
  H   H80       1.0  0.05343  0.62380  0.09819  1.0000
  C   C59       1.0  0.01713  0.64231  0.27569  1.0000
  H   H81       1.0  0.25674  0.67777  0.29096  1.0000
  C   C60       1.0  0.16818  0.68889  0.00894  1.0000
  H   H82       1.0  0.01510  0.65953  0.27514  1.0000
  H   H83       1.0  0.18901  0.69703  0.00614  1.0000
  S   S24       1.0  0.18185  0.67018  0.84113  1.0000
  S   S25       1.0  0.11787  0.63918  0.85588  1.0000
  H   H84       1.0  0.12217  0.62619  0.94723  1.0000
  Fe  Fe13      1.0  0.14665  0.63364  0.82163  1.0000
  S   S26       1.0  0.14349  0.59407  0.82819  1.0000
  S   S27       1.0  0.16708  0.53746  0.69589  1.0000
  H   H85       1.0  0.24183  0.75216  0.69699  1.0000
  S   S28       1.0  0.08229  0.66094  0.77409  1.0000
  S   S29       1.0  0.14217  0.65308  0.77119  1.0000
  C   C61       1.0  0.12583  0.67270  0.98091  1.0000
  C   C62       1.0  0.14933  0.57858  0.79038  1.0000
  C   C63       1.0  0.14223  0.55217  0.79364  1.0000
  C   C64       1.0  0.14717  0.53931  0.76459  1.0000
  C   C65       1.0  0.15969  0.55290  0.73224  1.0000
  C   C66       1.0  0.16677  0.57932  0.72890  1.0000
  C   C67       1.0  0.16145  0.59210  0.75777  1.0000
  H   H86       1.0  0.13279  0.54156  0.81872  1.0000
  H   H87       1.0  0.13920  0.57873  0.98845  1.0000
  H   H88       1.0  0.17649  0.58997  0.70398  1.0000
  H   H89       1.0  0.16709  0.61248  0.75504  1.0000
  C   C68       1.0  0.04934  0.63504  0.77265  1.0000
  C   C69       1.0  0.03321  0.63395  0.74316  1.0000
  C   C70       1.0  0.03852  0.61649  0.80106  1.0000
  H   H90       1.0  0.16913  0.60941  0.98904  1.0000
  H   H91       1.0  0.05055  0.61724  0.82413  1.0000
  N   N5        1.0  0.14313  0.60516  0.94463  1.0000
  C   C71       1.0  0.13025  0.61696  0.96600  1.0000
  C   C72       1.0  0.12380  0.58428  0.92050  1.0000
  H   H92       1.0  0.16438  0.58510  0.95513  1.0000
  C   C73       1.0  0.15446  0.59408  0.97048  1.0000
  C   C74       1.0  0.13780  0.73896  0.68534  1.0000
  H   H93       1.0  0.13285  0.57485  0.90407  1.0000
  H   H94       1.0  0.14248  0.54549  0.61762  1.0000
  H   H95       1.0  0.04128  0.64827  0.72114  1.0000
  C   C75       1.0  0.11977  0.72696  0.74716  1.0000
  H   H96       1.0  0.17901  0.64165  0.93859  1.0000
  C   C76       1.0  0.15273  0.68318  0.97687  1.0000
  H   H97       1.0  0.11371  0.66832  0.95652  1.0000
  H   H98       1.0  0.17653  0.52235  0.59543  1.0000
  H   H99       1.0  0.11990  0.74570  0.75099  1.0000
  N   N6        1.0  0.14097  0.72995  0.72222  1.0000
  H   H100      1.0  0.10746  0.56879  0.93685  1.0000
  S   S30       1.0  0.16812  0.68899  0.93274  1.0000
  H   H101      1.0  0.16747  0.53046  0.53130  1.0000
  Fe  Fe14      1.0  0.11587  0.66158  0.80644  1.0000
  C   C77       1.0  0.16405  0.62543  0.92146  1.0000
  H   H102      1.0  0.15348  0.74126  0.66590  1.0000
  H   H103      1.0  0.15611  0.63433  0.90206  1.0000
  H   H104      1.0  0.13539  0.55168  0.57131  1.0000
  H   H105      1.0  0.16776  0.55867  0.58329  1.0000
  H   H106      1.0  0.11397  0.60226  0.98331  1.0000
  H   H107      1.0  0.17389  0.61724  0.90415  1.0000
  C   C78       1.0  0.25843  0.79036  0.78943  1.0000
  H   H108      1.0  0.11533  0.59213  0.90003  1.0000
  H   H109      1.0  0.14423  0.63250  0.98496  1.0000
  H   H110      1.0  0.13852  0.75811  0.68722  1.0000
  H   H111      1.0  0.11879  0.72475  0.67267  1.0000
  Fe  Fe15      1.0  0.15296  0.67676  0.87362  1.0000
  Fe  Fe16      1.0  0.17500  0.69084  0.79386  1.0000
  C   C79       1.0  0.13987  0.70453  0.71829  1.0000
  S   S31       1.0  0.20401  0.71841  0.75031  1.0000
  H   H112      1.0  0.14226  0.69741  0.74563  1.0000
  H   H113      1.0  0.12143  0.71985  0.77512  1.0000
  H   H114      1.0  0.18288  0.75174  0.72008  1.0000
  S   S32       1.0  0.14864  0.70024  0.82730  1.0000
  H   H115      1.0  0.15573  0.70589  0.70005  1.0000
  C   C80       1.0  0.14667  0.54464  0.58756  1.0000
  H   H116      1.0  0.10029  0.71230  0.73622  1.0000
  H   H117      1.0  0.15103  0.50981  0.62941  1.0000
  H   H118      1.0  0.16958  0.74273  0.76574  1.0000
  H   H119      1.0  0.12080  0.68927  0.70701  1.0000
  C   C81       1.0  0.24641  0.76276  0.72293  1.0000
  C   C82       1.0  0.23095  0.75068  0.75448  1.0000
  C   C83       1.0  0.23709  0.76466  0.78780  1.0000
  C   C84       1.0  0.16643  0.74918  0.73810  1.0000
  H   H120      1.0  0.16804  0.76862  0.74176  1.0000
  H   H121      1.0  0.22539  0.75571  0.81230  1.0000
  C   C85       1.0  0.14633  0.51752  0.53690  1.0000
  C   C86       1.0  0.15520  0.50949  0.59942  1.0000
  H   H122      1.0  0.14153  0.51896  0.76745  1.0000
  N   N7        1.0  0.14001  0.51792  0.57656  1.0000
  H   H123      1.0  0.13536  0.52394  0.51874  1.0000
  H   H124      1.0  0.42561  0.43784  0.28243  1.0000
  S   S33       1.0  0.48159  0.13879  0.24115  1.0000
  Fe  Fe17      1.0  0.46694  0.11840  0.13731  1.0000
  S   S34       1.0  0.43515  0.11033  0.17879  1.0000
  C   C87       1.0  0.36567  0.09644  0.27753  1.0000
  Fe  Fe18      1.0  0.46183  0.15153  0.19951  1.0000
  S   S35       1.0  0.44177  0.17493  0.21565  1.0000
  Fe  Fe19      1.0  0.45668  0.09817  0.21809  1.0000
  S   S36       1.0  0.44033  0.06532  0.26115  1.0000
  H   H125      1.0  0.34551  0.07946  0.27752  1.0000
  S   S37       1.0  0.48629  0.10292  0.17549  1.0000
  Fe  Fe20      1.0  0.47587  0.32105  0.29458  1.0000
  H   H126      1.0  0.39798  0.46785  0.30571  1.0000
  S   S38       1.0  0.48844  0.29095  0.28030  1.0000
  H   H127      1.0  0.49464  0.21501  0.23773  1.0000
  C   C88       1.0  0.41159  0.11126  0.27253  1.0000
  S   S39       1.0  0.45028  0.32020  0.34175  1.0000
  H   H128      1.0  0.41573  0.12291  0.29843  1.0000
  H   H129      1.0  0.38148  0.08592  0.21350  1.0000
  H   H130      1.0  0.44310  0.49696  0.22594  1.0000
  H   H131      1.0  0.44732  0.26669  0.43670  1.0000
  H   H132      1.0  0.39545  0.06770  0.23287  1.0000
  H   H133      1.0  0.35082  0.43052  0.08811  1.0000
  C   C89       1.0  0.41641  0.03183  0.25730  1.0000
  H   H134      1.0  0.40524  0.03335  0.20088  1.0000
  C   C90       1.0  0.48752  0.25966  0.41678  1.0000
  H   H135      1.0  0.42287  0.02368  0.31342  1.0000
  H   H136      1.0  0.36707  0.10977  0.25457  1.0000
  C   C91       1.0  0.45523  0.20739  0.23319  1.0000
  C   C92       1.0  0.48165  0.22276  0.24191  1.0000
  C   C93       1.0  0.49133  0.24821  0.25617  1.0000
  C   C94       1.0  0.47484  0.25876  0.26177  1.0000
  C   C95       1.0  0.44840  0.24341  0.25313  1.0000
  C   C96       1.0  0.43870  0.21790  0.23901  1.0000
  Fe  Fe21      1.0  0.48589  0.35523  0.36398  1.0000
  N   N8        1.0  0.47823  0.27559  0.39750  1.0000
  H   H137      1.0  0.43541  0.25114  0.25723  1.0000
  H   H138      1.0  0.41823  0.20625  0.23234  1.0000
  C   C97       1.0  0.46517  0.11711  0.03514  1.0000
  C   C98       1.0  0.31056  0.48693  0.29755  1.0000
  C   C99       1.0  0.38057  0.07369  0.23763  1.0000
  H   H139      1.0  0.46678  0.15188  0.05660  1.0000
  H   H140      1.0  0.36853  0.10721  0.30404  1.0000
  H   H141      1.0  0.29662  0.50058  0.23452  1.0000
  H   H142      1.0  0.36362  0.05301  0.30532  1.0000
  H   H143      1.0  0.42690  0.10567  0.26976  1.0000
  S   S40       1.0  0.49178  0.16024  0.15458  1.0000
  C   C100      1.0  0.38320  0.07082  0.30418  1.0000
  H   H144      1.0  0.39775  0.06416  0.30141  1.0000
  H   H145      1.0  0.36118  0.05563  0.23733  1.0000
  H   H146      1.0  0.38682  0.08104  0.33131  1.0000
  H   H147      1.0  0.41402  0.12444  0.24889  1.0000
  N   N9        1.0  0.38525  0.08804  0.27299  1.0000
  C   C101      1.0  0.46723  0.14167  0.03192  1.0000
  H   H148      1.0  0.46050  0.02411  0.25918  1.0000
  H   H149      1.0  0.40416  0.48614  0.26346  1.0000
  C   C102      1.0  0.40183  0.02113  0.22500  1.0000
  C   C103      1.0  0.40665  0.47070  0.27747  1.0000
  S   S41       1.0  0.46290  0.10215  0.07880  1.0000
  H   H150      1.0  0.45729  0.46123  0.29909  1.0000
  H   H151      1.0  0.49434  0.31142  0.36692  1.0000
  H   H152      1.0  0.44275  0.24233  0.37845  1.0000
  H   H153      1.0  0.47105  0.24187  0.42936  1.0000
  C   C104      1.0  0.41181  0.01558  0.28823  1.0000
  H   H154      1.0  0.37620  0.44525  0.02803  1.0000
  C   C105      1.0  0.49905  0.34417  0.49548  1.0000
  C   C106      1.0  0.40221  0.45504  0.09213  1.0000
  H   H155      1.0  0.38436  0.39227  0.07084  1.0000
  C   C107      1.0  0.48620  0.34691  0.46445  1.0000
  S   S42       1.0  0.40662  0.35060  0.30497  1.0000
  H   H156      1.0  0.45071  0.34459  0.44511  1.0000
  S   S43       1.0  0.46688  0.34713  0.25906  1.0000
  H   H157      1.0  0.37121  0.41308  0.02097  1.0000
  Fe  Fe22      1.0  0.36340  0.49163  0.21832  1.0000
  S   S44       1.0  0.47846  0.38458  0.33430  1.0000
  H   H158      1.0  0.36673  0.36497  0.30228  1.0000
  Fe  Fe23      1.0  0.35893  0.43922  0.19606  1.0000
  S   S45       1.0  0.38103  0.47983  0.17288  1.0000
  S   S46       1.0  0.38620  0.42229  0.19253  1.0000
  Fe  Fe24      1.0  0.30989  0.44451  0.20710  1.0000
  S   S47       1.0  0.32913  0.48514  0.18379  1.0000
  S   S48       1.0  0.27020  0.42539  0.23594  1.0000
  Fe  Fe25      1.0  0.34510  0.46958  0.13978  1.0000
  S   S49       1.0  0.35500  0.48542  0.08066  1.0000
  H   H159      1.0  0.49786  0.25323  0.39728  1.0000
  S   S50       1.0  0.32347  0.42814  0.16049  1.0000
  S   S51       1.0  0.34362  0.45187  0.24421  1.0000
  C   C108      1.0  0.34543  0.46916  0.03730  1.0000
  C   C109      1.0  0.32535  0.44327  0.03409  1.0000
  H   H160      1.0  0.31448  0.43277  0.05848  1.0000
  H   H161      1.0  0.46587  0.48710  0.24100  1.0000
  H   H162      1.0  0.40364  0.45344  0.12275  1.0000
  H   H163      1.0  0.49287  0.03069  0.26920  1.0000
  C   C110      1.0  0.40196  0.37178  0.27477  1.0000
  C   C111      1.0  0.38013  0.37505  0.27972  1.0000
  C   C112      1.0  0.37525  0.39087  0.25538  1.0000
  C   C113      1.0  0.39193  0.40320  0.22533  1.0000
  C   C114      1.0  0.41394  0.40023  0.22065  1.0000
  C   C115      1.0  0.41908  0.38484  0.24540  1.0000
  H   H164      1.0  0.39788  0.40947  0.11345  1.0000
  H   H165      1.0  0.35818  0.39284  0.25928  1.0000
  H   H166      1.0  0.42701  0.40968  0.19756  1.0000
  H   H167      1.0  0.43592  0.38250  0.24120  1.0000
  C   C116      1.0  0.47539  0.01858  0.25182  1.0000
  H   H168      1.0  0.42878  0.45326  0.32641  1.0000
  H   H169      1.0  0.30770  0.48047  0.32704  1.0000
  H   H170      1.0  0.45306  0.27160  0.35189  1.0000
  C   C117      1.0  0.46091  0.34270  0.46877  1.0000
  H   H171      1.0  0.45797  0.29637  0.41095  1.0000
  H   H172      1.0  0.34549  0.39845  0.07795  1.0000
  H   H173      1.0  0.47778  0.29531  0.44749  1.0000
  H   H174      1.0  0.39492  0.45219  0.26184  1.0000
  H   H175      1.0  0.35931  0.41359  0.12162  1.0000
  H   H176      1.0  0.26314  0.46308  0.19169  1.0000
  C   C118      1.0  0.44894  0.33659  0.50408  1.0000
  H   H177      1.0  0.43430  0.46319  0.22440  1.0000
  H   H178      1.0  0.39422  0.46836  0.08713  1.0000
  N   N10       1.0  0.43437  0.47780  0.27907  1.0000
  C   C119      1.0  0.39661  0.41205  0.08296  1.0000
  H   H179      1.0  0.50945  0.33456  0.22886  1.0000
  H   H180      1.0  0.46979  0.25363  0.34672  1.0000
  Fe  Fe26      1.0  0.44463  0.34964  0.30819  1.0000
  N   N11       1.0  0.38553  0.42915  0.07522  1.0000
  C   C120      1.0  0.44490  0.48145  0.24093  1.0000
  C   C121      1.0  0.46468  0.28374  0.42432  1.0000
  C   C122      1.0  0.46012  0.26005  0.36746  1.0000
  H   H181      1.0  0.48096  0.02431  0.22233  1.0000
  S   S52       1.0  0.50282  0.35592  0.42122  1.0000
  C   C123      1.0  0.43665  0.45667  0.29760  1.0000
  C   C124      1.0  0.35911  0.41737  0.09137  1.0000
  H   H182      1.0  0.41659  0.42028  0.07127  1.0000
  C   C125      1.0  0.38413  0.43213  0.03465  1.0000
  H   H183      1.0  0.29672  0.46988  0.28070  1.0000
  H   H184      1.0  0.42229  0.46463  0.08054  1.0000
  Fe  Fe27      1.0  0.50090  0.38119  0.28637  1.0000
  H   H185      1.0  0.50131  0.27089  0.43952  1.0000
  H   H186      1.0  0.33059  0.49179  0.28911  1.0000
  H   H187      1.0  0.26481  0.48524  0.28667  1.0000
  H   H188      1.0  0.27569  0.49588  0.33306  1.0000
  C   C126      1.0  0.27945  0.50193  0.30339  1.0000
  C   C127      1.0  0.44917  0.50236  0.30016  1.0000
  H   H189      1.0  0.40368  0.44070  0.02141  1.0000
  C   C128      1.0  0.50072  0.29898  0.38141  1.0000
  H   H190      1.0  0.44184  0.50028  0.32915  1.0000
  Fe  Fe28      1.0  0.50941  0.14419  0.19493  1.0000
  H   H191      1.0  0.51127  0.29370  0.36059  1.0000
  H   H192      1.0  0.51180  0.25979  0.26283  1.0000
  S   S53       1.0  0.51178  0.35549  0.31791  1.0000
  H   H193      1.0  0.47027  0.50860  0.30149  1.0000
  H   H194      1.0  0.37440  0.50273  0.00728  1.0000
  H   H195      1.0  0.45922  0.01539  0.78783  1.0000
  S   S54       1.0  0.47961  0.11495  0.76356  1.0000
  Fe  Fe29      1.0  0.47532  0.13717  0.86488  1.0000
  S   S55       1.0  0.44168  0.12090  0.82503  1.0000
  S   S56       1.0  0.47283  0.15474  0.92021  1.0000
  Fe  Fe30      1.0  0.45276  0.09065  0.80960  1.0000
  S   S57       1.0  0.42684  0.04627  0.81178  1.0000
  Fe  Fe31      1.0  0.47129  0.14680  0.78235  1.0000
  S   S58       1.0  0.45836  0.16915  0.74377  1.0000
  S   S59       1.0  0.48402  0.10513  0.85319  1.0000
  C   C129      1.0  0.44977  0.21493  0.88428  1.0000
  Fe  Fe32      1.0  0.48566  0.31761  0.70271  1.0000
  H   H196      1.0  0.47822  0.19269  0.86705  1.0000
  H   H197      1.0  0.49128  0.39390  0.78159  1.0000
  H   H198      1.0  0.43226  0.16292  0.88364  1.0000
  C   C130      1.0  0.41974  0.02921  0.73834  1.0000
  S   S60       1.0  0.44550  0.31039  0.68779  1.0000
  H   H199      1.0  0.45305  0.22773  0.81094  1.0000
  H   H200      1.0  0.40723  0.16951  0.86787  1.0000
  H   H201      1.0  0.29166  0.43837  0.87496  1.0000
  H   H202      1.0  0.27079  0.49644  0.73353  1.0000
  H   H203      1.0  0.43410  0.19483  0.79481  1.0000
  C   C131      1.0  0.42615  0.17102  0.86021  1.0000
  H   H204      1.0  0.28734  0.46020  0.84490  1.0000
  N   N12       1.0  0.27519  0.45943  0.90143  1.0000
  H   H205      1.0  0.33002  0.46742  0.70554  1.0000
  H   H206      1.0  0.45613  0.20819  0.90903  1.0000
  H   H207      1.0  0.42967  0.04956  0.73031  1.0000
  H   H208      1.0  0.42258  0.15810  0.83580  1.0000
  C   C132      1.0  0.47066  0.20340  0.73936  1.0000
  C   C133      1.0  0.49383  0.22181  0.75633  1.0000
  H   H209      1.0  0.46886  0.18639  0.81928  1.0000
  C   C134      1.0  0.48772  0.25761  0.73347  1.0000
  C   C135      1.0  0.46463  0.23922  0.71625  1.0000
  C   C136      1.0  0.45622  0.21230  0.71915  1.0000
  H   H210      1.0  0.46820  0.10499  0.94273  1.0000
  C   C137      1.0  0.46963  0.15296  0.99656  1.0000
  H   H211      1.0  0.45328  0.24572  0.70071  1.0000
  H   H212      1.0  0.43830  0.19828  0.70579  1.0000
  H   H213      1.0  0.46743  0.41661  0.79689  1.0000
  C   C138      1.0  0.47000  0.13985  0.96412  1.0000
  C   C139      1.0  0.46806  0.11535  0.96741  1.0000
  H   H214      1.0  0.46484  0.23558  0.87874  1.0000
  H   H215      1.0  0.49689  0.33529  0.55416  1.0000
  C   C140      1.0  0.49351  0.06340  0.76268  1.0000
  N   N13       1.0  0.44618  0.19824  0.85175  1.0000
  C   C141      1.0  0.43784  0.20768  0.81937  1.0000
  C   C142      1.0  0.47107  0.19927  0.84311  1.0000
  H   H216      1.0  0.50076  0.04206  0.84704  1.0000
  C   C143      1.0  0.26712  0.46263  0.76199  1.0000
  H   H217      1.0  0.48656  0.21938  0.83576  1.0000
  H   H218      1.0  0.43136  0.21463  0.89174  1.0000
  H   H219      1.0  0.30971  0.49617  0.89032  1.0000
  N   N14       1.0  0.49878  0.04697  0.78815  1.0000
  C   C144      1.0  0.50220  0.24868  0.75352  1.0000
  H   H220      1.0  0.35728  0.44717  0.69375  1.0000
  C   C145      1.0  0.41567  0.02246  0.77597  1.0000
  S   S61       1.0  0.44693  0.32892  0.57965  1.0000
  H   H221      1.0  0.47386  0.06096  0.76779  1.0000
  H   H222      1.0  0.27708  0.43264  0.94003  1.0000
  C   C146      1.0  0.46205  0.33452  0.53534  1.0000
  C   C147      1.0  0.48694  0.33771  0.53063  1.0000
  C   C148      1.0  0.46561  0.10406  0.00273  1.0000
  S   S62       1.0  0.50505  0.34061  0.65045  1.0000
  H   H223      1.0  0.30736  0.39642  0.71348  1.0000
  Fe  Fe33      1.0  0.46559  0.33544  0.63715  1.0000
  H   H224      1.0  0.30519  0.42486  0.62233  1.0000
  C   C149      1.0  0.49700  0.05410  0.82695  1.0000
  H   H225      1.0  0.50800  0.08446  0.76633  1.0000
  H   H226      1.0  0.35089  0.44612  0.64487  1.0000
  S   S63       1.0  0.47333  0.37253  0.66557  1.0000
  C   C150      1.0  0.27863  0.44641  0.86864  1.0000
  C   C151      1.0  0.34340  0.43531  0.67144  1.0000
  Fe  Fe34      1.0  0.35858  0.43541  0.79179  1.0000
  S   S64       1.0  0.38082  0.45293  0.84452  1.0000
  S   S65       1.0  0.36374  0.41062  0.74761  1.0000
  Fe  Fe35      1.0  0.32798  0.46510  0.79751  1.0000
  S   S66       1.0  0.34866  0.48558  0.84997  1.0000
  S   S67       1.0  0.30146  0.47675  0.76695  1.0000
  Fe  Fe36      1.0  0.38514  0.49069  0.82269  1.0000
  Fe  Fe37      1.0  0.34263  0.44653  0.86792  1.0000
  S   S68       1.0  0.32405  0.42819  0.92360  1.0000
  S   S69       1.0  0.36523  0.47366  0.76893  1.0000
  S   S70       1.0  0.31965  0.42556  0.81671  1.0000
  C   C152      1.0  0.33279  0.44444  0.96699  1.0000
  C   C153      1.0  0.35267  0.47039  0.97014  1.0000
  C   C154      1.0  0.48612  0.43549  0.79514  1.0000
  H   H227      1.0  0.36335  0.48099  0.94568  1.0000
  C   C155      1.0  0.31913  0.43098  0.99909  1.0000
  H   H228      1.0  0.27868  0.41009  0.65491  1.0000
  C   C156      1.0  0.30073  0.48136  0.91283  1.0000
  C   C157      1.0  0.41732  0.37475  0.75689  1.0000
  H   H229      1.0  0.50477  0.42648  0.70974  1.0000
  C   C158      1.0  0.39527  0.39605  0.78612  1.0000
  C   C159      1.0  0.38533  0.39792  0.75176  1.0000
  C   C160      1.0  0.39187  0.38856  0.71991  1.0000
  C   C161      1.0  0.40802  0.37730  0.72236  1.0000
  H   H230      1.0  0.39026  0.40296  0.81090  1.0000
  H   H231      1.0  0.38419  0.38977  0.69322  1.0000
  H   H232      1.0  0.41262  0.36992  0.69770  1.0000
  H   H233      1.0  0.46396  0.08502  0.00490  1.0000
  C   C162      1.0  0.47932  0.01921  0.78203  1.0000
  H   H234      1.0  0.48494  0.38993  0.53281  1.0000
  S   S71       1.0  0.43664  0.35956  0.76208  1.0000
  Fe  Fe38      1.0  0.45657  0.34853  0.71676  1.0000
  C   C163      1.0  0.30768  0.41543  0.71492  1.0000
  H   H235      1.0  0.28786  0.41160  0.72270  1.0000
  C   C164      1.0  0.31673  0.45504  0.68307  1.0000
  H   H236      1.0  0.29850  0.39542  0.64619  1.0000
  H   H237      1.0  0.48121  0.45077  0.78726  1.0000
  H   H238      1.0  0.50542  0.21538  0.77142  1.0000
  H   H239      1.0  0.48289  0.40414  0.59594  1.0000
  H   H240      1.0  0.26534  0.48358  0.86829  1.0000
  H   H241      1.0  0.41958  0.20807  0.82521  1.0000
  S   S72       1.0  0.49516  0.35385  0.73540  1.0000
  C   C165      1.0  0.41093  0.38428  0.78867  1.0000
  C   C166      1.0  0.29898  0.41441  0.64940  1.0000
  H   H242      1.0  0.47104  0.17188  0.99430  1.0000
  N   N15       1.0  0.31671  0.43006  0.67967  1.0000
  H   H243      1.0  0.42955  0.33386  0.50732  1.0000
  H   H244      1.0  0.32320  0.46657  0.65691  1.0000
  H   H245      1.0  0.41783  0.38223  0.81557  1.0000
  C   C167      1.0  0.50527  0.40654  0.53050  1.0000
  H   H246      1.0  0.32100  0.42652  0.73796  1.0000
  H   H247      1.0  0.34421  0.41689  0.66966  1.0000
  C   C168      1.0  0.49179  0.42787  0.73091  1.0000
  H   H248      1.0  0.47964  0.01324  0.75281  1.0000
  H   H249      1.0  0.31466  0.47446  0.91976  1.0000
  S   S73       1.0  0.50455  0.16443  0.82291  1.0000
  S   S74       1.0  0.49935  0.29182  0.73148  1.0000
  H   H250      1.0  0.49426  0.05838  0.73312  1.0000
  C   C169      1.0  0.50334  0.42042  0.59289  1.0000
  H   H251      1.0  0.50252  0.43782  0.58293  1.0000
  H   H252      1.0  0.30359  0.41094  0.99686  1.0000
  H   H253      1.0  0.29699  0.45185  0.69009  1.0000
  H   H254      1.0  0.48715  0.44304  0.72157  1.0000
  N   N16       1.0  0.50406  0.43392  0.76800  1.0000
  H   H255      1.0  0.47729  0.05125  0.83321  1.0000
  H   H256      1.0  0.49472  0.44009  0.82346  1.0000
  H   H257      1.0  0.29898  0.49141  0.93788  1.0000
  H   H258      1.0  0.47324  0.40888  0.73099  1.0000
  H   H259      1.0  0.41331  0.01497  0.68197  1.0000
  H   H260      1.0  0.49948  0.37397  0.58759  1.0000
  H   H261      1.0  0.50425  0.42325  0.51810  1.0000
  C   C170      1.0  0.41039  0.00953  0.71099  1.0000
  Fe  Fe39      1.0  0.51126  0.37589  0.68268  1.0000
  Fe  Fe40      1.0  0.51047  0.13069  0.80782  1.0000
  C   C171      1.0  0.50955  0.41309  0.77936  1.0000
  C   C172      1.0  0.35888  0.48267  0.00512  1.0000
  H   H262      1.0  0.51142  0.07497  0.83251  1.0000
  C   C173      1.0  0.26403  0.44049  0.93231  1.0000
  H   H263      1.0  0.50896  0.69110  0.19198  1.0000
  H   H264      1.0  0.43416  0.95375  0.23784  1.0000
  H   H265      1.0  0.47777  0.60855  0.18769  1.0000
  H   H266      1.0  0.48169  0.62640  0.14550  1.0000
  C   C174      1.0  0.47288  0.57485  0.25335  1.0000
  C   C175      1.0  0.45928  0.55588  0.22618  1.0000
  C   C176      1.0  0.43198  0.54106  0.22701  1.0000
  C   C177      1.0  0.41801  0.54498  0.25518  1.0000
  C   C178      1.0  0.43159  0.56409  0.28227  1.0000
  C   C179      1.0  0.45898  0.57903  0.28138  1.0000
  H   H267      1.0  0.46995  0.55271  0.20426  1.0000
  H   H268      1.0  0.42178  0.52674  0.20570  1.0000
  H   H269      1.0  0.42092  0.56726  0.30417  1.0000
  H   H270      1.0  0.46932  0.59357  0.30254  1.0000
  H   H271      1.0  0.45685  0.62182  0.17846  1.0000
  H   H272      1.0  0.50178  0.80055  0.26374  1.0000
  H   H273      1.0  0.46888  0.64423  0.23869  1.0000
  C   C180      1.0  0.32239  0.86028  0.50018  1.0000
  C   C181      1.0  0.26531  0.83946  0.19771  1.0000
  C   C182      1.0  0.48910  0.64807  0.23439  1.0000
  H   H274      1.0  0.49217  0.98881  0.21855  1.0000
  H   H275      1.0  0.31246  0.88879  0.24855  1.0000
  C   C183      1.0  0.29412  0.87010  0.24343  1.0000
  N   N17       1.0  0.49588  0.65007  0.19457  1.0000
  H   H276      1.0  0.45062  0.96252  0.30227  1.0000
  H   H277      1.0  0.44187  0.98752  0.30489  1.0000
  H   H278      1.0  0.49985  0.67464  0.14804  1.0000
  C   C184      1.0  0.38262  0.99446  0.22399  1.0000
  H   H279      1.0  0.49063  0.63199  0.24805  1.0000
  C   C185      1.0  0.47719  0.62566  0.17563  1.0000
  H   H280      1.0  0.50853  0.89803  0.22461  1.0000
  H   H281      1.0  0.44747  0.97936  0.20373  1.0000
  Fe  Fe41      1.0  0.35874  0.91540  0.28838  1.0000
  S   S75       1.0  0.39303  0.92615  0.32463  1.0000
  S   S76       1.0  0.35397  0.94470  0.25292  1.0000
  Fe  Fe42      1.0  0.33866  0.85661  0.29758  1.0000
  S   S77       1.0  0.37269  0.86364  0.33441  1.0000
  S   S78       1.0  0.31140  0.81645  0.27173  1.0000
  Fe  Fe43      1.0  0.36558  0.89370  0.36258  1.0000
  S   S79       1.0  0.37635  0.90651  0.42288  1.0000
  Fe  Fe44      1.0  0.39772  0.89565  0.29434  1.0000
  S   S80       1.0  0.43868  0.91178  0.27180  1.0000
  S   S81       1.0  0.33006  0.88498  0.32820  1.0000
  S   S82       1.0  0.36480  0.88661  0.25568  1.0000
  C   C186      1.0  0.31021  0.51703  0.25256  1.0000
  C   C187      1.0  0.45275  0.89215  0.26221  1.0000
  C   C188      1.0  0.47743  0.90371  0.24535  1.0000
  C   C189      1.0  0.48949  0.88890  0.23751  1.0000
  C   C190      1.0  0.47701  0.86241  0.24674  1.0000
  C   C191      1.0  0.45237  0.85083  0.26376  1.0000
  C   C192      1.0  0.44018  0.86562  0.27134  1.0000
  H   H282      1.0  0.48731  0.92422  0.23829  1.0000
  C   C193      1.0  0.28929  0.88564  0.18377  1.0000
  H   H283      1.0  0.44259  0.83032  0.27090  1.0000
  H   H284      1.0  0.42117  0.85656  0.28435  1.0000
  C   C194      1.0  0.27709  0.79629  0.26602  1.0000
  C   C195      1.0  0.35956  0.89267  0.46489  1.0000
  C   C196      1.0  0.33487  0.87039  0.46584  1.0000
  H   H285      1.0  0.29548  0.85458  0.25904  1.0000
  H   H286      1.0  0.32535  0.86105  0.44014  1.0000
  H   H287      1.0  0.33043  0.52309  0.24330  1.0000
  C   C197      1.0  0.26774  0.77489  0.24159  1.0000
  C   C198      1.0  0.37827  0.97815  0.25486  1.0000
  H   H288      1.0  0.50299  0.82944  0.31328  1.0000
  H   H289      1.0  0.28149  0.77104  0.22702  1.0000
  H   H290      1.0  0.37127  0.98635  0.19903  1.0000
  C   C199      1.0  0.39307  0.98887  0.28693  1.0000
  H   H291      1.0  0.28673  0.88204  0.15333  1.0000
  H   H292      1.0  0.34564  0.53747  0.30700  1.0000
  H   H293      1.0  0.32282  0.52644  0.34496  1.0000
  N   N18       1.0  0.29012  0.86406  0.20336  1.0000
  H   H294      1.0  0.30918  0.85582  0.15872  1.0000
  S   S83       1.0  0.50714  0.59274  0.25075  1.0000
  C   C200      1.0  0.31189  0.86117  0.18864  1.0000
  C   C201      1.0  0.44245  0.97514  0.23365  1.0000
  S   S84       1.0  0.38373  0.52598  0.25745  1.0000
  H   H295      1.0  0.47906  0.96292  0.25211  1.0000
  H   H296      1.0  0.26613  0.71163  0.29588  1.0000
  H   H297      1.0  0.27786  0.87193  0.25578  1.0000
  H   H298      1.0  0.49691  0.78585  0.32992  1.0000
  H   H299      1.0  0.38971  0.97665  0.31105  1.0000
  S   S85       1.0  0.49202  0.84353  0.23802  1.0000
  H   H300      1.0  0.30322  0.84310  0.50068  1.0000
  C   C202      1.0  0.48598  0.98407  0.24805  1.0000
  H   H301      1.0  0.44758  0.51861  0.28714  1.0000
  H   H302      1.0  0.33083  0.87961  0.19153  1.0000
  H   H303      1.0  0.30765  0.90454  0.18812  1.0000
  H   H304      1.0  0.50238  0.66641  0.24939  1.0000
  C   C203      1.0  0.32518  0.53153  0.31490  1.0000
  H   H305      1.0  0.42665  0.97959  0.23982  1.0000
  H   H306      1.0  0.31366  0.84563  0.20377  1.0000
  H   H307      1.0  0.32266  0.54887  0.31134  1.0000
  H   H308      1.0  0.30671  0.53360  0.24723  1.0000
  H   H309      1.0  0.27293  0.88819  0.19403  1.0000
  C   C204      1.0  0.45779  0.98361  0.29691  1.0000
  H   H310      1.0  0.47450  0.99496  0.31589  1.0000
  N   N19       1.0  0.46540  0.99037  0.25760  1.0000
  C   C205      1.0  0.37165  0.90461  0.49852  1.0000
  H   H311      1.0  0.47512  0.67027  0.18109  1.0000
  H   H312      1.0  0.50354  0.99508  0.26574  1.0000
  H   H313      1.0  0.27541  0.51829  0.29945  1.0000
  H   H314      1.0  0.26574  0.82269  0.21108  1.0000
  H   H315      1.0  0.26581  0.81734  0.30346  1.0000
  C   C206      1.0  0.49483  0.67246  0.17810  1.0000
  H   H316      1.0  0.41133  0.86229  0.50162  1.0000
  H   H317      1.0  0.39073  0.92191  0.49796  1.0000
  N   N20       1.0  0.30632  0.50936  0.29213  1.0000
  S   S86       1.0  0.48098  0.59046  0.68093  1.0000
  S   S87       1.0  0.42372  0.52831  0.82727  1.0000
  C   C207      1.0  0.46324  0.63483  0.71536  1.0000
  C   C208      1.0  0.46592  0.57249  0.72147  1.0000
  C   C209      1.0  0.43951  0.55335  0.72019  1.0000
  C   C210      1.0  0.42652  0.53947  0.75235  1.0000
  C   C211      1.0  0.43985  0.54458  0.78606  1.0000
  C   C212      1.0  0.46633  0.56371  0.78732  1.0000
  C   C213      1.0  0.47940  0.57752  0.75506  1.0000
  H   H318      1.0  0.42898  0.54939  0.69429  1.0000
  H   H319      1.0  0.45305  0.62126  0.80768  1.0000
  H   H320      1.0  0.47679  0.56774  0.81331  1.0000
  N   N21       1.0  0.45674  0.63853  0.75369  1.0000
  H   H321      1.0  0.36203  0.82211  0.57291  1.0000
  C   C214      1.0  0.45805  0.61929  0.77852  1.0000
  H   H322      1.0  0.44950  0.61488  0.70483  1.0000
  C   C215      1.0  0.43011  0.63477  0.75452  1.0000
  H   H323      1.0  0.30216  0.95484  0.58103  1.0000
  H   H324      1.0  0.33806  0.76377  0.81060  1.0000
  H   H325      1.0  0.40608  0.52515  0.75111  1.0000
  H   H326      1.0  0.36344  0.85305  0.57552  1.0000
  H   H327      1.0  0.27947  0.79731  0.70006  1.0000
  H   H328      1.0  0.47794  0.62169  0.77867  1.0000
  H   H329      1.0  0.37858  0.84380  0.61080  1.0000
  H   H330      1.0  0.29680  0.92237  0.57403  1.0000
  H   H331      1.0  0.43278  0.85029  0.55181  1.0000
  H   H332      1.0  0.41550  0.61476  0.74517  1.0000
  C   C216      1.0  0.26780  0.78840  0.72459  1.0000
  Fe  Fe45      1.0  0.36732  0.91478  0.68873  1.0000
  S   S88       1.0  0.38034  0.89987  0.64034  1.0000
  S   S89       1.0  0.38493  0.95906  0.68513  1.0000
  Fe  Fe46      1.0  0.32942  0.85873  0.71554  1.0000
  S   S90       1.0  0.33989  0.84044  0.66897  1.0000
  S   S91       1.0  0.30122  0.83448  0.76186  1.0000
  Fe  Fe47      1.0  0.38113  0.87139  0.68073  1.0000
  S   S92       1.0  0.41345  0.86195  0.67308  1.0000
  Fe  Fe48      1.0  0.33837  0.87053  0.63243  1.0000
  S   S93       1.0  0.31833  0.85890  0.57634  1.0000
  S   S94       1.0  0.37132  0.88824  0.72998  1.0000
  S   S95       1.0  0.32467  0.88676  0.67818  1.0000
  H   H333      1.0  0.40456  0.89377  0.56281  1.0000
  C   C217      1.0  0.43197  0.86208  0.71158  1.0000
  C   C218      1.0  0.45448  0.86032  0.70547  1.0000
  C   C219      1.0  0.46913  0.85935  0.73554  1.0000
  C   C220      1.0  0.46105  0.85961  0.77197  1.0000
  C   C221      1.0  0.43858  0.86149  0.77808  1.0000
  C   C222      1.0  0.42422  0.86301  0.74799  1.0000
  H   H334      1.0  0.46065  0.85964  0.67741  1.0000
  H   H335      1.0  0.48632  0.85778  0.73053  1.0000
  H   H336      1.0  0.43245  0.86197  0.80623  1.0000
  H   H337      1.0  0.40709  0.86468  0.75296  1.0000
  C   C223      1.0  0.31819  0.93992  0.64122  1.0000
  C   C224      1.0  0.34381  0.93192  0.59637  1.0000
  H   H338      1.0  0.49985  0.59205  0.75625  1.0000
  C   C225      1.0  0.33456  0.87219  0.53375  1.0000
  C   C226      1.0  0.35928  0.89439  0.53278  1.0000
  H   H339      1.0  0.42843  0.64895  0.73598  1.0000
  H   H340      1.0  0.36880  0.90381  0.55835  1.0000
  H   H341      1.0  0.38798  0.81389  0.78897  1.0000
  C   C227      1.0  0.39717  0.98293  0.72089  1.0000
  C   C228      1.0  0.39350  0.97619  0.75852  1.0000
  H   H342      1.0  0.38010  0.83608  0.81187  1.0000
  H   H343      1.0  0.38329  0.95585  0.76659  1.0000
  H   H344      1.0  0.32143  0.94905  0.54771  1.0000
  H   H345      1.0  0.33223  0.94287  0.66383  1.0000
  H   H346      1.0  0.47135  0.66879  0.79513  1.0000
  H   H347      1.0  0.35262  0.77167  0.76512  1.0000
  H   H348      1.0  0.40276  0.82057  0.56088  1.0000
  C   C229      1.0  0.40259  0.99587  0.78585  1.0000
  H   H349      1.0  0.36211  0.98219  0.57882  1.0000
  H   H350      1.0  0.34292  0.98822  0.61204  1.0000
  S   S96       1.0  0.47753  0.85589  0.81030  1.0000
  H   H351      1.0  0.31914  0.76318  0.77127  1.0000
  C   C230      1.0  0.31208  0.94336  0.57560  1.0000
  C   C231      1.0  0.35154  0.97565  0.60575  1.0000
  C   C232      1.0  0.27393  0.80240  0.75788  1.0000
  H   H352      1.0  0.30292  0.91892  0.64154  1.0000
  H   H353      1.0  0.37354  0.80628  0.83443  1.0000
  H   H354      1.0  0.35367  0.93704  0.56882  1.0000
  H   H355      1.0  0.30820  0.79303  0.80369  1.0000
  C   C233      1.0  0.37478  0.84297  0.58046  1.0000
  H   H356      1.0  0.32761  0.79491  0.84306  1.0000
  H   H357      1.0  0.33326  0.82416  0.81945  1.0000
  N   N22       1.0  0.39932  0.85513  0.55895  1.0000
  H   H358      1.0  0.39933  0.99044  0.81488  1.0000
  H   H359      1.0  0.48307  0.63722  0.71378  1.0000
  C   C234      1.0  0.39329  0.85282  0.51882  1.0000
  H   H360      1.0  0.36635  0.97951  0.62762  1.0000
  H   H361      1.0  0.43385  0.89275  0.55363  1.0000
  C   C235      1.0  0.41506  0.88299  0.56908  1.0000
  H   H362      1.0  0.42452  0.63739  0.78306  1.0000
  H   H363      1.0  0.44431  0.59890  0.76957  1.0000
  H   H364      1.0  0.47532  0.68030  0.74801  1.0000
  H   H365      1.0  0.46286  0.64924  0.69583  1.0000
  H   H366      1.0  0.41913  0.84338  0.59777  1.0000
  H   H367      1.0  0.49588  0.66867  0.76584  1.0000
  H   H368      1.0  0.30873  0.95155  0.64859  1.0000
  C   C236      1.0  0.41416  0.84172  0.56764  1.0000
  C   C237      1.0  0.47556  0.66521  0.76630  1.0000
  N   N23       1.0  0.33140  0.94773  0.60474  1.0000
  N   N24       1.0  0.34708  0.80158  0.79023  1.0000
  C   C238      1.0  0.34782  0.81403  0.75431  1.0000
  C   C239      1.0  0.33889  0.77381  0.78404  1.0000
  C   C240      1.0  0.32828  0.80348  0.81530  1.0000
  C   C241      1.0  0.37330  0.81501  0.80715  1.0000
  H   H369      1.0  0.36224  0.81356  0.73482  1.0000
  H   H370      1.0  0.35330  0.83482  0.75816  1.0000
  H   H371      1.0  0.32839  0.80423  0.74058  1.0000
  H   H372      1.0  0.48284  0.00617  0.80049  1.0000
  H   H373      1.0  0.41973  0.88541  0.59930  1.0000
  H   H374      1.0  0.35874  0.93493  0.61749  1.0000
  H   H375      1.0  0.32924  0.91070  0.59592  1.0000
  H   H376      1.0  0.50628  0.74492  0.72896  1.0000
  H   H377      1.0  0.26295  0.80097  0.81535  1.0000
  H   H378      1.0  0.38172  0.83205  0.51009  1.0000
  H   H379      1.0  0.38162  0.86228  0.51156  1.0000
  S   S97       1.0  0.55332  0.16336  0.19711  1.0000
  Fe  Fe49      1.0  0.68525  0.13046  0.35270  1.0000
  S   S98       1.0  0.71150  0.12459  0.31310  1.0000
  S   S99       1.0  0.69859  0.15049  0.40904  1.0000
  Fe  Fe50      1.0  0.64281  0.11552  0.29357  1.0000
  S   S100      1.0  0.66611  0.10927  0.24950  1.0000
  S   S101      1.0  0.60020  0.10371  0.28749  1.0000
  Fe  Fe51      1.0  0.67479  0.08824  0.29433  1.0000
  S   S102      1.0  0.67421  0.04951  0.28612  1.0000
  Fe  Fe52      1.0  0.70086  0.14604  0.27144  1.0000
  H   H380      1.0  0.61178  0.50714  0.30440  1.0000
  S   S103      1.0  0.64980  0.09260  0.33763  1.0000
  S   S104      1.0  0.67640  0.15385  0.31175  1.0000
  C   C242      1.0  0.65137  0.02294  0.25844  1.0000
  N   N25       1.0  0.72685  0.09362  0.20419  1.0000
  C   C243      1.0  0.63556  0.02595  0.23232  1.0000
  C   C244      1.0  0.55765  0.37623  0.23227  1.0000
  H   H381      1.0  0.63614  0.04448  0.22983  1.0000
  H   H382      1.0  0.57497  0.17511  0.12188  1.0000
  C   C245      1.0  0.69276  0.13445  0.45256  1.0000
  C   C246      1.0  0.73217  0.12089  0.20336  1.0000
  C   C247      1.0  0.68160  0.10735  0.45542  1.0000
  S   S105      1.0  0.52442  0.41417  0.24605  1.0000
  H   H383      1.0  0.67615  0.09556  0.43051  1.0000
  C   C248      1.0  0.58793  0.12074  0.26179  1.0000
  C   C249      1.0  0.56084  0.11045  0.26031  1.0000
  C   C250      1.0  0.55009  0.12335  0.24050  1.0000
  C   C251      1.0  0.56640  0.14674  0.22203  1.0000
  C   C252      1.0  0.59352  0.15705  0.22333  1.0000
  C   C253      1.0  0.60429  0.14408  0.24313  1.0000
  H   H384      1.0  0.54810  0.09246  0.27477  1.0000
  H   H385      1.0  0.52921  0.11529  0.23983  1.0000
  H   H386      1.0  0.60624  0.17518  0.20918  1.0000
  H   H387      1.0  0.62518  0.15217  0.24416  1.0000
  N   N26       1.0  0.54817  0.15498  0.07738  1.0000
  H   H388      1.0  0.51655  0.13447  0.11529  1.0000
  H   H389      1.0  0.52213  0.36346  0.15310  1.0000
  H   H390      1.0  0.56240  0.42187  0.30339  1.0000
  C   C254      1.0  0.74247  0.08993  0.17527  1.0000
  C   C255      1.0  0.53134  0.37361  0.17949  1.0000
  C   C256      1.0  0.56707  0.15042  0.05656  1.0000
  H   H391      1.0  0.69391  0.05482  0.19866  1.0000
  H   H392      1.0  0.75890  0.23049  0.20181  1.0000
  H   H393      1.0  0.54286  0.12811  0.12153  1.0000
  H   H394      1.0  0.54382  0.37795  0.25140  1.0000
  H   H395      1.0  0.66951  0.07455  0.49245  1.0000
  N   N27       1.0  0.75381  0.21790  0.34934  1.0000
  C   C257      1.0  0.56226  0.17794  0.10180  1.0000
  H   H396      1.0  0.69281  0.07905  0.16942  1.0000
  C   C258      1.0  0.72774  0.21557  0.34905  1.0000
  H   H397      1.0  0.54360  0.17702  0.03322  1.0000
  S   S106      1.0  0.72879  0.17884  0.23224  1.0000
  H   H398      1.0  0.75500  0.10046  0.24691  1.0000
  H   H399      1.0  0.68650  0.07808  0.21817  1.0000
  H   H400      1.0  0.51849  0.34704  0.49233  1.0000
  H   H401      1.0  0.56710  0.36702  0.24812  1.0000
  H   H402      1.0  0.71903  0.21086  0.32074  1.0000
  H   H403      1.0  0.72885  0.06713  0.24345  1.0000
  H   H404      1.0  0.64127  0.11753  0.49597  1.0000
  N   N28       1.0  0.54415  0.36095  0.19890  1.0000
  H   H405      1.0  0.52068  0.14262  0.03242  1.0000
  C   C259      1.0  0.67789  0.09550  0.49060  1.0000
  H   H406      1.0  0.62556  0.13674  0.49836  1.0000
  C   C260      1.0  0.53143  0.13180  0.10023  1.0000
  H   H407      1.0  0.60840  0.10408  0.48017  1.0000
  H   H408      1.0  0.74196  0.18660  0.31034  1.0000
  C   C261      1.0  0.69980  0.14947  0.48522  1.0000
  H   H409      1.0  0.70852  0.17045  0.48329  1.0000
  H   H410      1.0  0.72680  0.12588  0.17621  1.0000
  C   C262      1.0  0.69886  0.07565  0.19713  1.0000
  H   H411      1.0  0.57851  0.37962  0.16479  1.0000
  H   H412      1.0  0.57476  0.19597  0.08562  1.0000
  C   C263      1.0  0.75150  0.19283  0.33788  1.0000
  H   H413      1.0  0.73762  0.09399  0.14708  1.0000
  H   H414      1.0  0.55695  0.13324  0.03782  1.0000
  H   H415      1.0  0.57297  0.39647  0.22494  1.0000
  H   H416      1.0  0.75310  0.13508  0.20853  1.0000
  H   H417      1.0  0.55381  0.34819  0.14844  1.0000
  H   H418      1.0  0.51568  0.37344  0.19690  1.0000
  H   H419      1.0  0.51719  0.16300  0.06604  1.0000
  H   H420      1.0  0.57343  0.35041  0.18779  1.0000
  C   C264      1.0  0.73386  0.08794  0.24104  1.0000
  C   C265      1.0  0.52426  0.33426  0.21007  1.0000
  H   H421      1.0  0.57955  0.14660  0.07575  1.0000
  C   C266      1.0  0.56333  0.35973  0.17385  1.0000
  H   H422      1.0  0.58010  0.16759  0.03910  1.0000
  S   S107      1.0  0.64593  0.49233  0.25719  1.0000
  C   C267      1.0  0.55822  0.43540  0.24971  1.0000
  C   C268      1.0  0.57125  0.45273  0.22039  1.0000
  C   C269      1.0  0.59825  0.46987  0.22197  1.0000
  C   C270      1.0  0.61235  0.46994  0.25309  1.0000
  C   C271      1.0  0.59932  0.45249  0.28236  1.0000
  C   C272      1.0  0.57231  0.43518  0.28067  1.0000
  H   H423      1.0  0.56043  0.45287  0.19628  1.0000
  H   H424      1.0  0.60811  0.48303  0.19913  1.0000
  H   H425      1.0  0.61017  0.45248  0.30653  1.0000
  H   H426      1.0  0.75193  0.20898  0.40750  1.0000
  H   H427      1.0  0.71402  0.19972  0.36803  1.0000
  H   H428      1.0  0.53300  0.32407  0.22532  1.0000
  H   H429      1.0  0.72862  0.23401  0.35803  1.0000
  H   H430      1.0  0.52060  0.11393  0.08296  1.0000
  H   H431      1.0  0.54850  0.18145  0.11870  1.0000
  H   H432      1.0  0.73885  0.06953  0.17532  1.0000
  H   H433      1.0  0.72080  0.12433  0.22504  1.0000
  H   H434      1.0  0.72305  0.09134  0.26361  1.0000
  H   H435      1.0  0.54541  0.39443  0.17296  1.0000
  H   H436      1.0  0.51479  0.31135  0.40320  1.0000
  C   C273      1.0  0.53178  0.15968  0.05107  1.0000
  C   C274      1.0  0.62237  0.11664  0.50191  1.0000
  H   H437      1.0  0.51363  0.32202  0.18571  1.0000
  H   H438      1.0  0.73953  0.17698  0.35791  1.0000
  S   S108      1.0  0.54815  0.12939  0.80775  1.0000
  Fe  Fe53      1.0  0.68006  0.11346  0.62226  1.0000
  S   S109      1.0  0.70764  0.11915  0.66906  1.0000
  S   S110      1.0  0.67943  0.09464  0.56686  1.0000
  Fe  Fe54      1.0  0.64722  0.12851  0.67104  1.0000
  S   S111      1.0  0.67173  0.13491  0.72164  1.0000
  S   S112      1.0  0.61378  0.13638  0.66439  1.0000
  Fe  Fe55      1.0  0.70612  0.15571  0.68314  1.0000
  S   S113      1.0  0.73711  0.19864  0.69082  1.0000
  Fe  Fe56      1.0  0.67111  0.09791  0.70391  1.0000
  S   S114      1.0  0.66675  0.06691  0.74548  1.0000
  S   S115      1.0  0.68126  0.15129  0.63318  1.0000
  S   S116      1.0  0.64382  0.09008  0.65637  1.0000
  C   C275      1.0  0.64197  0.03356  0.74435  1.0000
  H   H439      1.0  0.75858  0.18020  0.74964  1.0000
  H   H440      1.0  0.62173  0.03705  0.69708  1.0000
  H   H441      1.0  0.52243  0.41085  0.75893  1.0000
  H   H442      1.0  0.70085  0.44681  0.80556  1.0000
  C   C276      1.0  0.68498  0.11054  0.52323  1.0000
  H   H443      1.0  0.68330  0.02426  0.59031  1.0000
  H   H444      1.0  0.65109  0.12485  0.56345  1.0000
  N   N29       1.0  0.51826  0.41329  0.56711  1.0000
  H   H445      1.0  0.70159  0.14945  0.54523  1.0000
  H   H446      1.0  0.55523  0.44092  0.59051  1.0000
  C   C277      1.0  0.56532  0.13053  0.76710  1.0000
  C   C278      1.0  0.55926  0.13690  0.73254  1.0000
  C   C279      1.0  0.57407  0.13838  0.70104  1.0000
  C   C280      1.0  0.59471  0.13314  0.70388  1.0000
  C   C281      1.0  0.60026  0.12608  0.73826  1.0000
  C   C282      1.0  0.58579  0.12507  0.76981  1.0000
  H   H447      1.0  0.54352  0.14118  0.73022  1.0000
  H   H448      1.0  0.56965  0.14383  0.67449  1.0000
  H   H449      1.0  0.61583  0.12160  0.74068  1.0000
  H   H450      1.0  0.59048  0.12000  0.79647  1.0000
  N   N30       1.0  0.67772  0.20931  0.73610  1.0000
  C   C283      1.0  0.65314  0.18862  0.75250  1.0000
  C   C284      1.0  0.67898  0.20339  0.69653  1.0000
  C   C285      1.0  0.70012  0.21053  0.75610  1.0000
  C   C286      1.0  0.67866  0.23471  0.73917  1.0000
  H   H451      1.0  0.67458  0.42115  0.75168  1.0000
  H   H452      1.0  0.65206  0.16929  0.75124  1.0000
  H   H453      1.0  0.63579  0.18663  0.73745  1.0000
  H   H454      1.0  0.66228  0.20205  0.68051  1.0000
  H   H455      1.0  0.69742  0.21843  0.68326  1.0000
  H   H456      1.0  0.67843  0.18443  0.69328  1.0000
  H   H457      1.0  0.71902  0.22592  0.74436  1.0000
  H   H458      1.0  0.70027  0.19178  0.75395  1.0000
  H   H459      1.0  0.69983  0.21481  0.78612  1.0000
  H   H460      1.0  0.66199  0.23443  0.72442  1.0000
  H   H461      1.0  0.69697  0.25071  0.72691  1.0000
  H   H462      1.0  0.67785  0.23985  0.76869  1.0000
  H   H463      1.0  0.51225  0.42491  0.62110  1.0000
  H   H464      1.0  0.71362  0.06657  0.62124  1.0000
  H   H465      1.0  0.65118  0.19260  0.78219  1.0000
  H   H466      1.0  0.54507  0.45306  0.55192  1.0000
  H   H467      1.0  0.51566  0.40052  0.51044  1.0000
  H   H468      1.0  0.51941  0.41728  0.80680  1.0000
  H   H469      1.0  0.69272  0.01070  0.68794  1.0000
  C   C287      1.0  0.62290  0.02384  0.71669  1.0000
  H   H470      1.0  0.72316  0.44685  0.74702  1.0000
  H   H471      1.0  0.68264  0.03194  0.70822  1.0000
  H   H472      1.0  0.71741  0.48183  0.80413  1.0000
  N   N31       1.0  0.61281  0.10641  0.53964  1.0000
  H   H473      1.0  0.58962  0.12507  0.54390  1.0000
  N   N32       1.0  0.68352  0.03237  0.64851  1.0000
  C   C288      1.0  0.63193  0.12374  0.56741  1.0000
  H   H474      1.0  0.68258  0.46358  0.80759  1.0000
  H   H475      1.0  0.53014  0.39525  0.60873  1.0000
  H   H476      1.0  0.66682  0.05157  0.61747  1.0000
  H   H477      1.0  0.65623  0.43784  0.75420  1.0000
  C   C289      1.0  0.67411  0.43884  0.74217  1.0000
  H   H478      1.0  0.62529  0.11660  0.59618  1.0000
  H   H479      1.0  0.71288  0.06901  0.67085  1.0000
  H   H480      1.0  0.64394  0.02435  0.64500  1.0000
  H   H481      1.0  0.62797  0.08003  0.53785  1.0000
  H   H482      1.0  0.52933  0.38378  0.56258  1.0000
  C   C290      1.0  0.51936  0.39058  0.58208  1.0000
  C   C291      1.0  0.52873  0.45911  0.76650  1.0000
  H   H483      1.0  0.53872  0.46419  0.79391  1.0000
  H   H484      1.0  0.55685  0.43063  0.54409  1.0000
  H   H485      1.0  0.59483  0.06617  0.52289  1.0000
  H   H486      1.0  0.67847  0.48550  0.75131  1.0000
  H   H487      1.0  0.52018  0.26272  0.76672  1.0000
  H   H488      1.0  0.65725  0.02336  0.79182  1.0000
  H   H489      1.0  0.69516  0.48622  0.70941  1.0000
  S   S117      1.0  0.54483  0.41741  0.67835  1.0000
  C   C292      1.0  0.60935  0.07992  0.54313  1.0000
  S   S118      1.0  0.63356  0.46258  0.80098  1.0000
  C   C293      1.0  0.69980  0.46385  0.79448  1.0000
  C   C294      1.0  0.54505  0.43550  0.56316  1.0000
  C   C295      1.0  0.56921  0.42948  0.71282  1.0000
  C   C296      1.0  0.58679  0.45639  0.71442  1.0000
  C   C297      1.0  0.60624  0.46675  0.74179  1.0000
  C   C298      1.0  0.60855  0.45021  0.76738  1.0000
  C   C299      1.0  0.59097  0.42327  0.76577  1.0000
  C   C300      1.0  0.57122  0.41292  0.73872  1.0000
  H   H490      1.0  0.58533  0.46936  0.69457  1.0000
  H   H491      1.0  0.61947  0.48755  0.74293  1.0000
  H   H492      1.0  0.59259  0.41034  0.78552  1.0000
  H   H493      1.0  0.55780  0.39212  0.73768  1.0000
  N   N33       1.0  0.69783  0.46304  0.75353  1.0000
  C   C301      1.0  0.72110  0.46363  0.73728  1.0000
  H   H494      1.0  0.60273  0.07183  0.57154  1.0000
  C   C302      1.0  0.69620  0.48585  0.74023  1.0000
  H   H495      1.0  0.54028  0.07213  0.78567  1.0000
  H   H496      1.0  0.73929  0.48181  0.74499  1.0000
  H   H497      1.0  0.72020  0.46292  0.70641  1.0000
  H   H498      1.0  0.66613  0.05471  0.66689  1.0000
  H   H499      1.0  0.54256  0.45843  0.74607  1.0000
  H   H500      1.0  0.72521  0.04961  0.65026  1.0000
  H   H501      1.0  0.63517  0.14396  0.56574  1.0000
  C   C303      1.0  0.66422  0.04110  0.64422  1.0000
  H   H502      1.0  0.52538  0.47536  0.75818  1.0000
  C   C304      1.0  0.67929  0.01862  0.68440  1.0000
  C   C305      1.0  0.69585  0.13760  0.52039  1.0000
  C   C306      1.0  0.71002  0.05537  0.64761  1.0000
  C   C307      1.0  0.58765  0.10536  0.54633  1.0000
  H   H503      1.0  0.57259  0.09230  0.52610  1.0000
  H   H504      1.0  0.67176  0.43768  0.71146  1.0000
  H   H505      1.0  0.71341  0.50457  0.74899  1.0000
  H   H506      1.0  0.58014  0.09802  0.57481  1.0000
  C   C308      1.0  0.64264  0.01605  0.77023  1.0000
  Fe  Fe57      1.0  0.65874  0.50649  0.80444  1.0000
  H   H507      1.0  0.64646  0.50226  0.99773  1.0000
  H   H508      1.0  0.52741  0.04642  0.75185  1.0000
  H   H509      1.0  0.52995  0.03920  0.79967  1.0000
  C   C309      1.0  0.68049  0.01450  0.61778  1.0000
  C   C310      1.0  0.52526  0.05132  0.78101  1.0000
  H   H510      1.0  0.56729  0.83585  0.33685  1.0000
  Fe  Fe58      1.0  0.67831  0.57502  0.18406  1.0000
  S   S119      1.0  0.64970  0.53393  0.16761  1.0000
  S   S120      1.0  0.65750  0.59880  0.18036  1.0000
  Fe  Fe59      1.0  0.72284  0.56178  0.18864  1.0000
  C   C311      1.0  0.64155  0.60426  0.07063  1.0000
  S   S121      1.0  0.69643  0.51997  0.17202  1.0000
  Fe  Fe60      1.0  0.68068  0.53632  0.12898  1.0000
  Fe  Fe61      1.0  0.66797  0.52181  0.21173  1.0000
  Fe  Fe62      1.0  0.52901  0.86204  0.20376  1.0000
  S   S122      1.0  0.70861  0.57807  0.14297  1.0000
  S   S123      1.0  0.69513  0.56285  0.23096  1.0000
  Fe  Fe63      1.0  0.59050  0.65874  0.30753  1.0000
  S   S124      1.0  0.55621  0.62533  0.33573  1.0000
  S   S125      1.0  0.62790  0.65637  0.30551  1.0000
  Fe  Fe64      1.0  0.53305  0.62719  0.28774  1.0000
  C   C312      1.0  0.64885  0.61346  0.21666  1.0000
  C   C313      1.0  0.62678  0.61633  0.21223  1.0000
  C   C314      1.0  0.61977  0.62885  0.23953  1.0000
  C   C315      1.0  0.63509  0.63915  0.27131  1.0000
  C   C316      1.0  0.65707  0.63611  0.27586  1.0000
  C   C317      1.0  0.66387  0.62322  0.24880  1.0000
  H   H511      1.0  0.61513  0.60907  0.18736  1.0000
  H   H512      1.0  0.60288  0.63112  0.23559  1.0000
  Fe  Fe65      1.0  0.55012  0.65643  0.36237  1.0000
  H   H513      1.0  0.68125  0.62174  0.25222  1.0000
  H   H514      1.0  0.58248  0.98281  0.05302  1.0000
  C   C318      1.0  0.67823  0.53383  0.02706  1.0000
  C   C319      1.0  0.70105  0.55794  0.02310  1.0000
  H   H515      1.0  0.62237  0.52499  0.24024  1.0000
  H   H516      1.0  0.71240  0.56791  0.04736  1.0000
  H   H517      1.0  0.63138  0.56489  0.11743  1.0000
  H   H518      1.0  0.65911  0.59278  0.00779  1.0000
  S   S126      1.0  0.53306  0.65212  0.42075  1.0000
  H   H519      1.0  0.62528  0.56919  0.01501  1.0000
  C   C320      1.0  0.61917  0.00499  0.20892  1.0000
  H   H520      1.0  0.60993  0.56807  0.32522  1.0000
  S   S127      1.0  0.56778  0.65877  0.25784  1.0000
  H   H521      1.0  0.53627  0.91750  0.09132  1.0000
  H   H522      1.0  0.53063  0.84494  0.34390  1.0000
  C   C321      1.0  0.67488  0.59245  0.07729  1.0000
  C   C322      1.0  0.53331  0.65073  0.49698  1.0000
  C   C323      1.0  0.58733  0.67584  0.50378  1.0000
  C   C324      1.0  0.64580  0.55789  0.29627  1.0000
  H   H523      1.0  0.64973  0.55997  0.02059  1.0000
  C   C325      1.0  0.51850  0.79501  0.33162  1.0000
  H   H524      1.0  0.54109  0.94930  0.08086  1.0000
  C   C326      1.0  0.65012  0.99856  0.26130  1.0000
  H   H525      1.0  0.65500  0.62206  0.05456  1.0000
  H   H526      1.0  0.60733  0.00770  0.18851  1.0000
  C   C327      1.0  0.64535  0.57602  0.02538  1.0000
  H   H527      1.0  0.63421  0.54396  0.08397  1.0000
  C   C328      1.0  0.52303  0.80811  0.26745  1.0000
  H   H528      1.0  0.61707  0.58029  0.27871  1.0000
  C   C329      1.0  0.60718  0.56208  0.29552  1.0000
  H   H529      1.0  0.66919  0.64423  0.30016  1.0000
  N   N34       1.0  0.61773  0.54458  0.28724  1.0000
  C   C330      1.0  0.59176  0.97173  0.06380  1.0000
  H   H530      1.0  0.62130  0.59806  0.06176  1.0000
  H   H531      1.0  0.65414  0.54487  0.29124  1.0000
  C   C331      1.0  0.56279  0.93361  0.02780  1.0000
  N   N35       1.0  0.64787  0.58323  0.06509  1.0000
  C   C332      1.0  0.62983  0.56015  0.08730  1.0000
  H   H532      1.0  0.75026  0.54619  0.26245  1.0000
  H   H533      1.0  0.64939  0.56404  0.32585  1.0000
  C   C333      1.0  0.61420  0.53780  0.24739  1.0000
  C   C334      1.0  0.57967  0.88243  0.01939  1.0000
  S   S128      1.0  0.52383  0.65527  0.31623  1.0000
  C   C335      1.0  0.54873  0.65823  0.46461  1.0000
  H   H534      1.0  0.68927  0.60898  0.05999  1.0000
  C   C336      1.0  0.57585  0.67075  0.46820  1.0000
  H   H535      1.0  0.60578  0.52486  0.33987  1.0000
  H   H536      1.0  0.67974  0.57657  0.07552  1.0000
  Fe  Fe66      1.0  0.55278  0.86647  0.12608  1.0000
  S   S129      1.0  0.59374  0.88741  0.14851  1.0000
  S   S130      1.0  0.53723  0.85558  0.06683  1.0000
  H   H537      1.0  0.58795  0.67669  0.44356  1.0000
  S   S131      1.0  0.56808  0.88330  0.23128  1.0000
  Fe  Fe67      1.0  0.58057  0.91099  0.18270  1.0000
  S   S132      1.0  0.59802  0.95548  0.17982  1.0000
  Fe  Fe68      1.0  0.57754  0.85764  0.19547  1.0000
  S   S133      1.0  0.59664  0.83701  0.22500  1.0000
  S   S134      1.0  0.54026  0.89111  0.15789  1.0000
  S   S135      1.0  0.53784  0.83530  0.17025  1.0000
  Fe  Fe69      1.0  0.55985  0.68736  0.28881  1.0000
  H   H538      1.0  0.62427  0.55554  0.22962  1.0000
  S   S136      1.0  0.55013  0.71451  0.25462  1.0000
  C   C337      1.0  0.58623  0.92970  0.07989  1.0000
  H   H539      1.0  0.66229  0.99600  0.28130  1.0000
  S   S137      1.0  0.58585  0.69033  0.33700  1.0000
  H   H540      1.0  0.55801  0.94498  0.11927  1.0000
  H   H541      1.0  0.59485  0.93710  0.10769  1.0000
  N   N36       1.0  0.53151  0.81729  0.30574  1.0000
  C   C338      1.0  0.55114  0.93865  0.09029  1.0000
  C   C339      1.0  0.60384  0.52047  0.30963  1.0000
  H   H542      1.0  0.57049  0.84547  0.28898  1.0000
  C   C340      1.0  0.58365  0.80284  0.23248  1.0000
  C   C341      1.0  0.59675  0.79434  0.25644  1.0000
  C   C342      1.0  0.58688  0.76750  0.26373  1.0000
  C   C343      1.0  0.56374  0.74875  0.24701  1.0000
  C   C344      1.0  0.55064  0.75728  0.22310  1.0000
  C   C345      1.0  0.56051  0.78408  0.21581  1.0000
  H   H543      1.0  0.61473  0.80862  0.26939  1.0000
  H   H544      1.0  0.59728  0.76134  0.28206  1.0000
  H   H545      1.0  0.53279  0.74305  0.20987  1.0000
  H   H546      1.0  0.55030  0.79020  0.19706  1.0000
  H   H547      1.0  0.56612  0.81417  0.30089  1.0000
  C   C346      1.0  0.56006  0.82868  0.30838  1.0000
  H   H548      1.0  0.60226  0.93208  0.06120  1.0000
  H   H549      1.0  0.59198  0.88627  0.04342  1.0000
  H   H550      1.0  0.64331  0.60999  0.10049  1.0000
  C   C347      1.0  0.63324  0.97740  0.23848  1.0000
  C   C348      1.0  0.61781  0.98057  0.21187  1.0000
  H   H551      1.0  0.54813  0.91240  0.02845  1.0000
  H   H552      1.0  0.63261  0.95884  0.24093  1.0000
  S   S138      1.0  0.66576  0.51954  0.07122  1.0000
  H   H553      1.0  0.57241  0.90848  0.08301  1.0000
  H   H554      1.0  0.60924  0.55257  0.07890  1.0000
  C   C349      1.0  0.52441  0.83732  0.31531  1.0000
  H   H555      1.0  0.52720  0.79235  0.25963  1.0000
  N   N37       1.0  0.57297  0.94344  0.06539  1.0000
  H   H556      1.0  0.59326  0.52729  0.23951  1.0000
  H   H557      1.0  0.67781  0.59921  0.10665  1.0000
  H   H558      1.0  0.58601  0.55262  0.28922  1.0000
  C   C350      1.0  0.55260  0.86737  0.02317  1.0000
  C   C351      1.0  0.52249  0.65411  0.19036  1.0000
  H   H559      1.0  0.52433  0.80121  0.36085  1.0000
  H   H560      1.0  0.65704  0.57566  0.27890  1.0000
  H   H561      1.0  0.53710  0.67227  0.20460  1.0000
  H   H562      1.0  0.60855  0.97596  0.04539  1.0000
  H   H563      1.0  0.59966  0.97951  0.09195  1.0000
  H   H564      1.0  0.55311  0.94389  0.01557  1.0000
  H   H565      1.0  0.53329  0.82425  0.24721  1.0000
  H   H566      1.0  0.53362  0.85422  0.29587  1.0000
  H   H567      1.0  0.52360  0.77963  0.32508  1.0000
  H   H568      1.0  0.52836  0.65586  0.16070  1.0000
  H   H569      1.0  0.52406  0.63762  0.20253  1.0000
  H   H570      1.0  0.57856  0.93606  0.00844  1.0000
  H   H571      1.0  0.51232  0.64096  0.49448  1.0000
  H   H572      1.0  0.58271  0.50945  0.30281  1.0000
  Fe  Fe70      1.0  0.71204  0.55115  0.78100  1.0000
  S   S139      1.0  0.69860  0.52443  0.83025  1.0000
  S   S140      1.0  0.75015  0.56458  0.74930  1.0000
  Fe  Fe71      1.0  0.66321  0.55834  0.78352  1.0000
  S   S141      1.0  0.64712  0.53262  0.83418  1.0000
  S   S142      1.0  0.63835  0.56895  0.74677  1.0000
  Fe  Fe72      1.0  0.68849  0.55312  0.85555  1.0000
  S   S143      1.0  0.70620  0.57149  0.91155  1.0000
  S   S144      1.0  0.70378  0.58101  0.80685  1.0000
  S   S145      1.0  0.67300  0.53097  0.75313  1.0000
  S   S146      1.0  0.55808  0.62952  0.66727  1.0000
  C   C352      1.0  0.65108  0.63954  0.65004  1.0000
  C   C353      1.0  0.61340  0.63131  0.75386  1.0000
  C   C354      1.0  0.60033  0.60954  0.73081  1.0000
  C   C355      1.0  0.60806  0.59053  0.72949  1.0000
  C   C356      1.0  0.62861  0.59276  0.75167  1.0000
  C   C357      1.0  0.64137  0.61425  0.77533  1.0000
  C   C358      1.0  0.63386  0.63350  0.77624  1.0000
  H   H573      1.0  0.58422  0.60728  0.71406  1.0000
  H   H574      1.0  0.59797  0.57389  0.71130  1.0000
  H   H575      1.0  0.65728  0.61626  0.79243  1.0000
  C   C359      1.0  0.59582  0.74104  0.59162  1.0000
  C   C360      1.0  0.69510  0.55632  0.95558  1.0000
  C   C361      1.0  0.67248  0.53207  0.95948  1.0000
  S   S147      1.0  0.53634  0.65125  0.73595  1.0000
  H   H576      1.0  0.57759  0.76052  0.53979  1.0000
  H   H577      1.0  0.64405  0.65024  0.79424  1.0000
  H   H578      1.0  0.65455  0.62590  0.63284  1.0000
  H   H579      1.0  0.64191  0.62926  0.67651  1.0000
  H   H580      1.0  0.53253  0.64934  0.55700  1.0000
  H   H581      1.0  0.66135  0.52193  0.93515  1.0000
  C   C362      1.0  0.62997  0.66541  0.65491  1.0000
  H   H582      1.0  0.53138  0.70984  0.56988  1.0000
  N   N38       1.0  0.63450  0.64794  0.63051  1.0000
  H   H583      1.0  0.64857  0.68270  0.66368  1.0000
  S   S148      1.0  0.52600  0.66027  0.64868  1.0000
  H   H584      1.0  0.63532  0.66841  0.58069  1.0000
  H   H585      1.0  0.67038  0.65647  0.65735  1.0000
  H   H586      1.0  0.55923  0.72173  0.64484  1.0000
  Fe  Fe73      1.0  0.57485  0.65654  0.71591  1.0000
  C   C363      1.0  0.60560  0.99679  0.71382  1.0000
  Fe  Fe74      1.0  0.56519  0.66519  0.63538  1.0000
  H   H587      1.0  0.75126  0.60549  0.85907  1.0000
  S   S149      1.0  0.60537  0.65657  0.75429  1.0000
  H   H588      1.0  0.65141  0.64950  0.57700  1.0000
  C   C364      1.0  0.60927  0.62480  0.62105  1.0000
  H   H589      1.0  0.59893  0.61358  0.64639  1.0000
  C   C365      1.0  0.54474  0.65552  0.53249  1.0000
  H   H590      1.0  0.61944  0.65515  0.68058  1.0000
  C   C366      1.0  0.57185  0.66825  0.53607  1.0000
  H   H591      1.0  0.61802  0.67261  0.64086  1.0000
  H   H592      1.0  0.59617  0.63052  0.60666  1.0000
  C   C367      1.0  0.57047  0.75988  0.56865  1.0000
  H   H593      1.0  0.61189  0.61129  0.60237  1.0000
  S   S150      1.0  0.58716  0.67582  0.58029  1.0000
  C   C368      1.0  0.70931  0.56917  0.98758  1.0000
  C   C369      1.0  0.64758  0.66204  0.59607  1.0000
  H   H594      1.0  0.51599  0.85007  0.99396  1.0000
  S   S151      1.0  0.54232  0.87216  0.75221  1.0000
  Fe  Fe75      1.0  0.56921  0.89012  0.85311  1.0000
  S   S152      1.0  0.59455  0.89597  0.80309  1.0000
  S   S153      1.0  0.59022  0.89928  0.90896  1.0000
  Fe  Fe76      1.0  0.57190  0.91193  0.77408  1.0000
  S   S154      1.0  0.58611  0.94524  0.73182  1.0000
  Fe  Fe77      1.0  0.56313  0.85580  0.78575  1.0000
  S   S155      1.0  0.57983  0.82914  0.77123  1.0000
  S   S156      1.0  0.54908  0.90951  0.82543  1.0000
  S   S157      1.0  0.53887  0.84954  0.83701  1.0000
  H   H595      1.0  0.66654  0.67981  0.60215  1.0000
  H   H596      1.0  0.60090  0.79593  0.75402  1.0000
  S   S158      1.0  0.52740  0.71169  0.71173  1.0000
  H   H597      1.0  0.61777  0.86774  0.88436  1.0000
  S   S159      1.0  0.58454  0.69288  0.68310  1.0000
  H   H598      1.0  0.74595  0.56262  0.87676  1.0000
  H   H599      1.0  0.66068  0.99692  0.61797  1.0000
  H   H600      1.0  0.65895  0.00203  0.68708  1.0000
  H   H601      1.0  0.56232  0.81311  0.93433  1.0000
  H   H602      1.0  0.60310  0.74001  0.56346  1.0000
  N   N39       1.0  0.58901  0.82690  0.88803  1.0000
  C   C370      1.0  0.60394  0.85125  0.86651  1.0000
  C   C371      1.0  0.56472  0.79647  0.75460  1.0000
  C   C372      1.0  0.53799  0.78185  0.74752  1.0000
  C   C373      1.0  0.52696  0.75596  0.73448  1.0000
  C   C374      1.0  0.54245  0.74433  0.72850  1.0000
  C   C375      1.0  0.56918  0.75891  0.73565  1.0000
  C   C376      1.0  0.58020  0.78481  0.74862  1.0000
  H   H603      1.0  0.52583  0.79052  0.75193  1.0000
  H   H604      1.0  0.61008  0.75995  0.60445  1.0000
  H   H605      1.0  0.58135  0.75026  0.73132  1.0000
  C   C377      1.0  0.55157  0.71310  0.57134  1.0000
  C   C378      1.0  0.57514  0.88695  0.95258  1.0000
  H   H606      1.0  0.54008  0.73530  0.62809  1.0000
  C   C379      1.0  0.54813  0.87153  0.95624  1.0000
  H   H607      1.0  0.61180  0.90393  0.98161  1.0000
  H   H608      1.0  0.53581  0.86720  0.93207  1.0000
  C   C380      1.0  0.62489  0.98902  0.76791  1.0000
  C   C381      1.0  0.60654  0.97921  0.73927  1.0000
  C   C382      1.0  0.59084  0.89229  0.98429  1.0000
  H   H609      1.0  0.62591  0.97570  0.78757  1.0000
  H   H610      1.0  0.59137  0.98937  0.69171  1.0000
  H   H611      1.0  0.61508  0.84885  0.84336  1.0000
  Fe  Fe78      1.0  0.52035  0.62683  0.68476  1.0000
  H   H612      1.0  0.58374  0.77899  0.58197  1.0000
  H   H613      1.0  0.57299  0.75640  0.64299  1.0000
  N   N40       1.0  0.56947  0.73799  0.58990  1.0000
  Fe  Fe79      1.0  0.54454  0.68531  0.69901  1.0000
  H   H614      1.0  0.55086  0.75808  0.56677  1.0000
  H   H615      1.0  0.56056  0.83718  0.90591  1.0000
  H   H616      1.0  0.58147  0.80224  0.84029  1.0000
  C   C383      1.0  0.57085  0.80583  0.86305  1.0000
  H   H617      1.0  0.59584  0.72524  0.60845  1.0000
  C   C384      1.0  0.57413  0.83108  0.91764  1.0000
  H   H618      1.0  0.75535  0.55980  0.83034  1.0000
  C   C385      1.0  0.56006  0.73791  0.62800  1.0000
  C   C386      1.0  0.60721  0.81954  0.90486  1.0000
  H   H619      1.0  0.61878  0.81633  0.88318  1.0000
  H   H620      1.0  0.62121  0.83512  0.92377  1.0000
  H   H621      1.0  0.59661  0.80125  0.92138  1.0000
  H   H622      1.0  0.55903  0.78717  0.87826  1.0000
  H   H623      1.0  0.58730  0.84681  0.93701  1.0000
  H   H624      1.0  0.55712  0.81097  0.84938  1.0000
  H   H625      1.0  0.59076  0.85736  0.85379  1.0000
  H   H626      1.0  0.72691  0.58788  0.98488  1.0000
  H   H627      1.0  0.55804  0.71242  0.54247  1.0000
  C   C387      1.0  0.66409  0.52095  0.99503  1.0000
  C   C388      1.0  0.53696  0.86181  0.99136  1.0000
  H   H628      1.0  0.55066  0.69624  0.58638  1.0000
  Fe  Fe80      1.0  0.52059  0.86920  0.80496  1.0000
  H   H629      1.0  0.75440  0.52502  0.79356  1.0000
  H   H630      1.0  0.60832  0.68572  0.50617  1.0000
  H   H631      1.0  0.69489  0.00765  0.61988  1.0000
  Fe  Fe81      1.0  0.87445  0.30434  0.21462  1.0000
  C   C389      1.0  0.81501  0.24089  0.07616  1.0000
  S   S160      1.0  0.85114  0.26162  0.23408  1.0000
  S   S161      1.0  0.90463  0.33633  0.25090  1.0000
  C   C390      1.0  0.82432  0.27834  0.11370  1.0000
  S   S162      1.0  0.90188  0.31695  0.16528  1.0000
  H   H632      1.0  0.82063  0.28853  0.09043  1.0000
  H   H633      1.0  0.80587  0.26693  0.12952  1.0000
  C   C391      1.0  0.85865  0.27763  0.07829  1.0000
  H   H634      1.0  0.85479  0.28660  0.05363  1.0000
  H   H635      1.0  0.00400  0.43955  0.29866  1.0000
  S   S163      1.0  0.85550  0.32757  0.19822  1.0000
  C   C392      1.0  0.78040  0.19682  0.25326  1.0000
  H   H636      1.0  0.93396  0.39197  0.28716  1.0000
  C   C393      1.0  0.80727  0.21540  0.25313  1.0000
  C   C394      1.0  0.81687  0.23958  0.23490  1.0000
  C   C395      1.0  0.79915  0.24498  0.21683  1.0000
  H   H637      1.0  0.83847  0.29383  0.13247  1.0000
  H   H638      1.0  0.82081  0.21093  0.26699  1.0000
  H   H639      1.0  0.80615  0.26350  0.20284  1.0000
  H   H640      1.0  0.00172  0.43118  0.25046  1.0000
  H   H641      1.0  0.81010  0.24936  0.05190  1.0000
  H   H642      1.0  0.84876  0.23732  0.12302  1.0000
  C   C396      1.0  0.84060  0.24980  0.13207  1.0000
  H   H643      1.0  0.93560  0.42171  0.23660  1.0000
  N   N41       1.0  0.83465  0.26164  0.10007  1.0000
  H   H644      1.0  0.82295  0.23761  0.14919  1.0000
  H   H645      1.0  0.96529  0.45157  0.22752  1.0000
  H   H646      1.0  0.85154  0.34280  0.01840  1.0000
  H   H647      1.0  0.80298  0.47157  0.26289  1.0000
  H   H648      1.0  0.85518  0.26500  0.15085  1.0000
  H   H649      1.0  0.86743  0.26595  0.06809  1.0000
  H   H650      1.0  0.87366  0.29398  0.09512  1.0000
  C   C397      1.0  0.90434  0.33938  0.04752  1.0000
  C   C398      1.0  0.88183  0.34146  0.04986  1.0000
  C   C399      1.0  0.99580  0.44104  0.27155  1.0000
  H   H651      1.0  0.91453  0.33964  0.07256  1.0000
  Fe  Fe82      1.0  0.88418  0.34171  0.15039  1.0000
  S   S164      1.0  0.86807  0.34259  0.09324  1.0000
  S   S165      1.0  0.88818  0.49329  0.24693  1.0000
  C   C400      1.0  0.77234  0.22620  0.21635  1.0000
  S   S166      1.0  0.91402  0.37679  0.18164  1.0000
  Fe  Fe83      1.0  0.88736  0.36050  0.23067  1.0000
  S   S167      1.0  0.88321  0.38480  0.27610  1.0000
  C   C401      1.0  0.99928  0.38176  0.23109  1.0000
  C   C402      1.0  0.88779  0.46366  0.25555  1.0000
  C   C403      1.0  0.88715  0.44828  0.22536  1.0000
  C   C404      1.0  0.88601  0.42417  0.23120  1.0000
  C   C405      1.0  0.88516  0.41514  0.26734  1.0000
  C   C406      1.0  0.88593  0.43058  0.29752  1.0000
  C   C407      1.0  0.88739  0.45483  0.29169  1.0000
  H   H652      1.0  0.88747  0.45501  0.19732  1.0000
  H   H653      1.0  0.88539  0.41242  0.20776  1.0000
  H   H654      1.0  0.88526  0.42368  0.32556  1.0000
  H   H655      1.0  0.88782  0.46650  0.31512  1.0000
  S   S168      1.0  0.97475  0.37270  0.19662  1.0000
  C   C408      1.0  0.76473  0.22438  0.38723  1.0000
  H   H656      1.0  0.79663  0.22841  0.09170  1.0000
  H   H657      1.0  0.95922  0.39002  0.26262  1.0000
  H   H658      1.0  0.93836  0.43415  0.30276  1.0000
  H   H659      1.0  0.80404  0.45941  0.19716  1.0000
  H   H660      1.0  0.00532  0.46207  0.26391  1.0000
  H   H661      1.0  0.76677  0.24320  0.39692  1.0000
  H   H662      1.0  0.96708  0.44186  0.32910  1.0000
  H   H663      1.0  0.96254  0.42087  0.21474  1.0000
  C   C409      1.0  0.76273  0.20207  0.23472  1.0000
  C   C410      1.0  0.82070  0.49061  0.25699  1.0000
  H   H664      1.0  0.83899  0.47645  0.19870  1.0000
  C   C411      1.0  0.99430  0.36918  0.26552  1.0000
  H   H665      1.0  0.96820  0.46384  0.29358  1.0000
  H   H666      1.0  0.82227  0.22808  0.06511  1.0000
  H   H667      1.0  0.96346  0.39900  0.31074  1.0000
  H   H668      1.0  0.86264  0.50540  0.50464  1.0000
  N   N42       1.0  0.96713  0.42906  0.27325  1.0000
  H   H669      1.0  0.77996  0.48259  0.21466  1.0000
  Fe  Fe84      1.0  0.93017  0.35124  0.20034  1.0000
  C   C412      1.0  0.95723  0.43091  0.23639  1.0000
  H   H670      1.0  0.97491  0.35346  0.27191  1.0000
  H   H671      1.0  0.77351  0.17823  0.26698  1.0000
  H   H672      1.0  0.78433  0.22611  0.38845  1.0000
  H   H673      1.0  0.83791  0.48846  0.26374  1.0000
  C   C413      1.0  0.77116  0.23865  0.32317  1.0000
  C   C414      1.0  0.95547  0.40132  0.28399  1.0000
  C   C415      1.0  0.95993  0.44287  0.30094  1.0000
  C   C416      1.0  0.82172  0.47884  0.19315  1.0000
  H   H674      1.0  0.82261  0.48440  0.16343  1.0000
  H   H675      1.0  0.77090  0.19414  0.33603  1.0000
  C   C417      1.0  0.86896  0.34121  0.01692  1.0000
  N   N43       1.0  0.82149  0.49868  0.21794  1.0000
  H   H676      1.0  0.76371  0.10318  0.17970  1.0000
  H   H677      1.0  0.79084  0.24051  0.32177  1.0000
  C   C418      1.0  0.79837  0.50132  0.21015  1.0000
  C   C419      1.0  0.91368  0.33686  0.01259  1.0000
  H   H678      1.0  0.82073  0.50523  0.27653  1.0000
  H   H679      1.0  0.79841  0.50764  0.18101  1.0000
  H   H680      1.0  0.93107  0.33521  0.01105  1.0000
  H   H681      1.0  0.01081  0.36588  0.31732  1.0000
  H   H682      1.0  0.77381  0.25800  0.33130  1.0000
  H   H683      1.0  0.76311  0.23449  0.29448  1.0000
  H   H684      1.0  0.87218  0.28955  0.68885  1.0000
  S   S169      1.0  0.90053  0.30878  0.83502  1.0000
  C   C420      1.0  0.87998  0.28989  0.71703  1.0000
  C   C421      1.0  0.90514  0.49992  0.58726  1.0000
  Fe  Fe85      1.0  0.86148  0.30177  0.81515  1.0000
  S   S170      1.0  0.83293  0.25854  0.80259  1.0000
  C   C422      1.0  0.86652  0.24415  0.71377  1.0000
  H   H685      1.0  0.91703  0.26254  0.69567  1.0000
  C   C423      1.0  0.99929  0.37439  0.72849  1.0000
  S   S171      1.0  0.91317  0.33279  0.93649  1.0000
  C   C424      1.0  0.89868  0.27166  0.75870  1.0000
  H   H686      1.0  0.88321  0.26691  0.77987  1.0000
  H   H687      1.0  0.90579  0.25759  0.76249  1.0000
  H   H688      1.0  0.91515  0.29149  0.76520  1.0000
  C   C425      1.0  0.79960  0.25604  0.74592  1.0000
  C   C426      1.0  0.80601  0.24248  0.77179  1.0000
  C   C427      1.0  0.79107  0.21505  0.77276  1.0000
  H   H689      1.0  0.90593  0.46476  0.54117  1.0000
  S   S172      1.0  0.85840  0.32569  0.86173  1.0000
  H   H690      1.0  0.81089  0.27712  0.74477  1.0000
  H   H691      1.0  0.79587  0.20435  0.79264  1.0000
  H   H692      1.0  0.85042  0.23924  0.73404  1.0000
  H   H693      1.0  0.85832  0.24263  0.68551  1.0000
  H   H694      1.0  0.90315  0.27628  0.66470  1.0000
  H   H695      1.0  0.87232  0.22897  0.71648  1.0000
  N   N44       1.0  0.88874  0.27055  0.72075  1.0000
  H   H696      1.0  0.89634  0.31006  0.72200  1.0000
  C   C428      1.0  0.90983  0.27667  0.69367  1.0000
  H   H697      1.0  0.86422  0.28600  0.73732  1.0000
  H   H698      1.0  0.92679  0.29656  0.69868  1.0000
  C   C429      1.0  0.87843  0.33890  0.98197  1.0000
  C   C430      1.0  0.94358  0.47084  0.80266  1.0000
  C   C431      1.0  0.90084  0.33664  0.97962  1.0000
  Fe  Fe86      1.0  0.89872  0.33515  0.87855  1.0000
  H   H699      1.0  0.86836  0.33878  0.95685  1.0000
  H   H700      1.0  0.93922  0.47336  0.54938  1.0000
  S   S173      1.0  0.87932  0.33535  0.77488  1.0000
  H   H701      1.0  0.91592  0.46093  0.58677  1.0000
  H   H702      1.0  0.77381  0.25297  0.70141  1.0000
  S   S174      1.0  0.89829  0.46753  0.68101  1.0000
  Fe  Fe87      1.0  0.87948  0.35991  0.82250  1.0000
  S   S175      1.0  0.86674  0.39021  0.81846  1.0000
  H   H703      1.0  0.93282  0.49034  0.74174  1.0000
  S   S176      1.0  0.91976  0.37084  0.84204  1.0000
  C   C432      1.0  0.98244  0.37068  0.75843  1.0000
  C   C433      1.0  0.88856  0.44537  0.71855  1.0000
  C   C434      1.0  0.89552  0.42584  0.71895  1.0000
  C   C435      1.0  0.88885  0.40865  0.74933  1.0000
  C   C436      1.0  0.87497  0.41080  0.77934  1.0000
  C   C437      1.0  0.86788  0.43022  0.77875  1.0000
  C   C438      1.0  0.87468  0.44747  0.74853  1.0000
  H   H704      1.0  0.90632  0.42413  0.69589  1.0000
  H   H705      1.0  0.89449  0.39381  0.74961  1.0000
  H   H706      1.0  0.85706  0.43190  0.80182  1.0000
  H   H707      1.0  0.86892  0.46221  0.74833  1.0000
  H   H708      1.0  0.92515  0.45650  0.78884  1.0000
  H   H709      1.0  0.92541  0.49688  0.84258  1.0000
  Fe  Fe88      1.0  0.91832  0.34361  0.79725  1.0000
  C   C439      1.0  0.77850  0.24226  0.72139  1.0000
  H   H710      1.0  0.95935  0.46775  0.79132  1.0000
  C   C440      1.0  0.92212  0.47370  0.56165  1.0000
  C   C441      1.0  0.99292  0.38472  0.79119  1.0000
  H   H711      1.0  0.94136  0.46575  0.83271  1.0000
  H   H712      1.0  0.96691  0.50080  0.74323  1.0000
  H   H713      1.0  0.90874  0.48740  0.79892  1.0000
  H   H714      1.0  0.98025  0.38202  0.81449  1.0000
  H   H715      1.0  0.99139  0.36367  0.70301  1.0000
  H   H716      1.0  0.88880  0.49228  0.56707  1.0000
  S   S177      1.0  0.94862  0.34786  0.75413  1.0000
  Fe  Fe89      1.0  0.89729  0.50501  0.69009  1.0000
  H   H717      1.0  0.94384  0.50029  0.62510  1.0000
  N   N45       1.0  0.92842  0.50055  0.57117  1.0000
  N   N46       1.0  0.94911  0.49789  0.79651  1.0000
  C   C442      1.0  0.95132  0.50344  0.75625  1.0000
  C   C443      1.0  0.92770  0.50097  0.81224  1.0000
  C   C444      1.0  0.76987  0.20127  0.74841  1.0000
  H   H718      1.0  0.89795  0.48713  0.61211  1.0000
  C   C445      1.0  0.76351  0.21482  0.72246  1.0000
  S   S178      1.0  0.88621  0.52199  0.43314  1.0000
  S   S179      1.0  0.89773  0.55919  0.27142  1.0000
  Fe  Fe90      1.0  0.89732  0.53928  0.37466  1.0000
  S   S180      1.0  0.90086  0.57751  0.35778  1.0000
  H   H719      1.0  0.82329  0.57762  0.47259  1.0000
  Fe  Fe91      1.0  0.86922  0.55447  0.31608  1.0000
  S   S181      1.0  0.82923  0.55171  0.31609  1.0000
  Fe  Fe92      1.0  0.92919  0.57866  0.31435  1.0000
  S   S182      1.0  0.96577  0.61653  0.29834  1.0000
  H   H720      1.0  0.99929  0.62106  0.15448  1.0000
  S   S183      1.0  0.92776  0.54169  0.33395  1.0000
  C   C446      1.0  0.77090  0.55364  0.25855  1.0000
  C   C447      1.0  0.82023  0.55923  0.45953  1.0000
  H   H721      1.0  0.87146  0.59580  0.46552  1.0000
  S   S184      1.0  0.76670  0.57751  0.19411  1.0000
  H   H722      1.0  0.85266  0.54236  0.39767  1.0000
  C   C448      1.0  0.99569  0.61820  0.28628  1.0000
  H   H723      1.0  0.81836  0.52969  0.40115  1.0000
  H   H724      1.0  0.98235  0.57748  0.29534  1.0000
  C   C449      1.0  0.81217  0.55824  0.28086  1.0000
  C   C450      1.0  0.78523  0.54845  0.28518  1.0000
  C   C451      1.0  0.86659  0.57642  0.45402  1.0000
  H   H725      1.0  0.86598  0.56401  0.47770  1.0000
  C   C452      1.0  0.82465  0.57315  0.24937  1.0000
  Fe  Fe93      1.0  0.89482  0.52211  0.29303  1.0000
  H   H726      1.0  0.82030  0.59065  0.19912  1.0000
  S   S185      1.0  0.86450  0.51619  0.33490  1.0000
  H   H727      1.0  0.84541  0.58118  0.24585  1.0000
  C   C453      1.0  0.89470  0.53785  0.47685  1.0000
  C   C454      1.0  0.91617  0.56282  0.48152  1.0000
  C   C455      1.0  0.78346  0.56902  0.22744  1.0000
  H   H728      1.0  0.92807  0.57326  0.45780  1.0000
  C   C456      1.0  0.84277  0.58199  0.40376  1.0000
  C   C457      1.0  0.83685  0.53931  0.41723  1.0000
  H   H729      1.0  0.77535  0.53693  0.30942  1.0000
  C   C458      1.0  0.99861  0.59613  0.28722  1.0000
  N   N47       1.0  0.84163  0.56425  0.43362  1.0000
  H   H730      1.0  0.83607  0.52545  0.43886  1.0000
  H   H731      1.0  0.85853  0.58601  0.38346  1.0000
  H   H732      1.0  0.84637  0.53920  0.23095  1.0000
  H   H733      1.0  0.82426  0.57336  0.38767  1.0000
  H   H734      1.0  0.84646  0.60108  0.41495  1.0000
  H   H735      1.0  0.81878  0.54579  0.48231  1.0000
  C   C459      1.0  0.81037  0.57858  0.22294  1.0000
  H   H736      1.0  0.80112  0.55010  0.44497  1.0000
  H   H737      1.0  0.88304  0.57932  0.43576  1.0000
  C   C460      1.0  0.84534  0.52402  0.21160  1.0000
  H   H738      1.0  0.01115  0.60412  0.18299  1.0000
  H   H739      1.0  0.79775  0.51617  0.22856  1.0000
  H   H740      1.0  0.86315  0.52243  0.21592  1.0000
  H   H741      1.0  0.84622  0.53123  0.18281  1.0000
  Fe  Fe94      1.0  0.90677  0.55422  0.64982  1.0000
  S   S186      1.0  0.90544  0.57409  0.70325  1.0000
  S   S187      1.0  0.91801  0.57469  0.59327  1.0000
  H   H742      1.0  0.93970  0.59317  0.52071  1.0000
  Fe  Fe95      1.0  0.87021  0.53503  0.71684  1.0000
  C   C461      1.0  0.79055  0.60483  0.89578  1.0000
  Fe  Fe96      1.0  0.93013  0.55834  0.72777  1.0000
  S   S188      1.0  0.96186  0.57264  0.77255  1.0000
  C   C462      1.0  0.97385  0.51638  0.81480  1.0000
  S   S189      1.0  0.93381  0.54151  0.67389  1.0000
  H   H743      1.0  0.80463  0.62616  0.89625  1.0000
  H   H744      1.0  0.97842  0.53693  0.81049  1.0000
  H   H745      1.0  0.94126  0.53735  0.54377  1.0000
  C   C463      1.0  0.80409  0.60057  0.83389  1.0000
  C   C464      1.0  0.99565  0.59642  0.77092  1.0000
  H   H746      1.0  0.99446  0.61413  0.71931  1.0000
  C   C465      1.0  0.79398  0.56401  0.72478  1.0000
  C   C466      1.0  0.78908  0.52532  0.77376  1.0000
  C   C467      1.0  0.81027  0.53626  0.74883  1.0000
  C   C468      1.0  0.81263  0.55571  0.72434  1.0000
  H   H747      1.0  0.80029  0.59469  0.90835  1.0000
  H   H748      1.0  0.77216  0.55601  0.86917  1.0000
  H   H749      1.0  0.82883  0.56437  0.70509  1.0000
  N   N48       1.0  0.78162  0.59552  0.85762  1.0000
  C   C469      1.0  0.90788  0.56053  0.54857  1.0000
  C   C470      1.0  0.88579  0.53603  0.54357  1.0000
  C   C471      1.0  0.77273  0.55294  0.74952  1.0000
  S   S190      1.0  0.83294  0.52477  0.74972  1.0000
  C   C472      1.0  0.87947  0.52462  0.50802  1.0000
  H   H750      1.0  0.95408  0.51801  0.52439  1.0000
  C   C473      1.0  0.00661  0.61458  0.74203  1.0000
  H   H751      1.0  0.78198  0.63078  0.84144  1.0000
  H   H752      1.0  0.79608  0.57911  0.70572  1.0000
  C   C474      1.0  0.77042  0.53357  0.77413  1.0000
  H   H753      1.0  0.79783  0.59389  0.80483  1.0000
  C   C475      1.0  0.92271  0.57407  0.51723  1.0000
  C   C476      1.0  0.76864  0.60931  0.84219  1.0000
  H   H754      1.0  0.95558  0.53218  0.60539  1.0000
  H   H755      1.0  0.81870  0.62174  0.83265  1.0000
  C   C477      1.0  0.76296  0.56721  0.85856  1.0000
  H   H756      1.0  0.77384  0.60116  0.91416  1.0000
  H   H757      1.0  0.81411  0.59007  0.84424  1.0000
  H   H758      1.0  0.87370  0.52578  0.56722  1.0000
  C   C478      1.0  0.94979  0.51160  0.59861  1.0000
  H   H759      1.0  0.96743  0.51154  0.58800  1.0000
  S   S191      1.0  0.89481  0.52078  0.74521  1.0000
  C   C479      1.0  0.93651  0.51699  0.53737  1.0000
  H   H760      1.0  0.00355  0.58398  0.82325  1.0000
  S   S192      1.0  0.87030  0.51624  0.66209  1.0000
  H   H761      1.0  0.95586  0.52380  0.75057  1.0000
  H   H762      1.0  0.90945  0.51972  0.59613  1.0000
  H   H763      1.0  0.93124  0.52118  0.80804  1.0000
  H   H764      1.0  0.78719  0.51037  0.79295  1.0000
  C   C480      1.0  0.01180  0.59755  0.80041  1.0000
  H   H765      1.0  0.97293  0.51287  0.84526  1.0000
  H   H766      1.0  0.99049  0.51474  0.80345  1.0000
  H   H767      1.0  0.76188  0.60288  0.81323  1.0000
  H   H768      1.0  0.92078  0.50935  0.51610  1.0000
