data_image0
_chemical_formula_structural       FeS2FeS2FeS2FeSFeSFeS4NC6H3C6H4NC4H13FeHCH2C2HCH4NH2CH2C2HCH3CH4SFeHSH4SHCSH3CH2CSH2CHNCH2C3HC2HSCFeS2FeSHFeSFeS3H2FeS2HCFeSHSC3H2C6H5SC7H5C6H4C2HSCFeC2HCH6NFeHC2H2NHCHC2H10NHCH5C2H5CH2CH2NCHC2HCH2C2HNFeH2CHNH3FeS2FeS2FeS2FeSFeCS2FeS2H3FeC6H4CSHC6H6CH2CHC2H2CSHC2H2C2HSHCH2CH8CHCNCHNH4NH6C2H5SFeCFeHSHCNH2SFeS2FeS2FeCFeS3FeS2H2SH2C4H2C6H6SH3C6H4C2H16CHSCSHFeCNH2NC4H2CHCHC2H6C2HCH4NHC2HCH4CH3CNH2SFeS2FeS2FeSFeS3C4H2CHCHCH2C6H5CNC2H2CH3CHNC2H4NHCH3CHC4H2CH14C2HFeH4CH2CH2C2H3SH2C2HNCH3SC3HC2HFeH3C2SHCSFeSCSHC2FeS2FeS2FeS2FeSFeS3CHCHC6H5C3HNCH5C6H7CH4CH2SH10CNH2CH3CHC5H2NH5SC4H3C2H2CH3SH2SH2SCS2HSHC6H7C2H3CNFeH2CHCH4FeNCH4FeHC2H2FeSHSCSC6H5CH6CHCH2CH2NSHSHC2SH3NFeS3FeS2FeS2FeS3CHSCFeS2C6H4C2H3C6H4C6H2C5H3CHNC4H12SCHNHCHCH2SH3CHFeH2CHCH4CFeHFeH4SH3FeSH4CSHC2H2NCH2C3SCH3CH6SHCS3CFeHSFeHSFeS2FeSFe2S2FeS2HC6H4NC8H4C4H8CHC2H3CHC2H3CFeHCH4CH4CFeHCFeHFeCSHSHC4HCH2CNHC2SH2NSCFeHC3H3SHC2HCH3CHSHNH3FeSH2CH8FeS2FeSFeSFeS3HC3H2C6H7CH2CHCH3NC2H10SH2C2HCH3SNH3C2H3CH3FeS2FeS2CHCHCHSC6H3CHCH2CHCHCNH2CH2C2HCH6FeSFeS2FeCFeS3HCH3C6H7CHC2H4CSCSHC2H4NH2SH2C2HSH4C5H2SFeS2C2HC2H4NHCH3SHCH2CH2NH2CHC2H8NCH3NH3CHC2H2CH2FeS2H2FeHFeCS2HCHSH2NCFeCHC4H7CH6FeCHFeS2FeS2H6C2HCHC4HCHNC4HCH3SHCSC2SFeSFeS2FeCSHSHC2HCH4CH5SHSFeS2FeH2NCHC5H4CHCNCH3CHFeCHCH2CH5CSH2FeH2CH2CSH2NHS2FeS2HCHC6H3SH3CH3CHCH2CH3CHFeCFeHSCSHCH2S2FeS2HNC6H4CHFeCH3CHCHCH6SFeC2NFeHCSH2CHCH5SH3CHC2H5CHCHNC2HSFeS2C6H5CHC3HFeC2HCHCHCH2NH6FeHC2HCHFeSHFeS2FeSFeS3FeS2FeS2HCSC2HC2H2C2HC6H6C2H2CH5N2CH5CHC2H3CH6SHCH2C2H4FeSHSC2HCH2C2H6CNHC2H2CH4C2SCHC2H3FeS2FeSCFeSFeS3FeS2Fe2SH3C6H4C3HSH5SH3CHCHCNCHCH3NH7NHC2H3CSH3C4H3C2FeCHFeS2FeSHFeS2FeSHSCS3HFeSFeS2C6H4C4H4CFeC6H4C3HNCHCSCH5CHCH7FeHCHFeSCHNC4H12NH2CH2CNH2SC2SC2H3SHCH4FeCFeS2HFeSHSFeC2FeHFeS2NSHS3H3SC6H6C9H4C4H4SHCHFeHFeH4SCHCH2CH2N2C4H12FeSC3SNC3HFeH3CHSCHCH7CHC2H3NC3H3FeH3CHCH3SHC2H2SCH2CH5CHCFeS2H2FeS4FeS2CHCH3NCHSHC7H4CH4NH4SC4HFeHFeH7CHFe2C2H2FeS2FeSFeHS2FeS2HC2H5SCH2CHC10H4CH3CN2H5CSC3HCSH3CHCFeH4CH2FeS2FeS2FeHFeS3FeSHFeS2CH4CH3C2HC6H4C4H2C6H4CHSH2SHCH4NH2CH4CNC4H12C2FeHCHCSCHSHCFeHCH3CHS2FeS2FeSHFeSFeS3FeSHFeS2HFeC6H4C6H5CH3NCH3CH2SH4FeH2C2HNC2HCNH2CHSH9C2H10SH4SC2H3CH3CNFeS2FeS2FeSFeS3FeS3CHCHC2HC7H4C6H4CH2SHSH4NCH3NC4H12NC2H6CHC4H4NCH2SCHCH3CH3FeC2H2SCNH3CH2SH3CHC2HC3HCH7NFeS2FeS2FeSFeS4HCFeS2HC2NSC8H4C6H4CNH2C2FeCH2C3H6NC2HC2H4CH2C2H6CH8CH2SC2NH5CFeC2SH2CH2CSH2C4H2SH3SCH2FeSHFeS2FeS2FeSFeS3HC2SH3C6H4CH3C6H4C2H2CH8CH2CNSH3CNH5NCSH2C2HCH2NH3CHCHC3H4CS2H3SHCH2C2H2FeSHFeS2FeS2FeSFeS3HSH4C2HC2NHC6H6CH5C7H2NC4H2SH8SNC4SCH6SC3H4CNH4C2H3CH9CH3CH2C3Fe
_chemical_formula_sum              "Fe192 S384 N96 C960 H1536"
_cell_length_a       53.7461
_cell_length_b       53.5525
_cell_length_c       92.2682
_cell_angle_alpha    91.8069
_cell_angle_beta     91.7925
_cell_angle_gamma    114.065

_space_group_name_H-M_alt    "P 1"
_space_group_IT_number       1

loop_
  _space_group_symop_operation_xyz
  'x, y, z'

loop_
  _atom_site_type_symbol
  _atom_site_label
  _atom_site_symmetry_multiplicity
  _atom_site_fract_x
  _atom_site_fract_y
  _atom_site_fract_z
  _atom_site_occupancy
  Fe  Fe1       1.0  0.23475  0.03041  0.06945  1.0000
  S   S1        1.0  0.18994  0.01710  0.07312  1.0000
  S   S2        1.0  0.26112  0.05315  0.08976  1.0000
  Fe  Fe2       1.0  0.18812  0.03754  0.05251  1.0000
  S   S3        1.0  0.16764  0.06646  0.04866  1.0000
  S   S4        1.0  0.23294  0.05308  0.04961  1.0000
  Fe  Fe3       1.0  0.22445  0.26511  0.03352  1.0000
  S   S5        1.0  0.19634  0.22486  0.04191  1.0000
  S   S6        1.0  0.21194  0.27125  0.01047  1.0000
  Fe  Fe4       1.0  0.25334  0.28539  0.06404  1.0000
  S   S7        1.0  0.22579  0.24694  0.07423  1.0000
  Fe  Fe5       1.0  0.23270  0.22548  0.05456  1.0000
  S   S8        1.0  0.24636  0.19186  0.05927  1.0000
  Fe  Fe6       1.0  0.19138  0.24980  0.06071  1.0000
  S   S9        1.0  0.14731  0.23215  0.06746  1.0000
  S   S10       1.0  0.26162  0.26355  0.04468  1.0000
  S   S11       1.0  0.21812  0.29036  0.05199  1.0000
  S   S12       1.0  0.06106  0.28581  0.06210  1.0000
  N   N1        1.0  0.13669  0.26811  0.01994  1.0000
  C   C1        1.0  0.12377  0.24753  0.06555  1.0000
  C   C2        1.0  0.13227  0.27595  0.06570  1.0000
  C   C3        1.0  0.11283  0.28734  0.06465  1.0000
  C   C4        1.0  0.08473  0.27048  0.06332  1.0000
  C   C5        1.0  0.07626  0.24206  0.06301  1.0000
  C   C6        1.0  0.09568  0.23068  0.06424  1.0000
  H   H1        1.0  0.15378  0.28918  0.06699  1.0000
  H   H2        1.0  0.05471  0.22884  0.06204  1.0000
  H   H3        1.0  0.08883  0.20868  0.06423  1.0000
  C   C7        1.0  0.18921  0.10138  0.05175  1.0000
  C   C8        1.0  0.18172  0.12145  0.04604  1.0000
  C   C9        1.0  0.19920  0.14940  0.04810  1.0000
  C   C10       1.0  0.22413  0.15725  0.05596  1.0000
  C   C11       1.0  0.23148  0.13718  0.06170  1.0000
  C   C12       1.0  0.21405  0.10936  0.05966  1.0000
  H   H4        1.0  0.16252  0.11535  0.03989  1.0000
  H   H5        1.0  0.19352  0.16479  0.04355  1.0000
  H   H6        1.0  0.25066  0.14311  0.06786  1.0000
  H   H7        1.0  0.21976  0.09413  0.06440  1.0000
  N   N2        1.0  0.15584  0.16271  0.08247  1.0000
  C   C13       1.0  0.15767  0.18693  0.09135  1.0000
  C   C14       1.0  0.18190  0.15961  0.08403  1.0000
  C   C15       1.0  0.15031  0.16638  0.06708  1.0000
  C   C16       1.0  0.13345  0.13793  0.08740  1.0000
  H   H8        1.0  0.13844  0.19008  0.09029  1.0000
  H   H9        1.0  0.17427  0.20601  0.08784  1.0000
  H   H10       1.0  0.16176  0.18499  0.10306  1.0000
  H   H11       1.0  0.18103  0.14119  0.07769  1.0000
  H   H12       1.0  0.19915  0.17766  0.08004  1.0000
  H   H13       1.0  0.18706  0.15737  0.09554  1.0000
  H   H14       1.0  0.14830  0.14832  0.06005  1.0000
  H   H15       1.0  0.16704  0.18467  0.06298  1.0000
  H   H16       1.0  0.13119  0.16957  0.06555  1.0000
  H   H17       1.0  0.13156  0.11928  0.08090  1.0000
  H   H18       1.0  0.11348  0.13959  0.08631  1.0000
  H   H19       1.0  0.13691  0.13453  0.09899  1.0000
  H   H20       1.0  0.11959  0.30936  0.06500  1.0000
  Fe  Fe7       1.0  0.01522  0.26196  0.05752  1.0000
  H   H21       1.0  0.26969  0.30098  0.10368  1.0000
  C   C17       1.0  0.13918  0.24282  0.02421  1.0000
  H   H22       1.0  0.17683  0.04942  0.02103  1.0000
  H   H23       1.0  0.17230  0.03770  0.00228  1.0000
  C   C18       1.0  0.29158  0.31187  0.10526  1.0000
  C   C19       1.0  0.29004  0.05622  0.10097  1.0000
  H   H24       1.0  0.26544  0.27323  0.00265  1.0000
  C   C20       1.0  0.15844  0.29207  0.02765  1.0000
  H   H25       1.0  0.28711  0.08797  0.11485  1.0000
  H   H26       1.0  0.15919  0.24298  0.02132  1.0000
  H   H27       1.0  0.17907  0.29388  0.02480  1.0000
  H   H28       1.0  0.15697  0.31151  0.02489  1.0000
  N   N3        1.0  0.20680  0.07606  0.00720  1.0000
  H   H29       1.0  0.13763  0.24043  0.03613  1.0000
  H   H30       1.0  0.21964  0.08973  0.02941  1.0000
  C   C21       1.0  0.22843  0.08836  0.01880  1.0000
  H   H31       1.0  0.19896  0.03553  0.01361  1.0000
  H   H32       1.0  0.24057  0.07589  0.02025  1.0000
  C   C22       1.0  0.01732  0.31763  0.08650  1.0000
  C   C23       1.0  0.18785  0.04850  0.01117  1.0000
  H   H33       1.0  0.13776  0.28961  0.00050  1.0000
  C   C24       1.0  0.13949  0.27072  0.00410  1.0000
  H   H34       1.0  0.15740  0.29051  0.03961  1.0000
  H   H35       1.0  0.24289  0.10938  0.01635  1.0000
  H   H36       1.0  0.09279  0.24925  0.01801  1.0000
  C   C25       1.0  0.10971  0.26684  0.02380  1.0000
  H   H37       1.0  0.28599  0.26209  0.09173  1.0000
  H   H38       1.0  0.21255  0.01720  0.10505  1.0000
  H   H39       1.0  0.10676  0.26431  0.03562  1.0000
  H   H40       1.0  0.10725  0.28583  0.02106  1.0000
  S   S13       1.0  0.29284  0.31734  0.07522  1.0000
  Fe  Fe8       1.0  0.22216  0.01369  0.03643  1.0000
  H   H41       1.0  0.18190  0.09529  0.01571  1.0000
  S   S14       1.0  0.24175  0.01759  0.01456  1.0000
  H   H42       1.0  0.99578  0.30538  0.08276  1.0000
  H   H43       1.0  0.12294  0.22430  0.01872  1.0000
  H   H44       1.0  0.99299  0.29188  0.00359  1.0000
  H   H45       1.0  0.27018  0.22725  0.08487  1.0000
  S   S15       1.0  0.17696  0.99909  0.03836  1.0000
  H   H46       1.0  0.03000  0.30855  0.08093  1.0000
  C   C26       1.0  0.19157  0.09342  0.00544  1.0000
  S   S16       1.0  0.99387  0.22351  0.04349  1.0000
  H   H47       1.0  0.01896  0.31490  0.09834  1.0000
  H   H48       1.0  0.20533  0.00439  0.12290  1.0000
  H   H49       1.0  0.23978  0.01816  0.11697  1.0000
  C   C27       1.0  0.21805  0.00558  0.11345  1.0000
  H   H50       1.0  0.28648  0.23520  0.10275  1.0000
  H   H51       1.0  0.29133  0.31008  0.12862  1.0000
  C   C28       1.0  0.28802  0.24222  0.09146  1.0000
  S   S17       1.0  0.99475  0.28529  0.04564  1.0000
  H   H52       1.0  0.15971  0.27182  0.00087  1.0000
  H   H53       1.0  0.20522  0.11447  0.00255  1.0000
  C   C29       1.0  0.29812  0.07528  0.11290  1.0000
  H   H54       1.0  0.29892  0.02549  0.08943  1.0000
  N   N4        1.0  0.31397  0.24492  0.08527  1.0000
  C   C30       1.0  0.31503  0.21776  0.08424  1.0000
  H   H55       1.0  0.29842  0.24197  0.06323  1.0000
  H   H56       1.0  0.31360  0.20884  0.09508  1.0000
  C   C31       1.0  0.32044  0.07831  0.12236  1.0000
  C   C32       1.0  0.31566  0.25578  0.07062  1.0000
  C   C33       1.0  0.30395  0.31710  0.11941  1.0000
  H   H57       1.0  0.29789  0.20299  0.07709  1.0000
  C   C34       1.0  0.30461  0.04004  0.09863  1.0000
  C   C35       1.0  0.30743  0.32172  0.09326  1.0000
  H   H58       1.0  0.31486  0.27626  0.07098  1.0000
  S   S18       1.0  0.03710  0.24983  0.42226  1.0000
  C   C36       1.0  0.11063  0.16664  0.38128  1.0000
  Fe  Fe9       1.0  0.22981  0.26706  0.43012  1.0000
  S   S19       1.0  0.18730  0.23883  0.42185  1.0000
  S   S20       1.0  0.25025  0.27539  0.45297  1.0000
  Fe  Fe10      1.0  0.25087  0.28305  0.39944  1.0000
  S   S21       1.0  0.21007  0.25643  0.38881  1.0000
  H   H59       1.0  0.15684  0.04180  0.48216  1.0000
  Fe  Fe11      1.0  0.19088  0.27177  0.40641  1.0000
  S   S22       1.0  0.15574  0.28172  0.39781  1.0000
  Fe  Fe12      1.0  0.20822  0.22483  0.40467  1.0000
  S   S23       1.0  0.19123  0.18150  0.39495  1.0000
  S   S24       1.0  0.23204  0.30144  0.41592  1.0000
  S   S25       1.0  0.25036  0.24994  0.41408  1.0000
  H   H60       1.0  0.16024  0.20647  0.37806  1.0000
  H   H61       1.0  0.29914  0.27509  0.43804  1.0000
  Fe  Fe13      1.0  0.21611  0.05383  0.41683  1.0000
  S   S26       1.0  0.25513  0.04963  0.42202  1.0000
  S   S27       1.0  0.21303  0.09024  0.42854  1.0000
  H   H62       1.0  0.28461  0.01369  0.41216  1.0000
  C   C37       1.0  0.12850  0.20141  0.40063  1.0000
  Fe  Fe14      1.0  0.25259  0.03406  0.39874  1.0000
  S   S28       1.0  0.29547  0.05349  0.38960  1.0000
  H   H63       1.0  0.03806  0.26713  0.47865  1.0000
  S   S29       1.0  0.21481  0.04125  0.39323  1.0000
  C   C38       1.0  0.30940  0.05552  0.37213  1.0000
  C   C39       1.0  0.29394  0.04075  0.35980  1.0000
  C   C40       1.0  0.30632  0.04245  0.34635  1.0000
  H   H64       1.0  0.27257  0.02761  0.36067  1.0000
  H   H65       1.0  0.29424  0.03048  0.33697  1.0000
  C   C41       1.0  0.19862  0.15679  0.40417  1.0000
  C   C42       1.0  0.20852  0.16155  0.41864  1.0000
  C   C43       1.0  0.21302  0.14100  0.42595  1.0000
  C   C44       1.0  0.20818  0.11582  0.41877  1.0000
  C   C45       1.0  0.19873  0.11123  0.40422  1.0000
  C   C46       1.0  0.19372  0.13159  0.39699  1.0000
  H   H66       1.0  0.21229  0.18088  0.42426  1.0000
  H   H67       1.0  0.22031  0.14466  0.43720  1.0000
  H   H68       1.0  0.19479  0.09183  0.39862  1.0000
  H   H69       1.0  0.18602  0.12778  0.38580  1.0000
  H   H70       1.0  0.17913  0.07690  0.47947  1.0000
  S   S30       1.0  0.29264  0.30932  0.39043  1.0000
  C   C47       1.0  0.14265  0.21214  0.37621  1.0000
  C   C48       1.0  0.06973  0.25860  0.41500  1.0000
  C   C49       1.0  0.07664  0.27101  0.40173  1.0000
  C   C50       1.0  0.10313  0.27818  0.39672  1.0000
  C   C51       1.0  0.12291  0.27284  0.40483  1.0000
  C   C52       1.0  0.11588  0.26011  0.41800  1.0000
  C   C53       1.0  0.08949  0.25314  0.42305  1.0000
  H   H71       1.0  0.06172  0.27544  0.39544  1.0000
  H   H72       1.0  0.10835  0.28806  0.38652  1.0000
  H   H73       1.0  0.13088  0.25603  0.42441  1.0000
  H   H74       1.0  0.08440  0.24365  0.43335  1.0000
  H   H75       1.0  0.26378  0.04316  0.45755  1.0000
  C   C54       1.0  0.18408  0.01923  0.46634  1.0000
  C   C55       1.0  0.30004  0.31012  0.34615  1.0000
  C   C56       1.0  0.25030  0.27809  0.48282  1.0000
  C   C57       1.0  0.23417  0.27200  0.46979  1.0000
  C   C58       1.0  0.20596  0.26346  0.47051  1.0000
  C   C59       1.0  0.19411  0.26127  0.48410  1.0000
  H   H76       1.0  0.27217  0.28491  0.48239  1.0000
  H   H77       1.0  0.19328  0.25879  0.46060  1.0000
  H   H78       1.0  0.08934  0.20046  0.37082  1.0000
  H   H79       1.0  0.17227  0.25482  0.48451  1.0000
  C   C60       1.0  0.26092  0.04332  0.48087  1.0000
  C   C61       1.0  0.30268  0.32320  0.42873  1.0000
  H   H80       1.0  0.22093  0.05956  0.45269  1.0000
  S   S31       1.0  0.18991  0.01156  0.42362  1.0000
  C   C62       1.0  0.17799  0.05570  0.47961  1.0000
  Fe  Fe15      1.0  0.99585  0.24950  0.41478  1.0000
  C   C63       1.0  0.30564  0.31446  0.37261  1.0000
  C   C64       1.0  0.23845  0.27591  0.49642  1.0000
  H   H81       1.0  0.16755  0.06926  0.45288  1.0000
  C   C65       1.0  0.04241  0.25142  0.48457  1.0000
  H   H82       1.0  0.19083  0.01257  0.45619  1.0000
  H   H83       1.0  0.21531  0.08738  0.46092  1.0000
  H   H84       1.0  0.29048  0.12332  0.32552  1.0000
  H   H85       1.0  0.10338  0.22674  0.38499  1.0000
  H   H86       1.0  0.11152  0.19032  0.40775  1.0000
  H   H87       1.0  0.12758  0.16000  0.38327  1.0000
  N   N5        1.0  0.18562  0.04737  0.46560  1.0000
  Fe  Fe16      1.0  0.22898  0.00668  0.42720  1.0000
  H   H88       1.0  0.29534  0.33001  0.43863  1.0000
  C   C66       1.0  0.25038  0.02783  0.49300  1.0000
  C   C67       1.0  0.25578  0.03090  0.46678  1.0000
  H   H89       1.0  0.09339  0.15393  0.38787  1.0000
  H   H90       1.0  0.07936  0.19337  0.38922  1.0000
  N   N6        1.0  0.11961  0.19613  0.38511  1.0000
  H   H91       1.0  0.23053  0.21050  0.48888  1.0000
  C   C68       1.0  0.30564  0.01994  0.43954  1.0000
  H   H92       1.0  0.26710  0.29320  0.36084  1.0000
  C   C69       1.0  0.21378  0.06634  0.46267  1.0000
  C   C70       1.0  0.16673  0.04826  0.45383  1.0000
  H   H93       1.0  0.31452  0.32684  0.29581  1.0000
  H   H94       1.0  0.31038  0.30006  0.45284  1.0000
  H   H95       1.0  0.14528  0.19484  0.40312  1.0000
  H   H96       1.0  0.14527  0.03404  0.45553  1.0000
  H   H97       1.0  0.22832  0.06779  0.47181  1.0000
  H   H98       1.0  0.31658  0.28767  0.41354  1.0000
  H   H99       1.0  0.15004  0.23452  0.37889  1.0000
  H   H100      1.0  0.29617  0.09945  0.34760  1.0000
  H   H101      1.0  0.28506  0.30548  0.42366  1.0000
  H   H102      1.0  0.31562  0.06002  0.42090  1.0000
  N   N7        1.0  0.32031  0.02317  0.42595  1.0000
  H   H103      1.0  0.20045  0.21132  0.49625  1.0000
  C   C71       1.0  0.28882  0.30467  0.35997  1.0000
  H   H104      1.0  0.13615  0.22358  0.40378  1.0000
  H   H105      1.0  0.27295  0.06514  0.48240  1.0000
  H   H106      1.0  0.04022  0.23468  0.47648  1.0000
  H   H107      1.0  0.02870  0.20308  0.49676  1.0000
  H   H108      1.0  0.16295  0.00414  0.46801  1.0000
  C   C72       1.0  0.09686  0.20443  0.38239  1.0000
  C   C73       1.0  0.31694  0.29350  0.44259  1.0000
  H   H109      1.0  0.28671  0.30264  0.33651  1.0000
  H   H110      1.0  0.10386  0.16184  0.36962  1.0000
  H   H111      1.0  0.06413  0.26105  0.48866  1.0000
  H   H112      1.0  0.13675  0.20873  0.36442  1.0000
  H   H113      1.0  0.32237  0.10008  0.32640  1.0000
  C   C74       1.0  0.24090  0.00260  0.46473  1.0000
  H   H114      1.0  0.19187  0.05512  0.48872  1.0000
  H   H115      1.0  0.28884  0.02691  0.43848  1.0000
  C   C75       1.0  0.21022  0.26747  0.49713  1.0000
  H   H116      1.0  0.17219  0.04246  0.44310  1.0000
  H   H117      1.0  0.19740  0.01774  0.47545  1.0000
  N   N8        1.0  0.02386  0.24104  0.49658  1.0000
  C   C76       1.0  0.23521  0.99957  0.49094  1.0000
  H   H118      1.0  0.20057  0.17919  0.49021  1.0000
  C   C77       1.0  0.30111  0.00660  0.41404  1.0000
  C   C78       1.0  0.99535  0.22816  0.49066  1.0000
  H   H119      1.0  0.31785  0.15465  0.32084  1.0000
  C   C79       1.0  0.31234  0.11958  0.35155  1.0000
  H   H120      1.0  0.30251  0.13046  0.35816  1.0000
  H   H121      1.0  0.29827  0.15436  0.33634  1.0000
  C   C80       1.0  0.30744  0.14234  0.33012  1.0000
  C   C81       1.0  0.21321  0.19932  0.49581  1.0000
  H   H122      1.0  0.31941  0.03197  0.44885  1.0000
  N   N9        1.0  0.32561  0.31558  0.43220  1.0000
  Fe  Fe17      1.0  0.19114  0.99800  0.40054  1.0000
  H   H123      1.0  0.31137  0.00840  0.40357  1.0000
  H   H124      1.0  0.29605  0.99811  0.44247  1.0000
  C   C82       1.0  0.01093  0.32308  0.60156  1.0000
  H   H125      1.0  0.31426  0.28108  0.56849  1.0000
  N   N10       1.0  0.22285  0.19607  0.51053  1.0000
  H   H126      1.0  0.22780  0.23572  0.51888  1.0000
  H   H127      1.0  0.09798  0.28755  0.57013  1.0000
  H   H128      1.0  0.03167  0.26765  0.58775  1.0000
  Fe  Fe18      1.0  0.20852  0.04224  0.55586  1.0000
  S   S32       1.0  0.19461  0.07382  0.56569  1.0000
  S   S33       1.0  0.25040  0.04289  0.55327  1.0000
  Fe  Fe19      1.0  0.22897  0.23148  0.55794  1.0000
  S   S34       1.0  0.25018  0.27133  0.54704  1.0000
  S   S35       1.0  0.24994  0.20222  0.55602  1.0000
  Fe  Fe20      1.0  0.18266  0.24690  0.56653  1.0000
  S   S36       1.0  0.20008  0.28731  0.55606  1.0000
  S   S37       1.0  0.14344  0.23305  0.57827  1.0000
  Fe  Fe21      1.0  0.20870  0.26394  0.53746  1.0000
  S   S38       1.0  0.19386  0.26362  0.51389  1.0000
  Fe  Fe22      1.0  0.23992  0.29115  0.56669  1.0000
  C   C83       1.0  0.29077  0.24255  0.58768  1.0000
  S   S39       1.0  0.18811  0.22310  0.54739  1.0000
  S   S40       1.0  0.22196  0.25182  0.57822  1.0000
  Fe  Fe23      1.0  0.00764  0.24000  0.54982  1.0000
  S   S41       1.0  0.01005  0.28259  0.55223  1.0000
  S   S42       1.0  0.04479  0.23701  0.54057  1.0000
  H   H129      1.0  0.31570  0.30980  0.57979  1.0000
  H   H130      1.0  0.04738  0.26226  0.57187  1.0000
  H   H131      1.0  0.28356  0.28303  0.57425  1.0000
  Fe  Fe24      1.0  0.23443  0.02549  0.53048  1.0000
  C   C84       1.0  0.11575  0.23324  0.56768  1.0000
  C   C85       1.0  0.08957  0.22316  0.57317  1.0000
  C   C86       1.0  0.06742  0.22375  0.56488  1.0000
  C   C87       1.0  0.07153  0.23488  0.55120  1.0000
  C   C88       1.0  0.09758  0.24448  0.54564  1.0000
  C   C89       1.0  0.11964  0.24370  0.55385  1.0000
  H   H132      1.0  0.08642  0.21463  0.58378  1.0000
  H   H133      1.0  0.04714  0.21531  0.56899  1.0000
  H   H134      1.0  0.10084  0.25276  0.53497  1.0000
  H   H135      1.0  0.13967  0.25124  0.54945  1.0000
  C   C90       1.0  0.06823  0.31557  0.57788  1.0000
  S   S43       1.0  0.25680  0.04476  0.51040  1.0000
  H   H136      1.0  0.11700  0.31421  0.58354  1.0000
  C   C91       1.0  0.20958  0.10921  0.56211  1.0000
  C   C92       1.0  0.23465  0.12114  0.55559  1.0000
  C   C93       1.0  0.24660  0.14958  0.55368  1.0000
  C   C94       1.0  0.23343  0.16633  0.55802  1.0000
  C   C95       1.0  0.20799  0.15431  0.56414  1.0000
  C   C96       1.0  0.19627  0.12593  0.56629  1.0000
  H   H137      1.0  0.24518  0.10855  0.55237  1.0000
  H   H138      1.0  0.26632  0.15866  0.54898  1.0000
  H   H139      1.0  0.19764  0.16693  0.56758  1.0000
  H   H140      1.0  0.17693  0.11697  0.57139  1.0000
  H   H141      1.0  0.20568  0.18039  0.53081  1.0000
  H   H142      1.0  0.01342  0.30967  0.62314  1.0000
  C   C97       1.0  0.29281  0.28114  0.60277  1.0000
  H   H143      1.0  0.09290  0.32371  0.60448  1.0000
  H   H144      1.0  0.07992  0.28816  0.60872  1.0000
  C   C98       1.0  0.05104  0.26805  0.58368  1.0000
  H   H145      1.0  0.29957  0.23525  0.57855  1.0000
  C   C99       1.0  0.12963  0.01136  0.55210  1.0000
  C   C100      1.0  0.01813  0.32723  0.61654  1.0000
  H   H146      1.0  0.29302  0.27046  0.61289  1.0000
  H   H147      1.0  0.10395  0.03886  0.57825  1.0000
  C   C101      1.0  0.26424  0.32807  0.60700  1.0000
  S   S44       1.0  0.19401  0.02761  0.53288  1.0000
  H   H148      1.0  0.10422  0.27886  0.58804  1.0000
  C   C102      1.0  0.02720  0.26406  0.50688  1.0000
  C   C103      1.0  0.19912  0.18215  0.51943  1.0000
  H   H149      1.0  0.15415  0.02509  0.57863  1.0000
  H   H150      1.0  0.24850  0.22173  0.52820  1.0000
  C   C104      1.0  0.28435  0.00125  0.61431  1.0000
  C   C105      1.0  0.11390  0.03792  0.56797  1.0000
  H   H151      1.0  0.27118  0.27680  0.59976  1.0000
  S   S45       1.0  0.99438  0.28880  0.59398  1.0000
  H   H152      1.0  0.18625  0.16113  0.51493  1.0000
  C   C106      1.0  0.23990  0.22334  0.51733  1.0000
  H   H153      1.0  0.25118  0.28127  0.50632  1.0000
  H   H154      1.0  0.24814  0.30798  0.60458  1.0000
  C   C107      1.0  0.07605  0.30322  0.60199  1.0000
  H   H155      1.0  0.13435  0.05550  0.56851  1.0000
  H   H156      1.0  0.28940  0.01929  0.62141  1.0000
  H   H157      1.0  0.26687  0.01662  0.59708  1.0000
  H   H158      1.0  0.29110  0.23060  0.59728  1.0000
  H   H159      1.0  0.10169  0.04124  0.55887  1.0000
  H   H160      1.0  0.18589  0.19362  0.51991  1.0000
  H   H161      1.0  0.05687  0.30427  0.60562  1.0000
  H   H162      1.0  0.30347  0.30360  0.60537  1.0000
  C   C108      1.0  0.23921  0.17964  0.50966  1.0000
  H   H163      1.0  0.04838  0.31610  0.58059  1.0000
  C   C109      1.0  0.13320  0.00835  0.57806  1.0000
  N   N11       1.0  0.07373  0.29525  0.58636  1.0000
  C   C110      1.0  0.09939  0.29400  0.58185  1.0000
  H   H164      1.0  0.05514  0.25187  0.58922  1.0000
  N   N12       1.0  0.30572  0.27236  0.59088  1.0000
  H   H165      1.0  0.04837  0.27397  0.51176  1.0000
  H   H166      1.0  0.25728  0.23507  0.51059  1.0000
  H   H167      1.0  0.01342  0.25707  0.51604  1.0000
  H   H168      1.0  0.06717  0.31062  0.56600  1.0000
  N   N13       1.0  0.11641  0.01157  0.56587  1.0000
  H   H169      1.0  0.12407  0.00879  0.58866  1.0000
  H   H170      1.0  0.05159  0.22963  0.50920  1.0000
  H   H171      1.0  0.26899  0.23705  0.58442  1.0000
  H   H172      1.0  0.14992  0.02886  0.55192  1.0000
  H   H173      1.0  0.11712  0.01263  0.54256  1.0000
  H   H174      1.0  0.02236  0.28000  0.50153  1.0000
  C   C111      1.0  0.03045  0.22049  0.50422  1.0000
  C   C112      1.0  0.30489  0.28720  0.57777  1.0000
  H   H175      1.0  0.26124  0.32528  0.63026  1.0000
  H   H176      1.0  0.24654  0.17682  0.52069  1.0000
  H   H177      1.0  0.25747  0.18973  0.50316  1.0000
  H   H178      1.0  0.01645  0.21195  0.51319  1.0000
  H   H179      1.0  0.22708  0.15891  0.50455  1.0000
  S   S46       1.0  0.19106  0.99951  0.56424  1.0000
  Fe  Fe25      1.0  0.23190  0.99887  0.55999  1.0000
  C   C113      1.0  0.27150  0.99979  0.60052  1.0000
  Fe  Fe26      1.0  0.21360  0.04412  0.91243  1.0000
  H   H180      1.0  0.20613  0.28567  0.86262  1.0000
  S   S47       1.0  0.23881  0.09022  0.91221  1.0000
  H   H181      1.0  0.22472  0.31661  0.85380  1.0000
  C   C114      1.0  0.27295  0.08544  0.88122  1.0000
  N   N14       1.0  0.19386  0.31844  0.86753  1.0000
  H   H182      1.0  0.19472  0.19551  0.94127  1.0000
  H   H183      1.0  0.99957  0.31259  0.85808  1.0000
  S   S48       1.0  0.17243  0.02038  0.92116  1.0000
  Fe  Fe27      1.0  0.21001  0.22570  0.90656  1.0000
  S   S49       1.0  0.25493  0.25229  0.90852  1.0000
  S   S50       1.0  0.18891  0.17896  0.90467  1.0000
  Fe  Fe28      1.0  0.19560  0.27542  0.91052  1.0000
  S   S51       1.0  0.23959  0.30512  0.91362  1.0000
  S   S52       1.0  0.16583  0.29533  0.90978  1.0000
  Fe  Fe29      1.0  0.24606  0.28196  0.89439  1.0000
  C   C115      1.0  0.20412  0.30329  0.85740  1.0000
  Fe  Fe30      1.0  0.24393  0.27305  0.92754  1.0000
  S   S53       1.0  0.26710  0.27873  0.94947  1.0000
  S   S54       1.0  0.20169  0.25321  0.89097  1.0000
  S   S55       1.0  0.19939  0.24549  0.92592  1.0000
  Fe  Fe31      1.0  0.01198  0.24926  0.90607  1.0000
  S   S56       1.0  0.02640  0.29265  0.91447  1.0000
  S   S57       1.0  0.03783  0.22539  0.90272  1.0000
  H   H184      1.0  0.23264  0.20216  0.92603  1.0000
  H   H185      1.0  0.23166  0.06152  0.99471  1.0000
  S   S58       1.0  0.26420  0.29913  0.87273  1.0000
  H   H186      1.0  0.25846  0.02643  0.98519  1.0000
  H   H187      1.0  0.20481  0.15587  0.93617  1.0000
  C   C116      1.0  0.25151  0.27636  0.96637  1.0000
  C   C117      1.0  0.22505  0.27495  0.96723  1.0000
  C   C118      1.0  0.21331  0.27319  0.98081  1.0000
  C   C119      1.0  0.26589  0.27552  0.97924  1.0000
  H   H188      1.0  0.21379  0.27573  0.95745  1.0000
  H   H189      1.0  0.28643  0.27674  0.97870  1.0000
  C   C120      1.0  0.13047  0.27522  0.90759  1.0000
  C   C121      1.0  0.11967  0.24658  0.90663  1.0000
  C   C122      1.0  0.09122  0.23137  0.90503  1.0000
  C   C123      1.0  0.07351  0.24472  0.90439  1.0000
  C   C124      1.0  0.08447  0.27332  0.90507  1.0000
  C   C125      1.0  0.11279  0.28849  0.90669  1.0000
  H   H190      1.0  0.13319  0.23618  0.90724  1.0000
  H   H191      1.0  0.08293  0.20924  0.90444  1.0000
  H   H192      1.0  0.07119  0.28384  0.90422  1.0000
  H   H193      1.0  0.12103  0.31062  0.90731  1.0000
  H   H194      1.0  0.15817  0.31074  0.87973  1.0000
  H   H195      1.0  0.26236  0.04604  0.90015  1.0000
  S   S59       1.0  0.99596  0.29860  0.95052  1.0000
  H   H196      1.0  0.27960  0.10334  0.88914  1.0000
  H   H197      1.0  0.28944  0.03122  0.87494  1.0000
  H   H198      1.0  0.00810  0.33005  0.83323  1.0000
  C   C126      1.0  0.22454  0.11439  0.90942  1.0000
  C   C127      1.0  0.24203  0.14200  0.90786  1.0000
  C   C128      1.0  0.23150  0.16192  0.90592  1.0000
  C   C129      1.0  0.20331  0.15450  0.90580  1.0000
  C   C130      1.0  0.18585  0.12683  0.90721  1.0000
  C   C131      1.0  0.19636  0.10686  0.90899  1.0000
  H   H199      1.0  0.26385  0.14801  0.90805  1.0000
  H   H200      1.0  0.24517  0.18298  0.90445  1.0000
  H   H201      1.0  0.16401  0.12082  0.90702  1.0000
  H   H202      1.0  0.18264  0.08568  0.91011  1.0000
  C   C132      1.0  0.25403  0.27350  0.99283  1.0000
  C   C133      1.0  0.23674  0.01389  0.98469  1.0000
  H   H203      1.0  0.20844  0.15150  0.95519  1.0000
  H   H204      1.0  0.26006  0.22269  0.96343  1.0000
  H   H205      1.0  0.23545  0.15438  0.94336  1.0000
  H   H206      1.0  0.23315  0.01234  0.96119  1.0000
  H   H207      1.0  0.20368  0.06355  0.98454  1.0000
  H   H208      1.0  0.28130  0.05122  0.86181  1.0000
  H   H209      1.0  0.29520  0.04522  0.90092  1.0000
  H   H210      1.0  0.32162  0.09276  0.87093  1.0000
  H   H211      1.0  0.16718  0.28222  0.87770  1.0000
  H   H212      1.0  0.26198  0.19712  0.93265  1.0000
  H   H213      1.0  0.00614  0.17903  0.88129  1.0000
  H   H214      1.0  0.19301  0.27260  0.98130  1.0000
  H   H215      1.0  0.19034  0.29513  0.84754  1.0000
  H   H216      1.0  0.26770  0.19351  0.95978  1.0000
  H   H217      1.0  0.29107  0.07573  0.90697  1.0000
  H   H218      1.0  0.24013  0.19074  0.97119  1.0000
  C   C134      1.0  0.16651  0.30001  0.87202  1.0000
  H   H219      1.0  0.00654  0.31637  0.98072  1.0000
  S   S60       1.0  0.23313  0.01977  0.92409  1.0000
  C   C135      1.0  0.22243  0.00602  0.97107  1.0000
  S   S61       1.0  0.20454  0.01810  0.89172  1.0000
  H   H220      1.0  0.12354  0.25294  0.99790  1.0000
  Fe  Fe32      1.0  0.99968  0.29787  0.89656  1.0000
  C   C136      1.0  0.31775  0.08496  0.88205  1.0000
  N   N15       1.0  0.28840  0.06846  0.88375  1.0000
  H   H221      1.0  0.21515  0.31143  0.88590  1.0000
  H   H222      1.0  0.25797  0.22780  0.93760  1.0000
  N   N16       1.0  0.23171  0.19223  0.94837  1.0000
  C   C137      1.0  0.20973  0.20157  0.95074  1.0000
  C   C138      1.0  0.21962  0.16217  0.94572  1.0000
  C   C139      1.0  0.25072  0.20002  0.96129  1.0000
  C   C140      1.0  0.24676  0.20533  0.93562  1.0000
  H   H223      1.0  0.21810  0.22427  0.95224  1.0000
  H   H224      1.0  0.19839  0.19283  0.96053  1.0000
  C   C141      1.0  0.28426  0.05852  0.89862  1.0000
  H   H225      1.0  0.25070  0.07357  0.88253  1.0000
  C   C142      1.0  0.22771  0.27257  0.99369  1.0000
  H   H226      1.0  0.15167  0.29181  0.86256  1.0000
  C   C143      1.0  0.27853  0.04475  0.87319  1.0000
  C   C144      1.0  0.99454  0.29450  0.98021  1.0000
  H   H227      1.0  0.27547  0.09330  0.87011  1.0000
  H   H228      1.0  0.27453  0.31644  0.84356  1.0000
  H   H229      1.0  0.25644  0.03189  0.87428  1.0000
  H   H230      1.0  0.99549  0.20496  0.87587  1.0000
  H   H231      1.0  0.23853  0.00191  0.78998  1.0000
  H   H232      1.0  0.23330  0.09427  0.98990  1.0000
  C   C145      1.0  0.21274  0.32856  0.88047  1.0000
  C   C146      1.0  0.21936  0.07384  0.99346  1.0000
  H   H233      1.0  0.17502  0.08462  0.99680  1.0000
  C   C147      1.0  0.22315  0.00579  0.99765  1.0000
  H   H234      1.0  0.32579  0.10296  0.88992  1.0000
  H   H235      1.0  0.06190  0.38418  0.08564  1.0000
  H   H236      1.0  0.02839  0.37055  0.06460  1.0000
  H   H237      1.0  0.00952  0.35526  0.10302  1.0000
  N   N17       1.0  0.02572  0.34671  0.08329  1.0000
  H   H238      1.0  0.03446  0.34022  0.06125  1.0000
  C   C148      1.0  0.05469  0.36216  0.08801  1.0000
  C   C149      1.0  0.02216  0.34890  0.06750  1.0000
  H   H239      1.0  0.00039  0.33745  0.06365  1.0000
  C   C150      1.0  0.00863  0.35792  0.09111  1.0000
  H   H240      1.0  0.01502  0.38010  0.08939  1.0000
  H   H241      1.0  0.05796  0.36088  0.09989  1.0000
  H   H242      1.0  0.06797  0.35388  0.08235  1.0000
  H   H243      1.0  0.30666  0.35809  0.31357  1.0000
  C   C151      1.0  0.29063  0.35873  0.28565  1.0000
  H   H244      1.0  0.28910  0.35257  0.27390  1.0000
  H   H245      1.0  0.27636  0.34080  0.29133  1.0000
  H   H246      1.0  0.28329  0.37533  0.28677  1.0000
  C   C152      1.0  0.32003  0.37565  0.30731  1.0000
  N   N18       1.0  0.31888  0.36778  0.29171  1.0000
  H   H247      1.0  0.30826  0.33974  0.42085  1.0000
  H   H248      1.0  0.31360  0.39273  0.30911  1.0000
  S   S62       1.0  0.06365  0.61372  0.65487  1.0000
  Fe  Fe33      1.0  0.10409  0.48551  0.65898  1.0000
  S   S63       1.0  0.06002  0.45638  0.65945  1.0000
  S   S64       1.0  0.12127  0.53068  0.65387  1.0000
  Fe  Fe34      1.0  0.12351  0.43996  0.66439  1.0000
  S   S65       1.0  0.08069  0.40769  0.66492  1.0000
  S   S66       1.0  0.15659  0.42552  0.66975  1.0000
  Fe  Fe35      1.0  0.07140  0.42741  0.64547  1.0000
  S   S67       1.0  0.05115  0.41099  0.62278  1.0000
  Fe  Fe36      1.0  0.07371  0.43947  0.67881  1.0000
  S   S68       1.0  0.05083  0.42821  0.69969  1.0000
  S   S69       1.0  0.11506  0.45764  0.64418  1.0000
  S   S70       1.0  0.11698  0.47056  0.67920  1.0000
  C   C153      1.0  0.06714  0.43717  0.71732  1.0000
  C   C154      1.0  0.09527  0.45259  0.71928  1.0000
  C   C155      1.0  0.11902  0.37566  0.69342  1.0000
  C   C156      1.0  0.05183  0.42743  0.72961  1.0000
  H   H249      1.0  0.10726  0.46059  0.71000  1.0000
  H   H250      1.0  0.03004  0.41551  0.72823  1.0000
  C   C157      1.0  0.03651  0.37684  0.61489  1.0000
  H   H251      1.0  0.04984  0.46512  0.62842  1.0000
  C   C158      1.0  0.02956  0.37271  0.59987  1.0000
  H   H252      1.0  0.12989  0.46880  0.73458  1.0000
  C   C159      1.0  0.18997  0.44339  0.66403  1.0000
  H   H253      1.0  0.17948  0.46550  0.64754  1.0000
  H   H254      1.0  0.15339  0.38511  0.71680  1.0000
  C   C160      1.0  0.08041  0.59130  0.65547  1.0000
  C   C161      1.0  0.10835  0.60040  0.65347  1.0000
  C   C162      1.0  0.12059  0.58160  0.65329  1.0000
  C   C163      1.0  0.10519  0.55367  0.65540  1.0000
  C   C164      1.0  0.07739  0.54472  0.65785  1.0000
  C   C165      1.0  0.06504  0.56342  0.65773  1.0000
  H   H255      1.0  0.12042  0.62178  0.65171  1.0000
  H   H256      1.0  0.14211  0.58872  0.65138  1.0000
  H   H257      1.0  0.06532  0.52336  0.65963  1.0000
  H   H258      1.0  0.04340  0.55621  0.65932  1.0000
  H   H259      1.0  0.06986  0.49727  0.63794  1.0000
  C   C166      1.0  0.09740  0.49065  0.61563  1.0000
  N   N19       1.0  0.11950  0.39110  0.70707  1.0000
  C   C167      1.0  0.09131  0.38647  0.71049  1.0000
  C   C168      1.0  0.13202  0.38173  0.71903  1.0000
  H   H260      1.0  0.07828  0.36439  0.71161  1.0000
  H   H261      1.0  0.09082  0.39749  0.72085  1.0000
  C   C169      1.0  0.08269  0.52756  0.61451  1.0000
  H   H262      1.0  0.12644  0.42848  0.69662  1.0000
  H   H263      1.0  0.10976  0.38238  0.68420  1.0000
  H   H264      1.0  0.14002  0.37904  0.69038  1.0000
  C   C170      1.0  0.13571  0.42061  0.70533  1.0000
  H   H265      1.0  0.13257  0.39297  0.72949  1.0000
  N   N20       1.0  0.07342  0.49753  0.61489  1.0000
  C   C171      1.0  0.05626  0.48401  0.60171  1.0000
  C   C172      1.0  0.05734  0.48776  0.62782  1.0000
  H   H266      1.0  0.15686  0.42479  0.70222  1.0000
  H   H267      1.0  0.09111  0.46812  0.61616  1.0000
  H   H268      1.0  0.13716  0.43289  0.71551  1.0000
  H   H269      1.0  0.03359  0.39025  0.59335  1.0000
  N   N21       1.0  0.07532  0.61513  0.70194  1.0000
  H   H270      1.0  0.09586  0.53815  0.62434  1.0000
  C   C173      1.0  0.08570  0.64135  0.69466  1.0000
  H   H271      1.0  0.03926  0.49288  0.62780  1.0000
  H   H272      1.0  0.03599  0.35657  0.63470  1.0000
  H   H273      1.0  0.03785  0.48859  0.60086  1.0000
  C   C174      1.0  0.04748  0.59777  0.69599  1.0000
  H   H274      1.0  0.06771  0.49077  0.59170  1.0000
  C   C175      1.0  0.09345  0.60099  0.69929  1.0000
  C   C176      1.0  0.10804  0.45731  0.73327  1.0000
  C   C177      1.0  0.01706  0.34606  0.59322  1.0000
  C   C178      1.0  0.03099  0.35386  0.62315  1.0000
  H   H275      1.0  0.04904  0.46128  0.60184  1.0000
  H   H276      1.0  0.08145  0.39388  0.70182  1.0000
  C   C179      1.0  0.07467  0.62051  0.71772  1.0000
  H   H277      1.0  0.09436  0.59674  0.68745  1.0000
  H   H278      1.0  0.10705  0.35329  0.69428  1.0000
  H   H279      1.0  0.09485  0.53573  0.60487  1.0000
  H   H280      1.0  0.06517  0.53359  0.61423  1.0000
  H   H281      1.0  0.10998  0.49752  0.60601  1.0000
  H   H282      1.0  0.11086  0.50063  0.62545  1.0000
  H   H283      1.0  0.03893  0.57773  0.70121  1.0000
  H   H284      1.0  0.08663  0.63798  0.68278  1.0000
  H   H285      1.0  0.07236  0.65246  0.69621  1.0000
  H   H286      1.0  0.04734  0.59346  0.68408  1.0000
  H   H287      1.0  0.06093  0.63093  0.72006  1.0000
  H   H288      1.0  0.06728  0.60121  0.72365  1.0000
  H   H289      1.0  0.08623  0.58100  0.70457  1.0000
  H   H290      1.0  0.09528  0.63408  0.72248  1.0000
  C   C180      1.0  0.19572  0.46151  0.65275  1.0000
  C   C181      1.0  0.06456  0.43258  0.74367  1.0000
  H   H291      1.0  0.03332  0.60794  0.69766  1.0000
  Fe  Fe37      1.0  0.08416  0.66040  0.65619  1.0000
  H   H292      1.0  0.11469  0.61360  0.70353  1.0000
  H   H293      1.0  0.10659  0.65524  0.69892  1.0000
  H   H294      1.0  0.12038  0.35951  0.72062  1.0000
  H   H295      1.0  0.20625  0.38063  0.63613  1.0000
  C   C182      1.0  0.09283  0.44727  0.74554  1.0000
  H   H296      1.0  0.19558  0.39717  0.62204  1.0000
  H   H297      1.0  0.01157  0.34333  0.58172  1.0000
  C   C183      1.0  0.21115  0.43847  0.67074  1.0000
  H   H298      1.0  0.20695  0.42473  0.67958  1.0000
  H   H299      1.0  0.08434  0.33658  0.58006  1.0000
  C   C184      1.0  0.24594  0.43180  0.61533  1.0000
  C   C185      1.0  0.27161  0.33801  0.62156  1.0000
  H   H300      1.0  0.26599  0.43767  0.61028  1.0000
  H   H301      1.0  0.21395  0.41644  0.63810  1.0000
  H   H302      1.0  0.23093  0.36404  0.61823  1.0000
  S   S71       1.0  0.29284  0.42820  0.66837  1.0000
  H   H303      1.0  0.32159  0.40056  0.61607  1.0000
  H   H304      1.0  0.24783  0.44919  0.62289  1.0000
  C   C186      1.0  0.29860  0.37023  0.59909  1.0000
  C   C187      1.0  0.21236  0.39975  0.63010  1.0000
  H   H305      1.0  0.30331  0.45768  0.73700  1.0000
  N   N22       1.0  0.23846  0.40614  0.62305  1.0000
  C   C188      1.0  0.24372  0.46900  0.65473  1.0000
  H   H306      1.0  0.28004  0.41449  0.62941  1.0000
  H   H307      1.0  0.25512  0.39084  0.64044  1.0000
  H   H308      1.0  0.25408  0.44827  0.67192  1.0000
  S   S72       1.0  0.30176  0.37505  0.64359  1.0000
  C   C189      1.0  0.27813  0.34390  0.59566  1.0000
  C   C190      1.0  0.25998  0.40966  0.63425  1.0000
  C   C191      1.0  0.22255  0.47415  0.64805  1.0000
  H   H309      1.0  0.25506  0.38799  0.60705  1.0000
  C   C192      1.0  0.29232  0.36422  0.62500  1.0000
  C   C193      1.0  0.23575  0.38351  0.61265  1.0000
  H   H310      1.0  0.21937  0.37986  0.60414  1.0000
  Fe  Fe38      1.0  0.30718  0.46766  0.65712  1.0000
  H   H311      1.0  0.23041  0.42988  0.60662  1.0000
  H   H312      1.0  0.26262  0.42667  0.64218  1.0000
  H   H313      1.0  0.30949  0.38272  0.59043  1.0000
  C   C194      1.0  0.30548  0.38046  0.61364  1.0000
  C   C195      1.0  0.23793  0.45151  0.66626  1.0000
  S   S73       1.0  0.27684  0.48338  0.64806  1.0000
  H   H314      1.0  0.22689  0.48788  0.63920  1.0000
  C   C196      1.0  0.32016  0.45164  0.73816  1.0000
  S   S74       1.0  0.32012  0.45250  0.70853  1.0000
  Fe  Fe39      1.0  0.32138  0.41853  0.65424  1.0000
  S   S75       1.0  0.27163  0.33149  0.57716  1.0000
  C   C197      1.0  0.04183  0.37893  0.86670  1.0000
  S   S76       1.0  0.11752  0.64166  0.81681  1.0000
  H   H315      1.0  0.02243  0.45400  0.83924  1.0000
  C   C198      1.0  0.30509  0.38209  0.86860  1.0000
  C   C199      1.0  0.01666  0.43459  0.83259  1.0000
  Fe  Fe40      1.0  0.29581  0.45428  0.80251  1.0000
  S   S77       1.0  0.25368  0.44774  0.79397  1.0000
  S   S78       1.0  0.30558  0.41719  0.80194  1.0000
  Fe  Fe41      1.0  0.08000  0.48318  0.80922  1.0000
  S   S79       1.0  0.05686  0.44388  0.79589  1.0000
  S   S80       1.0  0.05762  0.51108  0.81188  1.0000
  Fe  Fe42      1.0  0.12791  0.46751  0.81528  1.0000
  S   S81       1.0  0.10779  0.42733  0.80261  1.0000
  S   S82       1.0  0.17030  0.48300  0.82605  1.0000
  Fe  Fe43      1.0  0.09673  0.45137  0.78586  1.0000
  S   S83       1.0  0.11068  0.45176  0.76262  1.0000
  Fe  Fe44      1.0  0.06996  0.42356  0.81399  1.0000
  S   S84       1.0  0.03911  0.38313  0.82233  1.0000
  S   S85       1.0  0.11897  0.49195  0.79812  1.0000
  S   S86       1.0  0.09090  0.46247  0.82775  1.0000
  C   C200      1.0  0.03491  0.37133  0.84039  1.0000
  H   H316      1.0  0.16889  0.45832  0.76177  1.0000
  C   C201      1.0  0.04710  0.38881  0.85259  1.0000
  H   H317      1.0  0.06039  0.41001  0.85117  1.0000
  C   C202      1.0  0.23101  0.45476  0.80502  1.0000
  C   C203      1.0  0.20298  0.44059  0.80180  1.0000
  C   C204      1.0  0.18419  0.44837  0.80869  1.0000
  C   C205      1.0  0.19324  0.47037  0.81893  1.0000
  C   C206      1.0  0.22125  0.48372  0.82274  1.0000
  C   C207      1.0  0.24016  0.47594  0.81579  1.0000
  H   H318      1.0  0.19579  0.42390  0.79365  1.0000
  H   H319      1.0  0.16275  0.43760  0.80586  1.0000
  H   H320      1.0  0.22841  0.50072  0.83069  1.0000
  H   H321      1.0  0.26179  0.48704  0.81831  1.0000
  H   H322      1.0  0.07164  0.41134  0.93875  1.0000
  C   C208      1.0  0.30748  0.38439  0.85347  1.0000
  C   C209      1.0  0.29584  0.36052  0.84450  1.0000
  C   C210      1.0  0.08370  0.64279  0.84756  1.0000
  H   H323      1.0  0.16633  0.50117  0.75613  1.0000
  N   N23       1.0  0.04439  0.37152  0.92999  1.0000
  C   C211      1.0  0.20133  0.50741  0.78834  1.0000
  H   H324      1.0  0.23347  0.34297  0.87756  1.0000
  H   H325      1.0  0.18462  0.35389  0.86766  1.0000
  H   H326      1.0  0.00213  0.35463  0.93538  1.0000
  H   H327      1.0  0.21040  0.49679  0.75277  1.0000
  H   H328      1.0  0.03713  0.63746  0.83358  1.0000
  C   C212      1.0  0.10074  0.60544  0.81435  1.0000
  C   C213      1.0  0.07273  0.59212  0.81083  1.0000
  C   C214      1.0  0.05984  0.56324  0.81000  1.0000
  C   C215      1.0  0.07487  0.54738  0.81236  1.0000
  C   C216      1.0  0.10295  0.56072  0.81562  1.0000
  C   C217      1.0  0.11571  0.58957  0.81678  1.0000
  H   H329      1.0  0.06093  0.60402  0.80893  1.0000
  H   H330      1.0  0.03813  0.55313  0.80745  1.0000
  H   H331      1.0  0.11476  0.54882  0.81756  1.0000
  H   H332      1.0  0.13735  0.59965  0.81958  1.0000
  H   H333      1.0  0.23077  0.49583  0.76840  1.0000
  H   H334      1.0  0.22796  0.52718  0.76427  1.0000
  H   H335      1.0  0.18371  0.50153  0.79552  1.0000
  C   C218      1.0  0.17390  0.50894  0.76746  1.0000
  H   H336      1.0  0.04014  0.35506  0.95122  1.0000
  H   H337      1.0  0.21251  0.35619  0.85672  1.0000
  H   H338      1.0  0.05390  0.61940  0.87015  1.0000
  H   H339      1.0  0.01486  0.41796  0.83999  1.0000
  C   C219      1.0  0.29144  0.35638  0.87469  1.0000
  H   H340      1.0  0.29008  0.35502  0.88634  1.0000
  H   H341      1.0  0.17803  0.33509  0.85045  1.0000
  S   S87       1.0  0.01801  0.34049  0.88702  1.0000
  H   H342      1.0  0.04392  0.41097  0.92719  1.0000
  H   H343      1.0  0.07423  0.36753  0.94479  1.0000
  H   H344      1.0  0.05492  0.38357  0.90819  1.0000
  H   H345      1.0  0.21558  0.49903  0.79294  1.0000
  H   H346      1.0  0.03770  0.39898  0.94526  1.0000
  H   H347      1.0  0.16060  0.46019  0.78030  1.0000
  H   H348      1.0  0.15554  0.50342  0.77402  1.0000
  H   H349      1.0  0.08285  0.38423  0.91974  1.0000
  H   H350      1.0  0.00837  0.36682  0.91719  1.0000
  H   H351      1.0  0.18412  0.53166  0.76758  1.0000
  C   C220      1.0  0.28275  0.33476  0.85062  1.0000
  N   N24       1.0  0.19236  0.49695  0.77321  1.0000
  H   H352      1.0  0.03381  0.60632  0.85351  1.0000
  H   H353      1.0  0.29765  0.36179  0.83287  1.0000
  C   C221      1.0  0.04292  0.62466  0.86113  1.0000
  H   H354      1.0  0.01034  0.33553  0.92162  1.0000
  H   H355      1.0  0.05116  0.39278  0.87601  1.0000
  H   H356      1.0  0.21203  0.53011  0.78915  1.0000
  C   C222      1.0  0.04606  0.65486  0.84178  1.0000
  H   H357      1.0  0.05260  0.42458  0.75300  1.0000
  C   C223      1.0  0.05223  0.35695  0.94140  1.0000
  C   C224      1.0  0.01772  0.34380  0.84255  1.0000
  C   C225      1.0  0.17777  0.46681  0.77282  1.0000
  C   C226      1.0  0.01286  0.33379  0.85666  1.0000
  C   C227      1.0  0.28049  0.33244  0.86574  1.0000
  H   H358      1.0  0.19161  0.45698  0.77607  1.0000
  H   H359      1.0  0.02911  0.65960  0.84589  1.0000
  N   N25       1.0  0.06147  0.64873  0.85365  1.0000
  H   H360      1.0  0.31924  0.45152  0.76155  1.0000
  H   H361      1.0  0.02586  0.62847  0.86580  1.0000
  H   H362      1.0  0.09819  0.66060  0.84188  1.0000
  H   H363      1.0  0.04839  0.33570  0.93760  1.0000
  H   H364      1.0  0.00235  0.40544  0.80715  1.0000
  S   S88       1.0  0.31538  0.46949  0.82461  1.0000
  C   C228      1.0  0.01503  0.35663  0.92590  1.0000
  C   C229      1.0  0.02475  0.35135  0.86887  1.0000
  C   C230      1.0  0.21644  0.50457  0.76424  1.0000
  C   C231      1.0  0.06060  0.37307  0.91712  1.0000
  H   H365      1.0  0.05707  0.35231  0.91261  1.0000
  H   H366      1.0  0.03390  0.43718  0.82564  1.0000
  H   H367      1.0  0.01163  0.45473  0.80685  1.0000
  C   C232      1.0  0.04967  0.39948  0.93556  1.0000
  C   C233      1.0  0.19215  0.34194  0.86026  1.0000
  H   H368      1.0  0.99967  0.47027  0.82075  1.0000
  H   H369      1.0  0.09577  0.63781  0.85611  1.0000
  C   C234      1.0  0.99461  0.45077  0.81426  1.0000
  H   H370      1.0  0.07571  0.62515  0.83944  1.0000
  H   H371      1.0  0.31409  0.40032  0.87568  1.0000
  H   H372      1.0  0.20517  0.33916  0.88866  1.0000
  S   S89       1.0  0.05703  0.66239  0.80351  1.0000
  H   H373      1.0  0.22882  0.96072  0.09029  1.0000
  H   H374      1.0  0.22781  0.99304  0.08686  1.0000
  S   S90       1.0  0.22832  0.99210  0.05600  1.0000
  H   H375      1.0  0.03683  0.82334  0.02565  1.0000
  H   H376      1.0  0.20824  0.96069  0.12864  1.0000
  S   S91       1.0  0.00765  0.76968  0.01187  1.0000
  C   C235      1.0  0.07947  0.83300  0.00907  1.0000
  S   S92       1.0  0.03030  0.86985  0.06250  1.0000
  S   S93       1.0  0.01969  0.79102  0.05439  1.0000
  H   H377      1.0  0.21888  0.94261  0.11514  1.0000
  S   S94       1.0  0.15974  0.93629  0.06564  1.0000
  H   H378      1.0  0.10185  0.88178  0.03666  1.0000
  C   C236      1.0  0.06636  0.88757  0.06284  1.0000
  C   C237      1.0  0.07790  0.91543  0.05969  1.0000
  C   C238      1.0  0.10643  0.93050  0.06022  1.0000
  C   C239      1.0  0.12374  0.91795  0.06419  1.0000
  C   C240      1.0  0.11222  0.89006  0.06733  1.0000
  C   C241      1.0  0.08368  0.87488  0.06656  1.0000
  H   H379      1.0  0.06466  0.92547  0.05690  1.0000
  H   H380      1.0  0.11498  0.95194  0.05783  1.0000
  H   H381      1.0  0.12543  0.88021  0.07051  1.0000
  H   H382      1.0  0.07505  0.85361  0.06929  1.0000
  H   H383      1.0  0.04792  0.85736  0.01925  1.0000
  H   H384      1.0  0.06427  0.81131  0.00770  1.0000
  H   H385      1.0  0.07035  0.80545  0.03355  1.0000
  C   C242      1.0  0.10132  0.87255  0.02561  1.0000
  C   C243      1.0  0.05325  0.84435  0.02683  1.0000
  H   H386      1.0  0.10627  0.82629  0.03270  1.0000
  H   H387      1.0  0.08664  0.83472  0.04586  1.0000
  H   H388      1.0  0.05278  0.85229  0.03804  1.0000
  C   C244      1.0  0.22136  0.96333  0.11921  1.0000
  N   N26       1.0  0.08010  0.84424  0.02399  1.0000
  Fe  Fe45      1.0  0.18325  0.97998  0.05875  1.0000
  H   H389      1.0  0.09749  0.88604  0.01773  1.0000
  H   H390      1.0  0.24297  0.97468  0.12328  1.0000
  C   C245      1.0  0.23196  0.98095  0.09541  1.0000
  H   H391      1.0  0.07367  0.84473  0.00087  1.0000
  C   C246      1.0  0.08616  0.82693  0.03448  1.0000
  H   H392      1.0  0.17926  0.97305  0.09383  1.0000
  H   H393      1.0  0.12201  0.87329  0.02390  1.0000
  H   H394      1.0  0.25389  0.99195  0.09890  1.0000
  H   H395      1.0  0.09963  0.83336  0.00637  1.0000
  Fe  Fe46      1.0  0.00460  0.82429  0.05759  1.0000
  N   N27       1.0  0.21414  0.97808  0.10768  1.0000
  C   C247      1.0  0.18534  0.96253  0.10259  1.0000
  H   H396      1.0  0.18440  0.98281  0.00668  1.0000
  H   H397      1.0  0.18172  0.94181  0.09794  1.0000
  H   H398      1.0  0.17118  0.95988  0.11152  1.0000
  H   H399      1.0  0.00592  0.82218  0.00515  1.0000
  Fe  Fe47      1.0  0.99444  0.78144  0.03331  1.0000
  H   H400      1.0  0.10218  0.80595  0.35957  1.0000
  C   C248      1.0  0.09935  0.80087  0.37117  1.0000
  C   C249      1.0  0.11013  0.86745  0.49059  1.0000
  H   H401      1.0  0.01866  0.79782  0.45732  1.0000
  H   H402      1.0  0.05797  0.85118  0.49744  1.0000
  Fe  Fe48      1.0  0.02595  0.82612  0.40865  1.0000
  S   S95       1.0  0.07168  0.85293  0.41193  1.0000
  H   H403      1.0  0.04309  0.80529  0.48141  1.0000
  S   S96       1.0  0.01484  0.78430  0.41766  1.0000
  C   C250      1.0  0.02125  0.79904  0.48083  1.0000
  S   S97       1.0  0.15150  0.96838  0.38881  1.0000
  C   C251      1.0  0.09261  0.88584  0.40586  1.0000
  C   C252      1.0  0.08434  0.89771  0.39442  1.0000
  C   C253      1.0  0.10251  0.92304  0.38938  1.0000
  C   C254      1.0  0.12893  0.93701  0.39586  1.0000
  C   C255      1.0  0.13700  0.92529  0.40743  1.0000
  C   C256      1.0  0.11905  0.89975  0.41228  1.0000
  H   H404      1.0  0.06411  0.88729  0.38934  1.0000
  H   H405      1.0  0.09607  0.93192  0.38042  1.0000
  H   H406      1.0  0.15727  0.93568  0.41247  1.0000
  H   H407      1.0  0.12574  0.89072  0.42107  1.0000
  H   H408      1.0  0.09457  0.84621  0.38147  1.0000
  C   C257      1.0  0.00745  0.79476  0.46712  1.0000
  H   H409      1.0  0.06937  0.77464  0.39338  1.0000
  H   H410      1.0  0.03112  0.78395  0.37143  1.0000
  H   H411      1.0  0.11787  0.81531  0.37755  1.0000
  H   H412      1.0  0.07870  0.83706  0.36348  1.0000
  H   H413      1.0  0.05319  0.79763  0.39604  1.0000
  H   H414      1.0  0.09842  0.77984  0.37218  1.0000
  C   C258      1.0  0.05033  0.78331  0.36770  1.0000
  H   H415      1.0  0.05844  0.83346  0.37902  1.0000
  C   C259      1.0  0.07155  0.79594  0.39180  1.0000
  H   H416      1.0  0.04793  0.76176  0.36865  1.0000
  H   H417      1.0  0.05160  0.78784  0.35599  1.0000
  C   C260      1.0  0.07664  0.83106  0.37495  1.0000
  H   H418      1.0  0.21961  0.96502  0.47541  1.0000
  H   H419      1.0  0.12972  0.86510  0.49001  1.0000
  N   N28       1.0  0.07445  0.80279  0.37639  1.0000
  S   S98       1.0  0.00184  0.80903  0.38748  1.0000
  H   H420      1.0  0.08928  0.81023  0.39875  1.0000
  S   S99       1.0  0.22881  0.98998  0.40443  1.0000
  H   H421      1.0  0.09542  0.85281  0.48231  1.0000
  C   C261      1.0  0.00697  0.79494  0.49368  1.0000
  C   C262      1.0  0.23092  0.98696  0.47688  1.0000
  S   S100      1.0  0.23537  0.98610  0.44726  1.0000
  H   H422      1.0  0.29126  0.98455  0.41646  1.0000
  H   H423      1.0  0.11391  0.88852  0.48737  1.0000
  H   H424      1.0  0.17564  0.91049  0.63761  1.0000
  N   N29       1.0  0.21929  0.92445  0.63861  1.0000
  Fe  Fe49      1.0  0.01973  0.83593  0.56041  1.0000
  S   S101      1.0  0.04688  0.87747  0.57075  1.0000
  S   S102      1.0  0.04092  0.81087  0.55148  1.0000
  S   S103      1.0  0.13926  0.95415  0.53131  1.0000
  Fe  Fe50      1.0  0.10037  0.70532  0.68008  1.0000
  S   S104      1.0  0.12398  0.68535  0.66829  1.0000
  S   S105      1.0  0.11342  0.71459  0.70406  1.0000
  Fe  Fe51      1.0  0.07113  0.71037  0.65140  1.0000
  S   S106      1.0  0.09227  0.68982  0.63808  1.0000
  S   S107      1.0  0.04522  0.73138  0.64190  1.0000
  Fe  Fe52      1.0  0.12996  0.71681  0.65167  1.0000
  S   S108      1.0  0.17016  0.74096  0.64132  1.0000
  S   S109      1.0  0.10910  0.73850  0.66419  1.0000
  S   S110      1.0  0.31968  0.89198  0.67204  1.0000
  C   C263      1.0  0.11938  0.88246  0.51592  1.0000
  H   H425      1.0  0.20616  0.93585  0.65859  1.0000
  S   S111      1.0  0.30337  0.90704  0.63978  1.0000
  C   C264      1.0  0.22402  0.95052  0.63177  1.0000
  Fe  Fe53      1.0  0.28236  0.89216  0.66050  1.0000
  S   S112      1.0  0.23857  0.86418  0.66426  1.0000
  S   S113      1.0  0.28950  0.93414  0.66949  1.0000
  C   C265      1.0  0.19024  0.77475  0.64822  1.0000
  C   C266      1.0  0.18147  0.78649  0.65960  1.0000
  C   C267      1.0  0.19669  0.81382  0.66438  1.0000
  C   C268      1.0  0.22124  0.82962  0.65809  1.0000
  C   C269      1.0  0.23052  0.81789  0.64688  1.0000
  C   C270      1.0  0.21491  0.79054  0.64190  1.0000
  H   H426      1.0  0.16301  0.77455  0.66482  1.0000
  H   H427      1.0  0.18942  0.82268  0.67309  1.0000
  H   H428      1.0  0.24944  0.82991  0.64194  1.0000
  H   H429      1.0  0.22196  0.78158  0.63313  1.0000
  C   C271      1.0  0.27131  0.95510  0.59584  1.0000
  C   C272      1.0  0.28403  0.95649  0.60964  1.0000
  H   H430      1.0  0.26643  0.93719  0.58866  1.0000
  H   H431      1.0  0.28885  0.93974  0.61298  1.0000
  H   H432      1.0  0.22722  0.98737  0.50020  1.0000
  C   C273      1.0  0.07275  0.89851  0.55982  1.0000
  C   C274      1.0  0.09802  0.91655  0.56624  1.0000
  C   C275      1.0  0.11881  0.93358  0.55762  1.0000
  C   C276      1.0  0.11400  0.93326  0.54262  1.0000
  C   C277      1.0  0.08846  0.91585  0.53631  1.0000
  C   C278      1.0  0.06808  0.89810  0.54481  1.0000
  H   H433      1.0  0.10169  0.91688  0.57785  1.0000
  H   H434      1.0  0.13852  0.94674  0.56257  1.0000
  H   H435      1.0  0.08441  0.91609  0.52478  1.0000
  H   H436      1.0  0.04849  0.88457  0.53984  1.0000
  C   C279      1.0  0.02840  0.74133  0.59351  1.0000
  C   C280      1.0  0.03572  0.72008  0.59768  1.0000
  C   C281      1.0  0.04106  0.71685  0.61241  1.0000
  C   C282      1.0  0.03897  0.73476  0.62318  1.0000
  C   C283      1.0  0.03142  0.75587  0.61903  1.0000
  C   C284      1.0  0.02634  0.75929  0.60428  1.0000
  H   H437      1.0  0.03714  0.70592  0.58945  1.0000
  H   H438      1.0  0.04628  0.70016  0.61545  1.0000
  C   C285      1.0  0.23981  0.91451  0.63392  1.0000
  C   C286      1.0  0.10904  0.69890  0.73206  1.0000
  C   C287      1.0  0.09463  0.69897  0.71912  1.0000
  C   C288      1.0  0.06616  0.68884  0.71893  1.0000
  C   C289      1.0  0.05242  0.67993  0.73182  1.0000
  H   H439      1.0  0.13105  0.70642  0.73224  1.0000
  H   H440      1.0  0.05484  0.68898  0.70905  1.0000
  H   H441      1.0  0.29859  0.83926  0.69132  1.0000
  C   C290      1.0  0.26495  0.97670  0.59116  1.0000
  H   H442      1.0  0.07856  0.98790  0.57561  1.0000
  N   N30       1.0  0.12549  0.76847  0.61381  1.0000
  C   C291      1.0  0.15478  0.78447  0.61158  1.0000
  C   C292      1.0  0.11840  0.73920  0.61020  1.0000
  C   C293      1.0  0.10887  0.77817  0.60435  1.0000
  C   C294      1.0  0.11993  0.77197  0.62915  1.0000
  H   H443      1.0  0.16105  0.80658  0.61448  1.0000
  H   H444      1.0  0.15968  0.78247  0.60009  1.0000
  H   H445      1.0  0.16775  0.77728  0.61845  1.0000
  H   H446      1.0  0.09655  0.72645  0.61196  1.0000
  H   H447      1.0  0.12207  0.73568  0.59867  1.0000
  H   H448      1.0  0.13071  0.73128  0.61709  1.0000
  H   H449      1.0  0.11195  0.77522  0.59265  1.0000
  H   H450      1.0  0.11389  0.80026  0.60663  1.0000
  H   H451      1.0  0.08672  0.76682  0.60602  1.0000
  H   H452      1.0  0.13238  0.76521  0.63659  1.0000
  H   H453      1.0  0.09816  0.75969  0.63132  1.0000
  H   H454      1.0  0.12457  0.79369  0.63226  1.0000
  S   S114      1.0  0.21931  0.98183  0.53681  1.0000
  C   C295      1.0  0.30069  0.93533  0.71970  1.0000
  H   H455      1.0  0.21921  0.90988  0.66010  1.0000
  N   N31       1.0  0.28451  0.85352  0.71011  1.0000
  H   H456      1.0  0.11417  0.83147  0.50957  1.0000
  C   C296      1.0  0.26020  0.82755  0.71119  1.0000
  H   H457      1.0  0.26610  0.92590  0.73311  1.0000
  C   C297      1.0  0.30583  0.84818  0.70253  1.0000
  H   H458      1.0  0.02076  0.77576  0.60127  1.0000
  H   H459      1.0  0.14348  0.80461  0.74599  1.0000
  S   S115      1.0  0.24895  0.97349  0.57357  1.0000
  H   H460      1.0  0.13537  0.98858  0.57688  1.0000
  H   H461      1.0  0.26519  0.81244  0.71729  1.0000
  H   H462      1.0  0.25158  0.81798  0.70024  1.0000
  C   C298      1.0  0.06703  0.68119  0.74494  1.0000
  H   H463      1.0  0.07610  0.88671  0.50280  1.0000
  Fe  Fe54      1.0  0.00893  0.79926  0.53316  1.0000
  H   H464      1.0  0.11194  0.87926  0.52713  1.0000
  H   H465      1.0  0.24379  0.83092  0.71689  1.0000
  C   C299      1.0  0.09486  0.83444  0.50917  1.0000
  H   H466      1.0  0.23688  0.89483  0.63885  1.0000
  C   C300      1.0  0.19172  0.90377  0.63419  1.0000
  H   H467      1.0  0.23885  0.91115  0.62192  1.0000
  H   H468      1.0  0.06433  0.86142  0.51631  1.0000
  H   H469      1.0  0.31395  0.88494  0.72434  1.0000
  H   H470      1.0  0.18928  0.89998  0.62218  1.0000
  C   C301      1.0  0.22173  0.92895  0.65458  1.0000
  Fe  Fe55      1.0  0.17987  0.98519  0.54091  1.0000
  H   H471      1.0  0.26078  0.92956  0.63723  1.0000
  Fe  Fe56      1.0  0.31249  0.94906  0.64932  1.0000
  H   H472      1.0  0.02958  0.76976  0.62728  1.0000
  H   H473      1.0  0.30055  0.85154  0.73153  1.0000
  H   H474      1.0  0.08574  0.82967  0.51998  1.0000
  H   H475      1.0  0.08040  0.81885  0.50119  1.0000
  S   S116      1.0  0.02545  0.80035  0.51062  1.0000
  H   H476      1.0  0.20832  0.95817  0.63461  1.0000
  H   H477      1.0  0.18770  0.88386  0.63917  1.0000
  H   H478      1.0  0.24216  0.94493  0.65820  1.0000
  Fe  Fe57      1.0  0.01119  0.77655  0.56369  1.0000
  S   S117      1.0  0.30599  0.98217  0.63668  1.0000
  H   H479      1.0  0.24427  0.96683  0.63538  1.0000
  H   H480      1.0  0.22375  0.94831  0.61970  1.0000
  H   H481      1.0  0.28938  0.93512  0.70975  1.0000
  H   H482      1.0  0.08418  0.73806  0.74096  1.0000
  C   C302      1.0  0.28758  0.93022  0.73296  1.0000
  S   S118      1.0  0.02157  0.74407  0.57479  1.0000
  H   H483      1.0  0.12329  0.90389  0.51338  1.0000
  C   C303      1.0  0.30210  0.93086  0.74602  1.0000
  C   C304      1.0  0.12260  0.78881  0.74310  1.0000
  H   H484      1.0  0.07577  0.99051  0.55629  1.0000
  H   H485      1.0  0.13937  0.88082  0.51606  1.0000
  N   N32       1.0  0.09945  0.86251  0.50529  1.0000
  C   C305      1.0  0.29518  0.86570  0.72482  1.0000
  H   H486      1.0  0.29491  0.89221  0.70041  1.0000
  H   H487      1.0  0.03048  0.67304  0.73175  1.0000
  C   C306      1.0  0.29061  0.97961  0.61898  1.0000
  C   C307      1.0  0.09534  0.69004  0.74491  1.0000
  C   C308      1.0  0.27688  0.87271  0.70183  1.0000
  S   S119      1.0  0.06009  0.67917  0.66874  1.0000
  C   C309      1.0  0.08905  0.98868  0.56532  1.0000
  H   H488      1.0  0.10944  0.79949  0.74000  1.0000
  H   H489      1.0  0.28006  0.87096  0.73073  1.0000
  H   H490      1.0  0.31207  0.83368  0.70842  1.0000
  C   C310      1.0  0.07339  0.86569  0.50547  1.0000
  H   H491      1.0  0.12395  0.77679  0.73328  1.0000
  H   H492      1.0  0.09033  0.96856  0.56353  1.0000
  H   H493      1.0  0.13296  0.99234  0.55049  1.0000
  H   H494      1.0  0.26816  0.86391  0.69079  1.0000
  H   H495      1.0  0.26142  0.87792  0.70738  1.0000
  H   H496      1.0  0.32448  0.86744  0.70158  1.0000
  S   S120      1.0  0.03975  0.75826  0.89408  1.0000
  H   H497      1.0  0.05663  0.80775  0.87920  1.0000
  C   C311      1.0  0.08392  0.75009  0.75096  1.0000
  S   S121      1.0  0.01904  0.86798  0.88542  1.0000
  S   S122      1.0  0.04018  0.82337  0.91222  1.0000
  S   S123      1.0  0.18133  0.96409  0.91200  1.0000
  C   C312      1.0  0.23236  0.94036  0.77553  1.0000
  Fe  Fe58      1.0  0.29751  0.93831  0.81644  1.0000
  H   H498      1.0  0.06438  0.89808  0.95728  1.0000
  S   S124      1.0  0.27566  0.96245  0.82719  1.0000
  Fe  Fe59      1.0  0.30267  0.92116  0.78461  1.0000
  H   H499      1.0  0.02043  0.77902  0.95958  1.0000
  S   S125      1.0  0.28454  0.92411  0.76236  1.0000
  Fe  Fe60      1.0  0.29362  0.88057  0.80851  1.0000
  S   S126      1.0  0.27437  0.83630  0.81459  1.0000
  S   S127      1.0  0.27033  0.90433  0.80090  1.0000
  Fe  Fe61      1.0  0.07212  0.68594  0.78342  1.0000
  S   S128      1.0  0.11581  0.69308  0.78770  1.0000
  Fe  Fe62      1.0  0.10124  0.67200  0.80853  1.0000
  Fe  Fe63      1.0  0.06600  0.70317  0.81521  1.0000
  S   S129      1.0  0.10943  0.71138  0.82165  1.0000
  S   S130      1.0  0.03454  0.71006  0.82915  1.0000
  Fe  Fe64      1.0  0.11994  0.73134  0.80025  1.0000
  S   S131      1.0  0.14904  0.77398  0.79476  1.0000
  S   S132      1.0  0.07690  0.72549  0.79460  1.0000
  H   H500      1.0  0.01361  0.82415  0.86472  1.0000
  C   C313      1.0  0.23968  0.81822  0.80882  1.0000
  C   C314      1.0  0.22739  0.82932  0.79885  1.0000
  C   C315      1.0  0.19967  0.81534  0.79466  1.0000
  C   C316      1.0  0.18395  0.78992  0.80023  1.0000
  C   C317      1.0  0.19626  0.77832  0.80994  1.0000
  C   C318      1.0  0.22411  0.79250  0.81423  1.0000
  H   H501      1.0  0.23927  0.84859  0.79426  1.0000
  H   H502      1.0  0.19035  0.82434  0.78707  1.0000
  H   H503      1.0  0.18431  0.75866  0.81425  1.0000
  H   H504      1.0  0.23350  0.78364  0.82187  1.0000
  N   N33       1.0  0.05325  0.82666  0.85947  1.0000
  C   C319      1.0  0.28338  0.95963  0.85707  1.0000
  C   C320      1.0  0.26834  0.96472  0.84578  1.0000
  C   C321      1.0  0.04944  0.89808  0.88710  1.0000
  C   C322      1.0  0.07315  0.89969  0.89470  1.0000
  C   C323      1.0  0.09707  0.92432  0.89525  1.0000
  C   C324      1.0  0.09715  0.94714  0.88810  1.0000
  C   C325      1.0  0.07354  0.94507  0.88038  1.0000
  C   C326      1.0  0.04993  0.92076  0.87986  1.0000
  H   H505      1.0  0.07319  0.88188  0.89985  1.0000
  H   H506      1.0  0.11551  0.92556  0.90087  1.0000
  H   H507      1.0  0.07349  0.96248  0.87474  1.0000
  H   H508      1.0  0.03186  0.91963  0.87383  1.0000
  C   C327      1.0  0.03720  0.72494  0.84697  1.0000
  C   C328      1.0  0.06077  0.73264  0.85602  1.0000
  C   C329      1.0  0.06124  0.74285  0.87038  1.0000
  C   C330      1.0  0.03846  0.74616  0.87575  1.0000
  H   H509      1.0  0.10158  0.77431  0.77740  1.0000
  H   H510      1.0  0.07853  0.73056  0.85199  1.0000
  H   H511      1.0  0.07940  0.74830  0.87738  1.0000
  H   H512      1.0  0.05804  0.80907  0.83900  1.0000
  H   H513      1.0  0.10039  0.89080  0.92485  1.0000
  H   H514      1.0  0.23794  0.92355  0.77911  1.0000
  H   H515      1.0  0.28157  0.98196  0.77976  1.0000
  H   H516      1.0  0.08552  0.83888  0.87609  1.0000
  C   C331      1.0  0.02315  0.81265  0.85836  1.0000
  H   H517      1.0  0.12615  0.93185  0.95985  1.0000
  C   C332      1.0  0.06497  0.81098  0.85064  1.0000
  C   C333      1.0  0.06291  0.82842  0.87479  1.0000
  H   H518      1.0  0.08767  0.82086  0.85128  1.0000
  H   H519      1.0  0.05437  0.84005  0.88173  1.0000
  H   H520      1.0  0.08451  0.86597  0.85505  1.0000
  C   C334      1.0  0.06192  0.85460  0.85416  1.0000
  H   H521      1.0  0.01588  0.79176  0.86260  1.0000
  C   C335      1.0  0.25776  0.97268  0.87520  1.0000
  C   C336      1.0  0.27828  0.96387  0.87167  1.0000
  H   H522      1.0  0.29942  0.95312  0.85457  1.0000
  H   H523      1.0  0.08169  0.93489  0.95911  1.0000
  H   H524      1.0  0.05874  0.78982  0.85442  1.0000
  C   C337      1.0  0.01517  0.73912  0.86657  1.0000
  Fe  Fe65      1.0  0.01475  0.78006  0.90371  1.0000
  H   H525      1.0  0.01511  0.81051  0.84692  1.0000
  C   C338      1.0  0.07388  0.91705  0.95114  1.0000
  H   H526      1.0  0.12459  0.94148  0.92741  1.0000
  H   H527      1.0  0.10676  0.69066  0.75487  1.0000
  H   H528      1.0  0.05505  0.85414  0.84262  1.0000
  H   H529      1.0  0.29049  0.96048  0.88030  1.0000
  C   C339      1.0  0.10995  0.78739  0.76807  1.0000
  H   H530      1.0  0.13051  0.80288  0.77185  1.0000
  H   H531      1.0  0.11603  0.95998  0.94138  1.0000
  H   H532      1.0  0.05732  0.91877  0.94424  1.0000
  H   H533      1.0  0.09664  0.79826  0.76572  1.0000
  C   C340      1.0  0.01711  0.78844  0.96946  1.0000
  Fe  Fe66      1.0  0.01234  0.81439  0.93089  1.0000
  H   H534      1.0  0.06752  0.89227  0.92503  1.0000
  C   C341      1.0  0.24215  0.97695  0.86390  1.0000
  Fe  Fe67      1.0  0.16506  0.99187  0.90155  1.0000
  H   H535      1.0  0.24295  0.94754  0.76529  1.0000
  Fe  Fe68      1.0  0.00873  0.83312  0.90035  1.0000
  C   C342      1.0  0.01325  0.77461  0.98249  1.0000
  S   S133      1.0  0.02584  0.83416  0.95365  1.0000
  H   H536      1.0  0.13497  0.91435  0.94545  1.0000
  S   S134      1.0  0.12595  0.97860  0.88790  1.0000
  H   H537      1.0  0.07540  0.73528  0.75962  1.0000
  C   C343      1.0  0.23264  0.98467  0.78168  1.0000
  C   C344      1.0  0.00956  0.78675  0.99551  1.0000
  C   C345      1.0  0.18086  0.98128  0.98322  1.0000
  C   C346      1.0  0.19510  0.98943  0.99683  1.0000
  H   H538      1.0  0.07617  0.87248  0.93792  1.0000
  C   C347      1.0  0.01407  0.82698  0.98238  1.0000
  H   H539      1.0  0.15017  0.77204  0.76312  1.0000
  H   H540      1.0  0.31055  0.82962  0.84049  1.0000
  C   C348      1.0  0.08457  0.89186  0.93205  1.0000
  N   N34       1.0  0.11151  0.77085  0.75528  1.0000
  H   H541      1.0  0.08773  0.69095  0.85874  1.0000
  C   C349      1.0  0.01452  0.72842  0.85232  1.0000
  C   C350      1.0  0.01805  0.81491  0.96941  1.0000
  S   S135      1.0  0.17551  0.97831  0.95345  1.0000
  H   H542      1.0  0.21001  0.93134  0.77293  1.0000
  H   H543      1.0  0.31780  0.86486  0.83862  1.0000
  N   N35       1.0  0.09590  0.91610  0.94224  1.0000
  S   S136      1.0  0.31878  0.91323  0.82536  1.0000
  C   C351      1.0  0.27025  0.97419  0.78972  1.0000
  Fe  Fe69      1.0  0.22170  0.99239  0.90357  1.0000
  H   H544      1.0  0.09194  0.94323  0.92641  1.0000
  C   C352      1.0  0.11758  0.91416  0.95179  1.0000
  C   C353      1.0  0.12962  0.75710  0.75897  1.0000
  C   C354      1.0  0.10750  0.94126  0.93400  1.0000
  H   H545      1.0  0.20389  0.94347  0.79854  1.0000
  H   H546      1.0  0.99735  0.74115  0.87058  1.0000
  H   H547      1.0  0.12114  0.74222  0.76758  1.0000
  S   S137      1.0  0.25384  0.97995  0.89378  1.0000
  H   H548      1.0  0.10980  0.89509  0.95790  1.0000
  C   C355      1.0  0.24771  0.97339  0.84930  1.0000
  C   C356      1.0  0.19441  0.98954  0.97028  1.0000
  H   H549      1.0  0.15923  0.96844  0.98273  1.0000
  C   C357      1.0  0.00930  0.81277  0.99531  1.0000
  H   H550      1.0  0.05318  0.86681  0.86060  1.0000
  H   H551      1.0  0.01358  0.75453  0.98254  1.0000
  H   H552      1.0  0.27664  0.95831  0.79372  1.0000
  C   C358      1.0  0.22645  0.95214  0.80026  1.0000
  H   H553      1.0  0.23197  0.93566  0.80444  1.0000
  S   S138      1.0  0.04960  0.67352  0.76126  1.0000
  H   H554      1.0  0.24293  0.99318  0.77155  1.0000
  N   N36       1.0  0.24040  0.96284  0.78679  1.0000
  H   H555      1.0  0.13262  0.74575  0.74939  1.0000
  H   H556      1.0  0.01462  0.84741  0.98242  1.0000
  H   H557      1.0  0.23240  0.96846  0.80911  1.0000
  Fe  Fe70      1.0  0.19120  0.99407  0.93135  1.0000
  S   S139      1.0  0.32413  0.89451  0.79111  1.0000
  H   H558      1.0  0.22609  0.98342  0.86640  1.0000
  H   H559      1.0  0.23589  0.97737  0.84069  1.0000
  C   C359      1.0  0.07319  0.67265  0.86405  1.0000
  H   H560      1.0  0.05704  0.67828  0.86853  1.0000
  H   H561      1.0  0.08455  0.66864  0.87333  1.0000
  H   H562      1.0  0.05946  0.67302  0.83601  1.0000
  H   H563      1.0  0.99614  0.72245  0.84544  1.0000
  H   H564      1.0  0.27718  0.99111  0.79825  1.0000
  H   H565      1.0  0.21023  0.97687  0.77936  1.0000
  H   H566      1.0  0.06936  0.75959  0.74870  1.0000
  H   H567      1.0  0.44241  0.11412  0.23603  1.0000
  Fe  Fe71      1.0  0.39744  0.15830  0.15921  1.0000
  S   S140      1.0  0.36074  0.11963  0.16288  1.0000
  S   S141      1.0  0.38452  0.19189  0.15307  1.0000
  Fe  Fe72      1.0  0.43705  0.13205  0.16624  1.0000
  S   S142      1.0  0.40259  0.09163  0.17020  1.0000
  Fe  Fe73      1.0  0.38187  0.09865  0.14997  1.0000
  S   S143      1.0  0.36284  0.06472  0.13204  1.0000
  Fe  Fe74      1.0  0.38475  0.11654  0.18269  1.0000
  S   S144      1.0  0.36399  0.10694  0.20427  1.0000
  S   S145      1.0  0.41772  0.13764  0.14519  1.0000
  S   S146      1.0  0.41995  0.15666  0.17985  1.0000
  H   H568      1.0  0.45540  0.09971  0.12875  1.0000
  C   C360      1.0  0.38070  0.10579  0.22094  1.0000
  C   C361      1.0  0.40848  0.11128  0.22196  1.0000
  C   C362      1.0  0.36566  0.09932  0.23353  1.0000
  H   H569      1.0  0.42026  0.11618  0.21234  1.0000
  H   H570      1.0  0.34408  0.09471  0.23278  1.0000
  C   C363      1.0  0.44142  0.28081  0.14675  1.0000
  C   C364      1.0  0.45263  0.26177  0.14945  1.0000
  C   C365      1.0  0.43548  0.23396  0.15082  1.0000
  C   C366      1.0  0.40715  0.22526  0.14937  1.0000
  C   C367      1.0  0.39613  0.24414  0.14611  1.0000
  C   C368      1.0  0.41318  0.27181  0.14480  1.0000
  H   H571      1.0  0.44409  0.21945  0.15337  1.0000
  H   H572      1.0  0.37422  0.23744  0.14493  1.0000
  H   H573      1.0  0.40444  0.28620  0.14234  1.0000
  H   H574      1.0  0.40989  0.04235  0.12214  1.0000
  H   H575      1.0  0.41068  0.19186  0.24031  1.0000
  H   H576      1.0  0.39607  0.25529  0.21390  1.0000
  H   H577      1.0  0.39652  0.22283  0.19404  1.0000
  C   C369      1.0  0.63895  0.10296  0.24719  1.0000
  H   H578      1.0  0.62375  0.03313  0.19899  1.0000
  H   H579      1.0  0.43067  0.02377  0.12548  1.0000
  C   C370      1.0  0.32677  0.04283  0.10821  1.0000
  H   H580      1.0  0.37922  0.16164  0.23985  1.0000
  C   C371      1.0  0.41469  0.23987  0.19005  1.0000
  H   H581      1.0  0.45775  0.28875  0.19249  1.0000
  H   H582      1.0  0.37049  0.25102  0.19025  1.0000
  H   H583      1.0  0.32635  0.09317  0.13144  1.0000
  N   N37       1.0  0.44179  0.06085  0.13872  1.0000
  C   C372      1.0  0.46993  0.06370  0.14212  1.0000
  C   C373      1.0  0.44187  0.08826  0.13735  1.0000
  H   H584      1.0  0.42105  0.08684  0.13449  1.0000
  H   H585      1.0  0.41367  0.29146  0.21209  1.0000
  H   H586      1.0  0.43330  0.23857  0.19491  1.0000
  H   H587      1.0  0.42289  0.02583  0.15163  1.0000
  H   H588      1.0  0.43195  0.05830  0.16117  1.0000
  H   H589      1.0  0.33439  0.21902  0.07964  1.0000
  H   H590      1.0  0.48398  0.07455  0.13355  1.0000
  H   H591      1.0  0.43876  0.30929  0.18990  1.0000
  H   H592      1.0  0.43901  0.28604  0.17570  1.0000
  H   H593      1.0  0.44386  0.05474  0.11572  1.0000
  S   S147      1.0  0.40024  0.32414  0.16376  1.0000
  H   H594      1.0  0.38799  0.28746  0.18903  1.0000
  H   H595      1.0  0.41455  0.23586  0.17816  1.0000
  C   C374      1.0  0.42098  0.11007  0.23543  1.0000
  C   C375      1.0  0.38928  0.26755  0.18648  1.0000
  H   H596      1.0  0.47450  0.26868  0.15096  1.0000
  C   C376      1.0  0.42410  0.04691  0.15052  1.0000
  H   H597      1.0  0.43285  0.27123  0.21477  1.0000
  H   H598      1.0  0.40289  0.04529  0.14852  1.0000
  H   H599      1.0  0.62120  0.01838  0.18086  1.0000
  S   S148      1.0  0.47953  0.13500  0.17288  1.0000
  N   N38       1.0  0.41418  0.26684  0.19336  1.0000
  H   H600      1.0  0.38895  0.26486  0.17445  1.0000
  H   H601      1.0  0.60492  0.08072  0.23208  1.0000
  H   H602      1.0  0.47836  0.07581  0.15255  1.0000
  C   C377      1.0  0.43113  0.04467  0.12490  1.0000
  C   C378      1.0  0.43850  0.28864  0.18766  1.0000
  H   H603      1.0  0.33652  0.25635  0.10589  1.0000
  H   H604      1.0  0.44905  0.10079  0.14771  1.0000
  H   H605      1.0  0.58470  0.21965  0.14649  1.0000
  C   C379      1.0  0.41419  0.27132  0.20925  1.0000
  H   H606      1.0  0.47076  0.04342  0.14318  1.0000
  H   H607      1.0  0.62656  0.25537  0.15919  1.0000
  H   H608      1.0  0.49440  0.13947  0.14226  1.0000
  Fe  Fe75      1.0  0.64008  0.11474  0.18242  1.0000
  S   S149      1.0  0.63094  0.15027  0.17626  1.0000
  S   S150      1.0  0.62392  0.09385  0.20336  1.0000
  Fe  Fe76      1.0  0.61839  0.12908  0.15429  1.0000
  S   S151      1.0  0.58190  0.13041  0.14156  1.0000
  S   S152      1.0  0.62449  0.09163  0.16080  1.0000
  C   C380      1.0  0.33708  0.26391  0.09475  1.0000
  H   H609      1.0  0.62646  0.05343  0.18366  1.0000
  C   C381      1.0  0.50757  0.13378  0.16370  1.0000
  H   H610      1.0  0.33495  0.25809  0.06557  1.0000
  C   C382      1.0  0.63869  0.24570  0.15361  1.0000
  H   H611      1.0  0.41073  0.15943  0.24462  1.0000
  S   S153      1.0  0.46253  0.31603  0.14731  1.0000
  C   C383      1.0  0.64041  0.10563  0.22074  1.0000
  C   C384      1.0  0.50985  0.13614  0.14868  1.0000
  C   C385      1.0  0.53258  0.13481  0.14201  1.0000
  C   C386      1.0  0.55331  0.13136  0.15028  1.0000
  C   C387      1.0  0.55109  0.12923  0.16528  1.0000
  C   C388      1.0  0.52838  0.13047  0.17192  1.0000
  H   H612      1.0  0.53426  0.13673  0.13040  1.0000
  H   H613      1.0  0.56679  0.12646  0.17179  1.0000
  H   H614      1.0  0.52685  0.12870  0.18355  1.0000
  C   C389      1.0  0.63204  0.03714  0.18798  1.0000
  H   H615      1.0  0.58588  0.18889  0.13895  1.0000
  C   C390      1.0  0.59825  0.21123  0.14130  1.0000
  H   H616      1.0  0.62809  0.18180  0.14094  1.0000
  H   H617      1.0  0.60104  0.21121  0.17044  1.0000
  C   C391      1.0  0.39931  0.17262  0.24586  1.0000
  H   H618      1.0  0.42654  0.33023  0.23309  1.0000
  C   C392      1.0  0.62608  0.09512  0.23322  1.0000
  H   H619      1.0  0.60176  0.18037  0.16283  1.0000
  C   C393      1.0  0.61399  0.20281  0.16464  1.0000
  N   N39       1.0  0.62265  0.21599  0.15075  1.0000
  H   H620      1.0  0.60393  0.22082  0.13069  1.0000
  H   H621      1.0  0.35705  0.26669  0.09035  1.0000
  C   C394      1.0  0.37816  0.09814  0.24699  1.0000
  H   H622      1.0  0.63191  0.20579  0.17201  1.0000
  H   H623      1.0  0.33667  0.28449  0.09585  1.0000
  C   C395      1.0  0.33491  0.06204  0.12012  1.0000
  C   C396      1.0  0.63971  0.20411  0.14348  1.0000
  H   H624      1.0  0.33783  0.03019  0.10631  1.0000
  C   C397      1.0  0.40595  0.10365  0.24802  1.0000
  H   H625      1.0  0.64701  0.21384  0.13306  1.0000
  H   H626      1.0  0.64558  0.25633  0.14336  1.0000
  H   H627      1.0  0.65857  0.00423  0.18614  1.0000
  H   H628      1.0  0.65732  0.24972  0.16066  1.0000
  H   H629      1.0  0.65803  0.20678  0.15043  1.0000
  H   H630      1.0  0.53223  0.12764  0.29073  1.0000
  Fe  Fe77      1.0  0.44634  0.13140  0.31576  1.0000
  S   S154      1.0  0.42141  0.08856  0.30671  1.0000
  Fe  Fe78      1.0  0.40139  0.15057  0.30770  1.0000
  S   S155      1.0  0.37420  0.10938  0.29756  1.0000
  S   S156      1.0  0.38168  0.18067  0.30725  1.0000
  Fe  Fe79      1.0  0.38586  0.09285  0.31764  1.0000
  C   C398      1.0  0.34904  0.16167  0.34519  1.0000
  Fe  Fe80      1.0  0.41174  0.10920  0.28770  1.0000
  S   S157      1.0  0.42274  0.10240  0.26467  1.0000
  S   S158      1.0  0.41169  0.13434  0.32811  1.0000
  S   S159      1.0  0.43800  0.15175  0.29640  1.0000
  H   H631      1.0  0.46354  0.07855  0.27476  1.0000
  C   C399      1.0  0.34949  0.07440  0.35722  1.0000
  H   H632      1.0  0.35737  0.02587  0.43677  1.0000
  H   H633      1.0  0.37096  0.08717  0.35640  1.0000
  H   H634      1.0  0.35110  0.29992  0.42087  1.0000
  C   C400      1.0  0.43216  0.27291  0.30527  1.0000
  C   C401      1.0  0.40371  0.26226  0.30537  1.0000
  C   C402      1.0  0.38852  0.23393  0.30607  1.0000
  C   C403      1.0  0.40166  0.21610  0.30680  1.0000
  C   C404      1.0  0.43014  0.22671  0.30683  1.0000
  C   C405      1.0  0.44533  0.25506  0.30597  1.0000
  H   H635      1.0  0.39339  0.27585  0.30490  1.0000
  H   H636      1.0  0.36650  0.22586  0.30609  1.0000
  H   H637      1.0  0.44047  0.21313  0.30753  1.0000
  H   H638      1.0  0.46736  0.26321  0.30597  1.0000
  H   H639      1.0  0.35365  0.11557  0.33716  1.0000
  H   H640      1.0  0.47016  0.10765  0.28682  1.0000
  H   H641      1.0  0.37600  0.15541  0.27947  1.0000
  C   C406      1.0  0.33414  0.05926  0.34494  1.0000
  H   H642      1.0  0.48202  0.13570  0.26465  1.0000
  C   C407      1.0  0.38088  0.19570  0.26258  1.0000
  C   C408      1.0  0.33724  0.07233  0.37072  1.0000
  H   H643      1.0  0.34237  0.05534  0.41186  1.0000
  H   H644      1.0  0.62776  0.09459  0.25670  1.0000
  H   H645      1.0  0.36098  0.13973  0.26209  1.0000
  H   H646      1.0  0.39177  0.21567  0.25756  1.0000
  C   C409      1.0  0.49229  0.12266  0.26063  1.0000
  S   S160      1.0  0.45168  0.30834  0.30414  1.0000
  C   C410      1.0  0.34249  0.01382  0.42784  1.0000
  S   S161      1.0  0.38644  0.32753  0.29681  1.0000
  H   H647      1.0  0.48481  0.09345  0.31750  1.0000
  C   C411      1.0  0.33381  0.30585  0.41875  1.0000
  C   C412      1.0  0.51644  0.09486  0.26714  1.0000
  H   H648      1.0  0.34677  0.06553  0.43093  1.0000
  H   H649      1.0  0.43539  0.17963  0.26786  1.0000
  H   H650      1.0  0.35391  0.01600  0.41775  1.0000
  H   H651      1.0  0.50892  0.13518  0.25366  1.0000
  N   N40       1.0  0.39602  0.17812  0.26133  1.0000
  H   H652      1.0  0.47688  0.10574  0.25363  1.0000
  H   H653      1.0  0.53939  0.14906  0.27563  1.0000
  S   S162      1.0  0.49126  0.14981  0.32335  1.0000
  H   H654      1.0  0.52477  0.08662  0.27614  1.0000
  H   H655      1.0  0.36422  0.15754  0.35206  1.0000
  C   C413      1.0  0.51489  0.13487  0.32054  1.0000
  C   C414      1.0  0.33189  0.05230  0.42231  1.0000
  H   H656      1.0  0.53386  0.10686  0.26047  1.0000
  S   S163      1.0  0.64679  0.15237  0.29651  1.0000
  H   H657      1.0  0.50202  0.07708  0.26026  1.0000
  H   H658      1.0  0.36013  0.18561  0.25720  1.0000
  H   H659      1.0  0.36030  0.17448  0.33626  1.0000
  H   H660      1.0  0.34949  0.08378  0.38017  1.0000
  C   C415      1.0  0.47982  0.09506  0.28156  1.0000
  C   C416      1.0  0.52259  0.13502  0.28201  1.0000
  C   C417      1.0  0.38071  0.15197  0.26814  1.0000
  C   C418      1.0  0.50631  0.10674  0.31764  1.0000
  C   C419      1.0  0.33836  0.12008  0.33064  1.0000
  H   H661      1.0  0.34881  0.13143  0.32117  1.0000
  H   H662      1.0  0.48662  0.08507  0.29027  1.0000
  S   S164      1.0  0.34879  0.06006  0.32774  1.0000
  Fe  Fe81      1.0  0.62339  0.11747  0.31049  1.0000
  S   S165      1.0  0.57673  0.09775  0.31076  1.0000
  S   S166      1.0  0.64256  0.08986  0.30148  1.0000
  C   C420      1.0  0.55372  0.11262  0.31532  1.0000
  C   C421      1.0  0.52562  0.09570  0.31506  1.0000
  H   H663      1.0  0.33359  0.28701  0.44544  1.0000
  C   C422      1.0  0.54301  0.15172  0.32114  1.0000
  C   C423      1.0  0.56235  0.14071  0.31847  1.0000
  H   H664      1.0  0.51876  0.07391  0.31278  1.0000
  H   H665      1.0  0.54989  0.17348  0.32355  1.0000
  H   H666      1.0  0.58389  0.15396  0.31878  1.0000
  H   H667      1.0  0.36614  0.09233  0.25649  1.0000
  N   N41       1.0  0.50279  0.11190  0.27283  1.0000
  H   H668      1.0  0.43504  0.21238  0.26440  1.0000
  C   C424      1.0  0.32826  0.32512  0.34470  1.0000
  H   H669      1.0  0.63926  0.00450  0.41018  1.0000
  H   H670      1.0  0.34110  0.17416  0.35191  1.0000
  H   H671      1.0  0.51264  0.14722  0.28743  1.0000
  S   S167      1.0  0.65356  0.13344  0.32980  1.0000
  H   H672      1.0  0.37833  0.20029  0.27420  1.0000
  C   C425      1.0  0.42316  0.19207  0.26886  1.0000
  H   H673      1.0  0.39265  0.13922  0.26859  1.0000
  H   H674      1.0  0.61157  0.00380  0.43147  1.0000
  C   C426      1.0  0.33386  0.32945  0.37116  1.0000
  H   H675      1.0  0.42129  0.19554  0.28066  1.0000
  H   H676      1.0  0.34007  0.32185  0.41055  1.0000
  N   N42       1.0  0.32676  0.13592  0.33939  1.0000
  H   H677      1.0  0.32658  0.11515  0.35898  1.0000
  H   H678      1.0  0.34475  0.27230  0.58655  1.0000
  C   C427      1.0  0.33440  0.27865  0.59529  1.0000
  H   H679      1.0  0.33580  0.26787  0.60520  1.0000
  C   C428      1.0  0.57457  0.03444  0.64076  1.0000
  C   C429      1.0  0.61438  0.02785  0.63340  1.0000
  H   H680      1.0  0.62692  0.01578  0.63471  1.0000
  H   H681      1.0  0.58703  0.05605  0.64456  1.0000
  H   H682      1.0  0.56777  0.03445  0.62924  1.0000
  H   H683      1.0  0.34619  0.30101  0.59774  1.0000
  H   H684      1.0  0.55593  0.02663  0.64722  1.0000
  H   H685      1.0  0.61265  0.03929  0.66176  1.0000
  H   H686      1.0  0.60853  0.02661  0.62163  1.0000
  H   H687      1.0  0.62786  0.04954  0.63654  1.0000
  N   N43       1.0  0.59015  0.01736  0.64232  1.0000
  C   C430      1.0  0.59901  0.01816  0.65772  1.0000
  H   H688      1.0  0.61049  0.00510  0.65931  1.0000
  H   H689      1.0  0.58123  0.01054  0.66478  1.0000
  H   H690      1.0  0.59519  0.03553  0.81851  1.0000
  N   N44       1.0  0.62876  0.02473  0.81414  1.0000
  H   H691      1.0  0.63527  0.02159  0.83701  1.0000
  H   H692      1.0  0.63633  0.06397  0.80564  1.0000
  H   H693      1.0  0.58763  0.00820  0.80495  1.0000
  C   C431      1.0  0.64327  0.03636  0.82829  1.0000
  H   H694      1.0  0.59063  0.00209  0.82382  1.0000
  C   C432      1.0  0.59926  0.01737  0.81539  1.0000
  C   C433      1.0  0.63301  0.99996  0.80995  1.0000
  H   H695      1.0  0.32988  0.07263  0.88391  1.0000
  H   H696      1.0  0.62891  0.03664  0.79211  1.0000
  C   C434      1.0  0.63939  0.04505  0.80292  1.0000
  H   H697      1.0  0.64083  0.05529  0.83174  1.0000
  H   H698      1.0  0.65499  0.00463  0.80879  1.0000
  Fe  Fe82      1.0  0.44474  0.40062  0.15828  1.0000
  S   S168      1.0  0.40412  0.38571  0.16887  1.0000
  S   S169      1.0  0.46562  0.44676  0.15560  1.0000
  H   H699      1.0  0.34458  0.39075  0.12538  1.0000
  H   H700      1.0  0.51060  0.42993  0.15151  1.0000
  Fe  Fe83      1.0  0.38950  0.35324  0.15053  1.0000
  H   H701      1.0  0.65441  0.66238  0.02323  1.0000
  Fe  Fe84      1.0  0.41840  0.35788  0.18111  1.0000
  C   C435      1.0  0.39831  0.37353  0.22259  1.0000
  S   S170      1.0  0.42928  0.36956  0.13937  1.0000
  S   S171      1.0  0.45991  0.37504  0.17175  1.0000
  H   H702      1.0  0.62493  0.65527  0.03380  1.0000
  C   C436      1.0  0.41055  0.35503  0.22128  1.0000
  H   H703      1.0  0.65651  0.63999  0.21857  1.0000
  S   S172      1.0  0.65798  0.58880  0.14915  1.0000
  H   H704      1.0  0.54247  0.51920  0.18325  1.0000
  H   H705      1.0  0.41621  0.46444  0.13434  1.0000
  N   N45       1.0  0.38209  0.42538  0.13137  1.0000
  C   C437      1.0  0.39609  0.45461  0.12819  1.0000
  Fe  Fe85      1.0  0.44087  0.34264  0.15387  1.0000
  C   C438      1.0  0.34832  0.34079  0.10975  1.0000
  H   H706      1.0  0.35841  0.41367  0.11110  1.0000
  C   C439      1.0  0.50139  0.46529  0.15411  1.0000
  C   C440      1.0  0.35564  0.41278  0.12301  1.0000
  C   C441      1.0  0.39939  0.41108  0.12728  1.0000
  C   C442      1.0  0.37737  0.42291  0.14706  1.0000
  H   H707      1.0  0.36455  0.43362  0.15062  1.0000
  H   H708      1.0  0.38945  0.38905  0.12966  1.0000
  H   H709      1.0  0.41957  0.42006  0.13338  1.0000
  H   H710      1.0  0.39700  0.43184  0.15368  1.0000
  H   H711      1.0  0.36668  0.40103  0.14978  1.0000
  H   H712      1.0  0.60731  0.51664  0.19679  1.0000
  H   H713      1.0  0.40004  0.45719  0.11644  1.0000
  C   C443      1.0  0.39224  0.38101  0.23642  1.0000
  H   H714      1.0  0.39309  0.38168  0.21295  1.0000
  H   H715      1.0  0.56702  0.54426  0.19555  1.0000
  H   H716      1.0  0.40331  0.41224  0.11550  1.0000
  H   H717      1.0  0.38245  0.39503  0.23731  1.0000
  H   H718      1.0  0.54333  0.48016  0.21563  1.0000
  H   H719      1.0  0.49922  0.50457  0.15616  1.0000
  Fe  Fe86      1.0  0.64409  0.62120  0.15666  1.0000
  C   C444      1.0  0.64990  0.62730  0.22780  1.0000
  H   H720      1.0  0.52227  0.48982  0.20356  1.0000
  Fe  Fe87      1.0  0.62938  0.59581  0.18701  1.0000
  S   S173      1.0  0.64354  0.56307  0.18115  1.0000
  S   S174      1.0  0.61006  0.58932  0.20906  1.0000
  Fe  Fe88      1.0  0.62054  0.55897  0.15978  1.0000
  S   S175      1.0  0.59441  0.51470  0.15183  1.0000
  S   S176      1.0  0.60499  0.59082  0.16586  1.0000
  H   H721      1.0  0.59274  0.49633  0.21192  1.0000
  H   H722      1.0  0.59666  0.53135  0.21176  1.0000
  H   H723      1.0  0.55858  0.46126  0.19449  1.0000
  H   H724      1.0  0.53797  0.47142  0.18236  1.0000
  H   H725      1.0  0.57829  0.53072  0.18034  1.0000
  H   H726      1.0  0.57381  0.48270  0.17981  1.0000
  C   C445      1.0  0.62871  0.60119  0.22590  1.0000
  C   C446      1.0  0.64757  0.66301  0.03446  1.0000
  H   H727      1.0  0.54683  0.51507  0.21598  1.0000
  C   C447      1.0  0.62015  0.58510  0.23804  1.0000
  H   H728      1.0  0.60389  0.56483  0.23665  1.0000
  C   C448      1.0  0.55838  0.49634  0.15218  1.0000
  C   C449      1.0  0.54712  0.46753  0.15111  1.0000
  C   C450      1.0  0.51886  0.45207  0.15222  1.0000
  C   C451      1.0  0.54087  0.50956  0.15391  1.0000
  H   H729      1.0  0.56041  0.45706  0.14962  1.0000
  C   C452      1.0  0.51255  0.49411  0.15484  1.0000
  H   H730      1.0  0.54914  0.53170  0.15452  1.0000
  N   N46       1.0  0.56393  0.50319  0.19767  1.0000
  C   C453      1.0  0.55831  0.47853  0.18820  1.0000
  C   C454      1.0  0.54317  0.49677  0.20873  1.0000
  C   C455      1.0  0.56288  0.52529  0.18881  1.0000
  C   C456      1.0  0.59133  0.51223  0.20489  1.0000
  H   H731      1.0  0.34834  0.34406  0.08645  1.0000
  C   C457      1.0  0.33236  0.33162  0.12180  1.0000
  H   H732      1.0  0.37018  0.35181  0.11130  1.0000
  H   H733      1.0  0.34206  0.42316  0.12571  1.0000
  H   H734      1.0  0.38374  0.46618  0.13123  1.0000
  S   S177      1.0  0.34631  0.33957  0.14003  1.0000
  H   H735      1.0  0.65299  0.64844  0.04081  1.0000
  C   C458      1.0  0.41132  0.35225  0.24776  1.0000
  S   S178      1.0  0.41703  0.34316  0.20420  1.0000
  C   C459      1.0  0.33585  0.33628  0.09563  1.0000
  C   C460      1.0  0.41702  0.34449  0.23395  1.0000
  S   S179      1.0  0.65227  0.66088  0.14481  1.0000
  Fe  Fe89      1.0  0.38370  0.34976  0.31758  1.0000
  S   S180      1.0  0.42520  0.35484  0.32626  1.0000
  Fe  Fe90      1.0  0.40510  0.36915  0.28757  1.0000
  S   S181      1.0  0.44808  0.37566  0.29376  1.0000
  S   S182      1.0  0.38981  0.37949  0.26623  1.0000
  Fe  Fe91      1.0  0.44251  0.39462  0.31474  1.0000
  C   C461      1.0  0.53139  0.35826  0.32294  1.0000
  S   S183      1.0  0.40061  0.39133  0.30788  1.0000
  H   H736      1.0  0.58422  0.56796  0.27518  1.0000
  S   S184      1.0  0.47852  0.42952  0.32667  1.0000
  H   H737      1.0  0.52854  0.39186  0.30256  1.0000
  C   C462      1.0  0.65236  0.62187  0.25399  1.0000
  C   C463      1.0  0.56725  0.56813  0.26800  1.0000
  H   H738      1.0  0.34876  0.35135  0.29456  1.0000
  C   C464      1.0  0.54057  0.59299  0.26083  1.0000
  H   H739      1.0  0.47913  0.34764  0.32799  1.0000
  H   H740      1.0  0.33724  0.38613  0.27212  1.0000
  H   H741      1.0  0.48228  0.45296  0.29808  1.0000
  H   H742      1.0  0.53777  0.35373  0.33378  1.0000
  C   C465      1.0  0.50019  0.46572  0.30473  1.0000
  H   H743      1.0  0.54968  0.36594  0.31627  1.0000
  H   H744      1.0  0.59451  0.61894  0.25835  1.0000
  H   H745      1.0  0.51659  0.33848  0.31767  1.0000
  H   H746      1.0  0.53406  0.57358  0.28773  1.0000
  H   H747      1.0  0.48502  0.38169  0.33434  1.0000
  S   S185      1.0  0.64040  0.56833  0.29154  1.0000
  H   H748      1.0  0.52123  0.57444  0.26165  1.0000
  S   S186      1.0  0.63855  0.57063  0.32704  1.0000
  Fe  Fe92      1.0  0.60989  0.56693  0.30788  1.0000
  S   S187      1.0  0.56611  0.53784  0.30057  1.0000
  S   S188      1.0  0.62203  0.61255  0.30753  1.0000
  Fe  Fe93      1.0  0.42903  0.33587  0.30487  1.0000
  H   H749      1.0  0.53606  0.61127  0.26295  1.0000
  H   H750      1.0  0.54560  0.40124  0.34231  1.0000
  N   N47       1.0  0.51902  0.37829  0.32421  1.0000
  C   C466      1.0  0.33722  0.39151  0.28389  1.0000
  H   H751      1.0  0.56853  0.59183  0.29419  1.0000
  C   C467      1.0  0.55292  0.59226  0.28614  1.0000
  C   C468      1.0  0.54309  0.50688  0.30779  1.0000
  C   C469      1.0  0.54668  0.49949  0.32186  1.0000
  C   C470      1.0  0.52682  0.47568  0.32742  1.0000
  C   C471      1.0  0.51979  0.48979  0.29927  1.0000
  H   H752      1.0  0.56436  0.51252  0.32859  1.0000
  H   H753      1.0  0.34105  0.38231  0.31226  1.0000
  H   H754      1.0  0.51673  0.49529  0.28839  1.0000
  H   H755      1.0  0.54883  0.61051  0.28900  1.0000
  C   C472      1.0  0.53894  0.40428  0.33122  1.0000
  H   H756      1.0  0.54906  0.54898  0.26988  1.0000
  C   C473      1.0  0.49479  0.36706  0.33306  1.0000
  N   N48       1.0  0.56205  0.59276  0.27115  1.0000
  C   C474      1.0  0.63227  0.59519  0.25197  1.0000
  H   H757      1.0  0.62558  0.58261  0.26120  1.0000
  H   H758      1.0  0.50152  0.39863  0.31011  1.0000
  H   H759      1.0  0.49556  0.36436  0.30401  1.0000
  C   C475      1.0  0.58741  0.61756  0.26963  1.0000
  H   H760      1.0  0.35578  0.35674  0.43106  1.0000
  Fe  Fe94      1.0  0.65272  0.61673  0.32583  1.0000
  C   C476      1.0  0.32768  0.34513  0.28998  1.0000
  H   H761      1.0  0.52992  0.41966  0.33230  1.0000
  C   C477      1.0  0.50340  0.45873  0.31893  1.0000
  H   H762      1.0  0.55741  0.41353  0.32478  1.0000
  H   H763      1.0  0.52944  0.47061  0.33846  1.0000
  C   C478      1.0  0.51081  0.38349  0.30957  1.0000
  H   H764      1.0  0.58457  0.63658  0.27236  1.0000
  H   H765      1.0  0.60436  0.61766  0.27692  1.0000
  H   H766      1.0  0.41637  0.34391  0.25739  1.0000
  H   H767      1.0  0.35875  0.39875  0.28817  1.0000
  H   H768      1.0  0.54686  0.59347  0.24941  1.0000
  C   C479      1.0  0.39868  0.37039  0.24907  1.0000
  S   S189      1.0  0.65408  0.64549  0.34525  1.0000
  H   H769      1.0  0.57288  0.56706  0.25658  1.0000
  H   H770      1.0  0.50015  0.36265  0.34414  1.0000
  Fe  Fe95      1.0  0.65420  0.61354  0.29233  1.0000
  H   H771      1.0  0.36682  0.34628  0.35647  1.0000
  H   H772      1.0  0.32765  0.33889  0.27835  1.0000
  C   C480      1.0  0.34887  0.33976  0.43869  1.0000
  H   H773      1.0  0.33127  0.40906  0.28488  1.0000
  H   H774      1.0  0.34319  0.34763  0.44882  1.0000
  C   C481      1.0  0.34514  0.33461  0.35734  1.0000
  S   S190      1.0  0.34095  0.33212  0.32688  1.0000
  H   H775      1.0  0.34714  0.33727  0.38079  1.0000
  H   H776      1.0  0.36657  0.33479  0.44148  1.0000
  N   N49       1.0  0.40726  0.51822  0.70479  1.0000
  H   H777      1.0  0.39662  0.53242  0.68494  1.0000
  S   S191      1.0  0.34042  0.49010  0.67401  1.0000
  S   S192      1.0  0.33480  0.45756  0.64235  1.0000
  Fe  Fe96      1.0  0.36696  0.47629  0.66060  1.0000
  S   S193      1.0  0.41294  0.50223  0.66061  1.0000
  S   S194      1.0  0.35562  0.43610  0.67161  1.0000
  H   H778      1.0  0.59557  0.64151  0.73007  1.0000
  C   C482      1.0  0.35409  0.43909  0.72740  1.0000
  H   H779      1.0  0.36349  0.43513  0.71792  1.0000
  C   C483      1.0  0.43107  0.53770  0.65767  1.0000
  C   C484      1.0  0.45939  0.55004  0.66092  1.0000
  C   C485      1.0  0.47471  0.57810  0.65884  1.0000
  C   C486      1.0  0.46195  0.59406  0.65319  1.0000
  C   C487      1.0  0.43358  0.58176  0.65003  1.0000
  C   C488      1.0  0.41815  0.55382  0.65241  1.0000
  H   H780      1.0  0.46962  0.53778  0.66497  1.0000
  H   H781      1.0  0.42349  0.59384  0.64559  1.0000
  H   H782      1.0  0.39640  0.54463  0.64985  1.0000
  S   S195      1.0  0.48064  0.62905  0.64939  1.0000
  H   H783      1.0  0.42644  0.51197  0.72427  1.0000
  H   H784      1.0  0.43333  0.54724  0.72120  1.0000
  H   H785      1.0  0.37660  0.49899  0.72014  1.0000
  C   C489      1.0  0.41305  0.53898  0.69371  1.0000
  H   H786      1.0  0.42271  0.49367  0.69210  1.0000
  H   H787      1.0  0.38703  0.48454  0.68943  1.0000
  H   H788      1.0  0.44960  0.52988  0.71072  1.0000
  C   C490      1.0  0.38181  0.51477  0.71185  1.0000
  H   H789      1.0  0.49651  0.58718  0.66124  1.0000
  C   C491      1.0  0.40408  0.49183  0.69778  1.0000
  H   H790      1.0  0.41501  0.55906  0.69846  1.0000
  H   H791      1.0  0.38329  0.53423  0.71722  1.0000
  C   C492      1.0  0.36332  0.43584  0.74144  1.0000
  H   H792      1.0  0.36410  0.50781  0.70383  1.0000
  H   H793      1.0  0.43237  0.54236  0.68835  1.0000
  H   H794      1.0  0.39955  0.47554  0.70573  1.0000
  C   C493      1.0  0.43016  0.52724  0.71578  1.0000
  H   H795      1.0  0.37998  0.42955  0.74267  1.0000
  Fe  Fe97      1.0  0.32803  0.44965  0.68446  1.0000
  C   C494      1.0  0.33237  0.44699  0.72571  1.0000
  Fe  Fe98      1.0  0.52398  0.65655  0.65805  1.0000
  H   H796      1.0  0.43996  0.65559  0.64913  1.0000
  S   S196      1.0  0.56393  0.65169  0.65883  1.0000
  C   C495      1.0  0.58586  0.65559  0.73114  1.0000
  S   S197      1.0  0.58596  0.65642  0.70111  1.0000
  H   H797      1.0  0.63518  0.65591  0.66219  1.0000
  C   C496      1.0  0.58066  0.66349  0.74510  1.0000
  H   H798      1.0  0.40980  0.55912  0.77410  1.0000
  H   H799      1.0  0.36594  0.46049  0.87131  1.0000
  S   S198      1.0  0.50998  0.59713  0.81405  1.0000
  S   S199      1.0  0.36368  0.43730  0.77144  1.0000
  Fe  Fe99      1.0  0.35410  0.49273  0.81332  1.0000
  S   S200      1.0  0.38121  0.53706  0.82032  1.0000
  S   S201      1.0  0.36752  0.45830  0.81331  1.0000
  H   H800      1.0  0.45993  0.54409  0.77429  1.0000
  N   N50       1.0  0.38146  0.49836  0.86043  1.0000
  C   C497      1.0  0.47417  0.58097  0.81592  1.0000
  C   C498      1.0  0.45806  0.59584  0.81699  1.0000
  C   C499      1.0  0.42969  0.58211  0.81853  1.0000
  C   C500      1.0  0.41706  0.55340  0.81877  1.0000
  C   C501      1.0  0.43316  0.53851  0.81774  1.0000
  C   C502      1.0  0.46155  0.55225  0.81637  1.0000
  H   H801      1.0  0.46748  0.61794  0.81672  1.0000
  H   H802      1.0  0.41745  0.59385  0.81939  1.0000
  H   H803      1.0  0.42381  0.51644  0.81804  1.0000
  H   H804      1.0  0.40067  0.48284  0.87646  1.0000
  C   C503      1.0  0.39084  0.48667  0.84814  1.0000
  H   H805      1.0  0.47390  0.54060  0.81565  1.0000
  Fe  Fe100     1.0  0.53517  0.64272  0.81110  1.0000
  C   C504      1.0  0.40063  0.52727  0.86336  1.0000
  H   H806      1.0  0.37691  0.46483  0.84564  1.0000
  H   H807      1.0  0.42932  0.55552  0.78930  1.0000
  H   H808      1.0  0.42166  0.52914  0.86610  1.0000
  C   C505      1.0  0.35084  0.44027  0.75388  1.0000
  H   H809      1.0  0.39310  0.53564  0.78777  1.0000
  C   C506      1.0  0.35397  0.49699  0.85673  1.0000
  H   H810      1.0  0.41910  0.48388  0.77768  1.0000
  C   C507      1.0  0.32922  0.44822  0.75214  1.0000
  H   H811      1.0  0.43442  0.51046  0.79166  1.0000
  H   H812      1.0  0.34620  0.50567  0.86573  1.0000
  H   H813      1.0  0.37314  0.49051  0.88288  1.0000
  H   H814      1.0  0.44661  0.51775  0.76006  1.0000
  H   H815      1.0  0.40178  0.53959  0.85366  1.0000
  H   H816      1.0  0.39793  0.49273  0.78947  1.0000
  S   S202      1.0  0.57628  0.65560  0.80092  1.0000
  Fe  Fe101     1.0  0.32763  0.43392  0.82371  1.0000
  C   C508      1.0  0.41705  0.50144  0.78351  1.0000
  C   C509      1.0  0.44254  0.53384  0.76618  1.0000
  N   N51       1.0  0.41631  0.52198  0.77337  1.0000
  Fe  Fe102     1.0  0.34400  0.44525  0.79164  1.0000
  H   H817      1.0  0.41160  0.48751  0.85047  1.0000
  C   C510      1.0  0.41190  0.54399  0.78147  1.0000
  S   S203      1.0  0.33301  0.48126  0.79120  1.0000
  H   H818      1.0  0.39162  0.49803  0.83817  1.0000
  H   H819      1.0  0.39418  0.53689  0.87253  1.0000
  C   C511      1.0  0.38031  0.48242  0.87338  1.0000
  H   H820      1.0  0.37378  0.49896  0.76752  1.0000
  C   C512      1.0  0.39376  0.50860  0.76235  1.0000
  H   H821      1.0  0.39649  0.49192  0.75602  1.0000
  H   H822      1.0  0.35403  0.50867  0.84693  1.0000
  H   H823      1.0  0.39211  0.52339  0.75460  1.0000
  H   H824      1.0  0.33898  0.47542  0.85444  1.0000
  H   H825      1.0  0.44280  0.54952  0.75849  1.0000
  S   S204      1.0  0.32664  0.41722  0.84651  1.0000
  H   H826      1.0  0.58651  0.65564  0.75468  1.0000
  H   H827      1.0  0.63049  0.70333  0.03141  1.0000
  H   H828      1.0  0.62821  0.68438  0.05600  1.0000
  C   C513      1.0  0.65070  0.69099  0.05607  1.0000
  H   H829      1.0  0.65600  0.67706  0.06303  1.0000
  C   C514      1.0  0.65296  0.70980  0.03243  1.0000
  C   C515      1.0  0.64556  0.96294  0.43592  1.0000
  H   H830      1.0  0.65449  0.68397  0.36775  1.0000
  H   H831      1.0  0.64622  0.96304  0.44801  1.0000
  H   H832      1.0  0.62513  0.96765  0.40952  1.0000
  H   H833      1.0  0.62906  0.94331  0.43168  1.0000
  H   H834      1.0  0.61440  0.98628  0.44732  1.0000
  C   C516      1.0  0.61513  0.98593  0.43527  1.0000
  H   H835      1.0  0.33432  0.99186  0.43052  1.0000
  C   C517      1.0  0.64172  0.98644  0.41456  1.0000
  H   H836      1.0  0.59781  0.96702  0.43086  1.0000
  N   N52       1.0  0.64153  0.98687  0.43060  1.0000
  C   C518      1.0  0.56617  0.68410  0.72012  1.0000
  C   C519      1.0  0.47905  0.69801  0.63734  1.0000
  H   H837      1.0  0.41038  0.98611  0.62947  1.0000
  S   S205      1.0  0.34592  0.94701  0.70297  1.0000
  Fe  Fe103     1.0  0.34197  0.91134  0.65237  1.0000
  S   S206      1.0  0.37298  0.89768  0.64255  1.0000
  S   S207      1.0  0.35243  0.95444  0.66058  1.0000
  C   C520      1.0  0.46513  0.93541  0.65524  1.0000
  C   C521      1.0  0.45292  0.91004  0.64758  1.0000
  C   C522      1.0  0.42464  0.89855  0.64397  1.0000
  C   C523      1.0  0.40812  0.91186  0.64831  1.0000
  C   C524      1.0  0.42020  0.93682  0.65637  1.0000
  C   C525      1.0  0.44860  0.94872  0.65958  1.0000
  H   H838      1.0  0.46538  0.89961  0.64409  1.0000
  H   H839      1.0  0.41556  0.87925  0.63774  1.0000
  H   H840      1.0  0.40782  0.94724  0.65995  1.0000
  H   H841      1.0  0.45781  0.96832  0.66553  1.0000
  H   H842      1.0  0.62359  0.68138  0.65692  1.0000
  C   C526      1.0  0.34307  0.94207  0.73247  1.0000
  H   H843      1.0  0.36465  0.94679  0.73234  1.0000
  C   C527      1.0  0.64063  0.90188  0.64117  1.0000
  C   C528      1.0  0.63247  0.86927  0.62098  1.0000
  C   C529      1.0  0.39345  0.97256  0.60145  1.0000
  H   H844      1.0  0.64172  0.88604  0.61339  1.0000
  Fe  Fe104     1.0  0.32806  0.93489  0.67981  1.0000
  C   C530      1.0  0.39779  0.96403  0.62673  1.0000
  C   C531      1.0  0.65895  0.74468  0.61818  1.0000
  H   H845      1.0  0.49929  0.71571  0.63738  1.0000
  C   C532      1.0  0.56111  0.69206  0.73400  1.0000
  H   H846      1.0  0.37594  0.91967  0.60878  1.0000
  C   C533      1.0  0.60784  0.85507  0.64281  1.0000
  H   H847      1.0  0.41185  0.95390  0.62457  1.0000
  C   C534      1.0  0.59800  0.88535  0.62703  1.0000
  H   H848      1.0  0.42477  0.67569  0.64024  1.0000
  H   H849      1.0  0.61728  0.96191  0.59372  1.0000
  N   N53       1.0  0.37830  0.95999  0.61429  1.0000
  H   H850      1.0  0.64894  0.86339  0.62510  1.0000
  H   H851      1.0  0.55140  0.70610  0.73490  1.0000
  H   H852      1.0  0.55432  0.98000  0.64411  1.0000
  H   H853      1.0  0.60614  0.90231  0.61946  1.0000
  H   H854      1.0  0.58820  0.89222  0.63581  1.0000
  H   H855      1.0  0.59783  0.86072  0.65197  1.0000
  Fe  Fe105     1.0  0.56912  0.67064  0.68165  1.0000
  H   H856      1.0  0.34458  0.97049  0.60878  1.0000
  C   C535      1.0  0.65140  0.69641  0.60275  1.0000
  C   C536      1.0  0.64068  0.97105  0.62916  1.0000
  H   H857      1.0  0.35041  0.92033  0.62047  1.0000
  C   C537      1.0  0.56843  0.68200  0.74660  1.0000
  H   H858      1.0  0.56061  0.69232  0.71061  1.0000
  Fe  Fe106     1.0  0.52881  0.92968  0.66109  1.0000
  S   S208      1.0  0.56844  0.95338  0.67407  1.0000
  H   H859      1.0  0.58150  0.86758  0.62109  1.0000
  Fe  Fe107     1.0  0.54382  0.88149  0.65528  1.0000
  S   S209      1.0  0.58366  0.90155  0.66794  1.0000
  S   S210      1.0  0.53595  0.84179  0.64288  1.0000
  Fe  Fe108     1.0  0.56024  0.91359  0.68456  1.0000
  S   S211      1.0  0.56521  0.90282  0.70795  1.0000
  Fe  Fe109     1.0  0.58820  0.93915  0.65619  1.0000
  S   S212      1.0  0.62986  0.96524  0.64732  1.0000
  S   S213      1.0  0.51959  0.89059  0.67252  1.0000
  S   S214      1.0  0.54934  0.91844  0.64261  1.0000
  Fe  Fe110     1.0  0.58344  0.69539  0.65160  1.0000
  S   S215      1.0  0.54309  0.69877  0.64906  1.0000
  S   S216      1.0  0.61959  0.72044  0.63785  1.0000
  Fe  Fe111     1.0  0.54996  0.71414  0.67231  1.0000
  S   S217      1.0  0.54298  0.74974  0.68218  1.0000
  S   S218      1.0  0.59109  0.71339  0.67459  1.0000
  H   H860      1.0  0.54137  0.80140  0.68920  1.0000
  C   C538      1.0  0.35955  0.97295  0.61792  1.0000
  S   S219      1.0  0.50108  0.95224  0.65853  1.0000
  C   C539      1.0  0.56885  0.91986  0.72525  1.0000
  C   C540      1.0  0.57131  0.94686  0.72698  1.0000
  H   H861      1.0  0.62358  0.84882  0.64758  1.0000
  C   C541      1.0  0.56937  0.90555  0.73769  1.0000
  C   C542      1.0  0.63453  0.67566  0.66575  1.0000
  H   H862      1.0  0.56763  0.88473  0.73647  1.0000
  H   H863      1.0  0.38696  0.95498  0.63660  1.0000
  C   C543      1.0  0.62228  0.96226  0.61709  1.0000
  C   C544      1.0  0.63172  0.96856  0.60296  1.0000
  H   H864      1.0  0.60076  0.95087  0.61859  1.0000
  C   C545      1.0  0.53815  0.81632  0.65379  1.0000
  C   C546      1.0  0.53910  0.79271  0.64726  1.0000
  C   C547      1.0  0.54125  0.77239  0.65586  1.0000
  C   C548      1.0  0.54188  0.77538  0.67101  1.0000
  C   C549      1.0  0.54084  0.79895  0.67749  1.0000
  C   C550      1.0  0.53926  0.81950  0.66891  1.0000
  H   H865      1.0  0.53844  0.79028  0.63556  1.0000
  H   H866      1.0  0.54239  0.75447  0.65078  1.0000
  H   H867      1.0  0.40776  0.96318  0.59844  1.0000
  H   H868      1.0  0.53861  0.83767  0.67405  1.0000
  H   H869      1.0  0.44903  0.72689  0.64168  1.0000
  H   H870      1.0  0.59183  0.83672  0.63702  1.0000
  C   C551      1.0  0.63500  0.69565  0.61459  1.0000
  C   C552      1.0  0.63868  0.71985  0.62240  1.0000
  H   H871      1.0  0.44969  0.72622  0.66118  1.0000
  H   H872      1.0  0.64959  0.73009  0.66543  1.0000
  C   C553      1.0  0.57256  0.98885  0.63742  1.0000
  H   H873      1.0  0.34778  0.92640  0.60159  1.0000
  H   H874      1.0  0.57292  0.77755  0.74796  1.0000
  H   H875      1.0  0.57102  0.95814  0.71750  1.0000
  H   H876      1.0  0.61722  0.85127  0.61457  1.0000
  H   H877      1.0  0.50122  0.71437  0.66398  1.0000
  N   N54       1.0  0.46442  0.69895  0.65052  1.0000
  N   N55       1.0  0.61974  0.87789  0.63301  1.0000
  C   C554      1.0  0.43758  0.67535  0.64988  1.0000
  H   H878      1.0  0.46729  0.69848  0.62730  1.0000
  H   H879      1.0  0.37934  0.96991  0.59186  1.0000
  H   H880      1.0  0.62196  0.67188  0.67550  1.0000
  H   H881      1.0  0.63175  0.90899  0.65032  1.0000
  H   H882      1.0  0.49451  0.89791  0.74386  1.0000
  C   C555      1.0  0.32992  0.93676  0.74572  1.0000
  H   H883      1.0  0.48079  0.74296  0.65213  1.0000
  C   C556      1.0  0.57440  0.95933  0.74104  1.0000
  C   C557      1.0  0.46074  0.72485  0.65139  1.0000
  H   H884      1.0  0.61960  0.67634  0.61765  1.0000
  H   H885      1.0  0.48299  0.67795  0.66349  1.0000
  H   H886      1.0  0.64839  0.67757  0.59681  1.0000
  C   C558      1.0  0.48050  0.69757  0.66350  1.0000
  H   H887      1.0  0.58387  0.97557  0.63822  1.0000
  H   H888      1.0  0.48272  0.67898  0.63653  1.0000
  H   H889      1.0  0.47079  0.69934  0.67373  1.0000
  H   H890      1.0  0.42614  0.67516  0.65975  1.0000
  H   H891      1.0  0.64982  0.91957  0.63412  1.0000
  H   H892      1.0  0.64828  0.71993  0.68385  1.0000
  S   S220      1.0  0.52831  0.67263  0.68118  1.0000
  H   H893      1.0  0.57634  0.98021  0.74227  1.0000
  C   C559      1.0  0.32851  0.94115  0.71938  1.0000
  H   H894      1.0  0.34766  0.96377  0.62750  1.0000
  H   H895      1.0  0.56513  0.98738  0.62590  1.0000
  C   C560      1.0  0.36240  0.93034  0.61107  1.0000
  C   C561      1.0  0.57870  0.66594  0.71858  1.0000
  H   H896      1.0  0.45630  0.91262  0.74578  1.0000
  H   H897      1.0  0.65744  0.89710  0.64582  1.0000
  H   H898      1.0  0.40568  0.99494  0.60353  1.0000
  H   H899      1.0  0.37074  0.99528  0.62064  1.0000
  Fe  Fe112     1.0  0.34800  0.92885  0.80740  1.0000
  S   S221      1.0  0.39383  0.94572  0.81265  1.0000
  H   H900      1.0  0.62192  0.99028  0.79944  1.0000
  S   S222      1.0  0.55105  0.67546  0.82927  1.0000
  C   C562      1.0  0.41612  0.92913  0.81015  1.0000
  C   C563      1.0  0.40692  0.90254  0.80397  1.0000
  H   H901      1.0  0.38591  0.89206  0.80002  1.0000
  C   C564      1.0  0.36267  0.83493  0.84012  1.0000
  H   H902      1.0  0.55719  0.80087  0.78355  1.0000
  H   H903      1.0  0.36807  0.83853  0.85198  1.0000
  C   C565      1.0  0.58469  0.77063  0.77569  1.0000
  C   C566      1.0  0.65253  0.97255  0.84586  1.0000
  H   H904      1.0  0.48537  0.93715  0.78324  1.0000
  H   H905      1.0  0.62026  0.98903  0.87317  1.0000
  H   H906      1.0  0.51250  0.92615  0.78194  1.0000
  H   H907      1.0  0.47995  0.87940  0.77479  1.0000
  H   H908      1.0  0.51821  0.90401  0.75908  1.0000
  H   H909      1.0  0.34757  0.81332  0.83823  1.0000
  C   C567      1.0  0.46756  0.88820  0.76858  1.0000
  N   N56       1.0  0.35164  0.85428  0.83476  1.0000
  H   H910      1.0  0.53667  0.79454  0.76706  1.0000
  C   C568      1.0  0.44372  0.94284  0.81486  1.0000
  C   C569      1.0  0.42494  0.88948  0.80303  1.0000
  H   H911      1.0  0.41753  0.86871  0.79848  1.0000
  H   H912      1.0  0.45103  0.96346  0.81963  1.0000
  C   C570      1.0  0.53574  0.74706  0.77657  1.0000
  H   H913      1.0  0.38148  0.83710  0.83453  1.0000
  H   H914      1.0  0.51360  0.95459  0.77195  1.0000
  H   H915      1.0  0.37729  0.88801  0.84921  1.0000
  H   H916      1.0  0.48298  0.94071  0.81746  1.0000
  C   C571      1.0  0.46189  0.93000  0.81364  1.0000
  C   C572      1.0  0.55636  0.76166  0.75371  1.0000
  S   S223      1.0  0.47413  0.88550  0.80662  1.0000
  C   C573      1.0  0.45249  0.90310  0.80788  1.0000
  H   H917      1.0  0.61633  0.73345  0.86654  1.0000
  C   C574      1.0  0.34474  0.84872  0.81902  1.0000
  C   C575      1.0  0.57227  0.91791  0.75171  1.0000
  H   H918      1.0  0.45236  0.88974  0.77607  1.0000
  H   H919      1.0  0.60214  0.78678  0.77063  1.0000
  H   H920      1.0  0.33706  0.86345  0.81456  1.0000
  Fe  Fe113     1.0  0.56800  0.88575  0.80706  1.0000
  S   S224      1.0  0.59945  0.92904  0.80608  1.0000
  S   S225      1.0  0.58539  0.85389  0.80581  1.0000
  Fe  Fe114     1.0  0.52070  0.90340  0.80919  1.0000
  S   S226      1.0  0.54895  0.94786  0.80908  1.0000
  C   C576      1.0  0.49969  0.93418  0.77561  1.0000
  Fe  Fe115     1.0  0.56883  0.93489  0.79094  1.0000
  S   S227      1.0  0.57715  0.96055  0.77103  1.0000
  Fe  Fe116     1.0  0.57733  0.93813  0.82434  1.0000
  S   S228      1.0  0.59805  0.96586  0.84462  1.0000
  S   S229      1.0  0.53948  0.89089  0.79032  1.0000
  S   S230      1.0  0.54702  0.89431  0.82604  1.0000
  Fe  Fe117     1.0  0.54023  0.70145  0.81374  1.0000
  S   S231      1.0  0.58056  0.71753  0.80365  1.0000
  S   S232      1.0  0.52051  0.73001  0.82040  1.0000
  Fe  Fe118     1.0  0.56219  0.68215  0.78729  1.0000
  Fe  Fe119     1.0  0.59107  0.69005  0.81835  1.0000
  S   S233      1.0  0.63296  0.71393  0.83024  1.0000
  H   H921      1.0  0.62555  0.98444  0.81832  1.0000
  H   H922      1.0  0.60153  0.74543  0.83499  1.0000
  H   H923      1.0  0.53657  0.75156  0.78846  1.0000
  C   C577      1.0  0.56733  0.82071  0.81175  1.0000
  C   C578      1.0  0.53940  0.81038  0.81412  1.0000
  C   C579      1.0  0.52520  0.78264  0.81720  1.0000
  C   C580      1.0  0.53885  0.76521  0.81780  1.0000
  C   C581      1.0  0.56689  0.77593  0.81593  1.0000
  C   C582      1.0  0.58106  0.80351  0.81290  1.0000
  H   H924      1.0  0.57771  0.76296  0.81667  1.0000
  H   H925      1.0  0.60268  0.81145  0.81110  1.0000
  H   H926      1.0  0.64886  0.96349  0.83494  1.0000
  H   H927      1.0  0.58675  0.77557  0.78757  1.0000
  C   C583      1.0  0.55622  0.79518  0.77179  1.0000
  C   C584      1.0  0.63601  0.69180  0.85699  1.0000
  C   C585      1.0  0.64683  0.71405  0.84809  1.0000
  H   H928      1.0  0.51545  0.74490  0.77213  1.0000
  S   S234      1.0  0.32872  0.95683  0.79964  1.0000
  H   H929      1.0  0.56013  0.76273  0.84771  1.0000
  H   H930      1.0  0.59898  0.79338  0.86413  1.0000
  H   H931      1.0  0.63055  0.76567  0.84658  1.0000
  H   H932      1.0  0.50349  0.77453  0.81872  1.0000
  H   H933      1.0  0.33102  0.85465  0.85437  1.0000
  S   S235      1.0  0.56295  0.69458  0.76374  1.0000
  H   H934      1.0  0.55823  0.74193  0.75165  1.0000
  H   H935      1.0  0.60804  0.78037  0.83969  1.0000
  H   H936      1.0  0.36531  0.89785  0.83291  1.0000
  C   C586      1.0  0.60880  0.76149  0.84398  1.0000
  H   H937      1.0  0.62317  0.78116  0.87142  1.0000
  C   C587      1.0  0.59498  0.72833  0.86252  1.0000
  H   H938      1.0  0.53666  0.72676  0.77507  1.0000
  C   C588      1.0  0.63112  0.97497  0.85317  1.0000
  N   N57       1.0  0.59204  0.75250  0.85677  1.0000
  C   C589      1.0  0.60128  0.77495  0.86808  1.0000
  H   H939      1.0  0.61852  0.67365  0.85306  1.0000
  C   C590      1.0  0.56311  0.74521  0.85246  1.0000
  H   H940      1.0  0.55540  0.72802  0.84410  1.0000
  H   H941      1.0  0.58970  0.71156  0.85398  1.0000
  H   H942      1.0  0.58928  0.76871  0.87797  1.0000
  N   N58       1.0  0.48491  0.91522  0.76319  1.0000
  H   H943      1.0  0.58153  0.72001  0.87169  1.0000
  H   H944      1.0  0.54976  0.73867  0.86182  1.0000
  H   H945      1.0  0.34137  0.93748  0.75570  1.0000
  H   H946      1.0  0.36276  0.85027  0.81289  1.0000
  H   H947      1.0  0.52864  0.82354  0.81321  1.0000
  H   H948      1.0  0.39177  0.88577  0.83222  1.0000
  H   H949      1.0  0.57268  0.90655  0.76113  1.0000
  N   N59       1.0  0.55825  0.76865  0.76945  1.0000
  H   H950      1.0  0.64019  0.67507  0.87748  1.0000
  C   C591      1.0  0.37236  0.88266  0.83741  1.0000
  C   C592      1.0  0.57477  0.94487  0.75347  1.0000
  H   H951      1.0  0.45624  0.87326  0.75953  1.0000
  H   H952      1.0  0.57319  0.81209  0.76683  1.0000
  H   H953      1.0  0.58692  0.75096  0.77403  1.0000
  C   C593      1.0  0.64838  0.69268  0.87086  1.0000
  S   S236      1.0  0.52074  0.66757  0.79667  1.0000
  H   H954      1.0  0.53650  0.75947  0.74862  1.0000
  H   H955      1.0  0.45246  0.92890  0.76241  1.0000
  H   H956      1.0  0.32831  0.82787  0.81665  1.0000
  C   C594      1.0  0.46769  0.92636  0.75526  1.0000
  C   C595      1.0  0.63655  0.98687  0.86741  1.0000
  C   C596      1.0  0.50477  0.91216  0.75335  1.0000
  C   C597      1.0  0.32676  0.85070  0.84245  1.0000
  H   H957      1.0  0.48023  0.94678  0.75108  1.0000
  H   H958      1.0  0.51822  0.93215  0.74906  1.0000
  H   H959      1.0  0.93598  0.14865  0.02283  1.0000
  C   C598      1.0  0.82178  0.25486  0.18028  1.0000
  C   C599      1.0  0.67566  0.07886  0.11500  1.0000
  Fe  Fe120     1.0  0.96264  0.26964  0.06231  1.0000
  C   C600      1.0  0.78402  0.21225  0.17296  1.0000
  H   H960      1.0  0.87259  0.17638  0.01557  1.0000
  Fe  Fe121     1.0  0.96103  0.21226  0.05971  1.0000
  S   S237      1.0  0.94064  0.16837  0.06654  1.0000
  S   S238      1.0  0.93745  0.23231  0.04807  1.0000
  Fe  Fe122     1.0  0.74013  0.01894  0.03649  1.0000
  S   S239      1.0  0.78349  0.02765  0.04298  1.0000
  H   H961      1.0  0.92646  0.16593  0.03710  1.0000
  Fe  Fe123     1.0  0.72920  0.03523  0.06779  1.0000
  S   S240      1.0  0.77176  0.04346  0.07614  1.0000
  S   S241      1.0  0.69744  0.04531  0.07984  1.0000
  Fe  Fe124     1.0  0.78471  0.06496  0.05532  1.0000
  S   S242      1.0  0.81255  0.10994  0.05407  1.0000
  H   H962      1.0  0.77700  0.20938  0.18426  1.0000
  S   S243      1.0  0.74231  0.05789  0.04731  1.0000
  C   C601      1.0  0.66827  0.02282  0.19354  1.0000
  S   S244      1.0  0.98443  0.24870  0.07493  1.0000
  S   S245      1.0  0.86662  0.30453  0.15784  1.0000
  S   S246      1.0  0.79774  0.28384  0.13750  1.0000
  H   H963      1.0  0.88952  0.18101  0.03315  1.0000
  Fe  Fe125     1.0  0.76624  0.00486  0.06299  1.0000
  S   S247      1.0  0.69443  0.09375  0.14394  1.0000
  Fe  Fe126     1.0  0.83511  0.31750  0.14857  1.0000
  S   S248      1.0  0.69782  0.21266  0.17436  1.0000
  S   S249      1.0  0.68351  0.13400  0.17593  1.0000
  C   C602      1.0  0.76971  0.26464  0.14773  1.0000
  C   C603      1.0  0.75053  0.23927  0.14194  1.0000
  C   C604      1.0  0.72840  0.22305  0.15002  1.0000
  C   C605      1.0  0.72511  0.23241  0.16384  1.0000
  C   C606      1.0  0.74405  0.25796  0.16954  1.0000
  C   C607      1.0  0.76644  0.27393  0.16157  1.0000
  H   H964      1.0  0.75296  0.23204  0.13122  1.0000
  H   H965      1.0  0.71391  0.20341  0.14553  1.0000
  H   H966      1.0  0.74155  0.26532  0.18022  1.0000
  H   H967      1.0  0.78098  0.29354  0.16606  1.0000
  C   C608      1.0  0.69697  0.05848  0.09780  1.0000
  C   C609      1.0  0.71637  0.06042  0.10876  1.0000
  C   C610      1.0  0.71532  0.07139  0.12274  1.0000
  C   C611      1.0  0.69495  0.08064  0.12598  1.0000
  H   H968      1.0  0.91114  0.32366  0.08399  1.0000
  H   H969      1.0  0.88829  0.11517  0.01825  1.0000
  H   H970      1.0  0.73194  0.05307  0.10655  1.0000
  H   H971      1.0  0.73027  0.07250  0.13115  1.0000
  C   C612      1.0  0.68082  0.13142  0.23627  1.0000
  Fe  Fe127     1.0  0.66761  0.11354  0.15367  1.0000
  C   C613      1.0  0.90469  0.15197  0.06445  1.0000
  C   C614      1.0  0.88919  0.16718  0.06227  1.0000
  C   C615      1.0  0.86091  0.15388  0.05939  1.0000
  C   C616      1.0  0.84773  0.12523  0.05889  1.0000
  C   C617      1.0  0.86297  0.10987  0.06155  1.0000
  C   C618      1.0  0.89144  0.12326  0.06429  1.0000
  H   H972      1.0  0.89895  0.18925  0.06286  1.0000
  H   H973      1.0  0.84925  0.16593  0.05744  1.0000
  H   H974      1.0  0.85296  0.08774  0.06120  1.0000
  H   H975      1.0  0.90330  0.11135  0.06606  1.0000
  C   C619      1.0  0.86269  0.32161  0.22936  1.0000
  C   C620      1.0  0.95002  0.29706  0.10202  1.0000
  C   C621      1.0  0.92108  0.31828  0.09299  1.0000
  H   H976      1.0  0.85038  0.22389  0.18011  1.0000
  N   N60       1.0  0.66191  0.04556  0.18848  1.0000
  C   C622      1.0  0.82202  0.23154  0.15750  1.0000
  H   H977      1.0  0.81513  0.25308  0.19164  1.0000
  C   C623      1.0  0.93157  0.32067  0.11904  1.0000
  S   S250      1.0  0.95937  0.23397  0.00855  1.0000
  C   C624      1.0  0.88178  0.13184  0.02118  1.0000
  H   H978      1.0  0.82228  0.19206  0.17474  1.0000
  H   H979      1.0  0.82223  0.20968  0.19168  1.0000
  H   H980      1.0  0.84431  0.26662  0.18085  1.0000
  H   H981      1.0  0.70218  0.14520  0.23738  1.0000
  H   H982      1.0  0.96214  0.28547  0.10020  1.0000
  C   C625      1.0  0.67662  0.06774  0.10104  1.0000
  H   H983      1.0  0.84322  0.30411  0.22855  1.0000
  C   C626      1.0  0.90598  0.15872  0.00149  1.0000
  H   H984      1.0  0.69066  0.02848  0.19403  1.0000
  H   H985      1.0  0.72961  0.22317  0.24820  1.0000
  H   H986      1.0  0.77721  0.19168  0.16736  1.0000
  H   H987      1.0  0.95824  0.30140  0.12527  1.0000
  H   H988      1.0  0.67908  0.13231  0.21284  1.0000
  H   H989      1.0  0.87882  0.13132  0.03307  1.0000
  H   H990      1.0  0.84449  0.24300  0.15688  1.0000
  Fe  Fe128     1.0  0.97152  0.24589  0.03258  1.0000
  H   H991      1.0  0.77314  0.22319  0.16738  1.0000
  C   C627      1.0  0.82777  0.21262  0.18014  1.0000
  H   H992      1.0  0.81277  0.26752  0.17462  1.0000
  Fe  Fe129     1.0  0.67318  0.16797  0.16801  1.0000
  S   S251      1.0  0.72461  0.99722  0.01420  1.0000
  C   C628      1.0  0.92838  0.16472  0.02520  1.0000
  H   H993      1.0  0.73357  0.05173  0.00447  1.0000
  N   N61       1.0  0.76329  0.12872  0.08224  1.0000
  C   C629      1.0  0.74915  0.11979  0.06778  1.0000
  C   C630      1.0  0.78799  0.15431  0.08109  1.0000
  C   C631      1.0  0.77128  0.10724  0.08765  1.0000
  C   C632      1.0  0.74472  0.13339  0.09241  1.0000
  H   H994      1.0  0.76264  0.11623  0.05981  1.0000
  H   H995      1.0  0.74257  0.13534  0.06338  1.0000
  H   H996      1.0  0.73061  0.10025  0.06822  1.0000
  H   H997      1.0  0.80232  0.15130  0.07343  1.0000
  H   H998      1.0  0.78282  0.17103  0.07701  1.0000
  H   H999      1.0  0.79930  0.16149  0.09178  1.0000
  H   H1000     1.0  0.78061  0.11244  0.09887  1.0000
  H   H1001     1.0  0.78639  0.10420  0.08066  1.0000
  H   H1002     1.0  0.75338  0.08722  0.08774  1.0000
  H   H1003     1.0  0.73850  0.14971  0.08877  1.0000
  H   H1004     1.0  0.75440  0.13952  0.10353  1.0000
  H   H1005     1.0  0.72575  0.11449  0.09328  1.0000
  N   N62       1.0  0.90212  0.15886  0.01728  1.0000
  H   H1006     1.0  0.69770  0.07631  0.19955  1.0000
  H   H1007     1.0  0.90728  0.20088  0.01854  1.0000
  C   C633      1.0  0.67209  0.05258  0.17380  1.0000
  H   H1008     1.0  0.81597  0.21160  0.15134  1.0000
  H   H1009     1.0  0.67140  0.08745  0.19491  1.0000
  C   C634      1.0  0.94761  0.30595  0.11628  1.0000
  N   N63       1.0  0.81388  0.22779  0.17272  1.0000
  H   H1010     1.0  0.81232  0.24343  0.15166  1.0000
  H   H1011     1.0  0.86150  0.12683  0.01565  1.0000
  S   S252      1.0  0.94297  0.29692  0.07183  1.0000
  C   C635      1.0  0.93724  0.30371  0.09022  1.0000
  C   C636      1.0  0.91793  0.32638  0.10729  1.0000
  S   S253      1.0  0.66043  0.14931  0.14542  1.0000
  C   C637      1.0  0.89241  0.18018  0.02129  1.0000
  C   C638      1.0  0.66779  0.12409  0.22234  1.0000
  H   H1012     1.0  0.94445  0.18464  0.02232  1.0000
  H   H1013     1.0  0.66255  0.03494  0.16579  1.0000
  H   H1014     1.0  0.69461  0.05938  0.17367  1.0000
  S   S254      1.0  0.86199  0.31465  0.19972  1.0000
  H   H1015     1.0  0.66723  0.06562  0.20969  1.0000
  C   C639      1.0  0.67521  0.06973  0.19861  1.0000
  H   H1016     1.0  0.66747  0.06960  0.16968  1.0000
  H   H1017     1.0  0.66144  0.06628  0.09269  1.0000
  H   H1018     1.0  0.65980  0.08575  0.11729  1.0000
  H   H1019     1.0  0.66081  0.01710  0.20460  1.0000
  Fe  Fe130     1.0  0.73150  0.01124  0.43754  1.0000
  C   C640      1.0  0.93097  0.23741  0.48471  1.0000
  Fe  Fe131     1.0  0.72495  0.02943  0.40686  1.0000
  S   S255      1.0  0.76817  0.03777  0.40155  1.0000
  S   S256      1.0  0.69247  0.03906  0.39480  1.0000
  H   H1020     1.0  0.91338  0.21800  0.48349  1.0000
  Fe  Fe132     1.0  0.77908  0.05685  0.42413  1.0000
  S   S257      1.0  0.81288  0.09725  0.43139  1.0000
  H   H1021     1.0  0.86849  0.26839  0.30462  1.0000
  S   S258      1.0  0.73665  0.05153  0.42881  1.0000
  Fe  Fe133     1.0  0.94708  0.24332  0.43290  1.0000
  C   C641      1.0  0.67639  0.06425  0.37306  1.0000
  C   C642      1.0  0.93563  0.30992  0.37477  1.0000
  Fe  Fe134     1.0  0.95379  0.27072  0.40319  1.0000
  H   H1022     1.0  0.89915  0.30401  0.41982  1.0000
  Fe  Fe135     1.0  0.93808  0.20930  0.40423  1.0000
  S   S259      1.0  0.91033  0.16853  0.39319  1.0000
  S   S260      1.0  0.91932  0.23649  0.41306  1.0000
  N   N64       1.0  0.85535  0.03494  0.42047  1.0000
  S   S261      1.0  0.69784  0.08653  0.33163  1.0000
  H   H1023     1.0  0.84578  0.28404  0.32409  1.0000
  S   S262      1.0  0.70140  0.21137  0.32139  1.0000
  S   S263      1.0  0.70064  0.14165  0.30628  1.0000
  S   S264      1.0  0.81792  0.27576  0.29640  1.0000
  H   H1024     1.0  0.88814  0.24937  0.30937  1.0000
  H   H1025     1.0  0.83770  0.01760  0.39929  1.0000
  H   H1026     1.0  0.67238  0.17902  0.26982  1.0000
  S   S265      1.0  0.97165  0.24283  0.39328  1.0000
  C   C643      1.0  0.73510  0.22942  0.31593  1.0000
  C   C644      1.0  0.74928  0.21561  0.30942  1.0000
  C   C645      1.0  0.77491  0.23025  0.30386  1.0000
  C   C646      1.0  0.78684  0.25891  0.30484  1.0000
  C   C647      1.0  0.77329  0.27296  0.31182  1.0000
  C   C648      1.0  0.74741  0.25819  0.31734  1.0000
  H   H1027     1.0  0.74044  0.19362  0.30849  1.0000
  H   H1028     1.0  0.78530  0.21921  0.29853  1.0000
  H   H1029     1.0  0.78234  0.29511  0.31262  1.0000
  H   H1030     1.0  0.73661  0.26908  0.32240  1.0000
  H   H1031     1.0  0.89365  0.06001  0.41165  1.0000
  H   H1032     1.0  0.72886  0.18508  0.26362  1.0000
  C   C649      1.0  0.94327  0.25079  0.47230  1.0000
  C   C650      1.0  0.83928  0.03453  0.40711  1.0000
  C   C651      1.0  0.84264  0.23328  0.32470  1.0000
  C   C652      1.0  0.83955  0.11643  0.42041  1.0000
  C   C653      1.0  0.84162  0.10726  0.40632  1.0000
  C   C654      1.0  0.86342  0.12332  0.39797  1.0000
  C   C655      1.0  0.88315  0.14850  0.40370  1.0000
  C   C656      1.0  0.88096  0.15750  0.41778  1.0000
  C   C657      1.0  0.85923  0.14152  0.42609  1.0000
  H   H1033     1.0  0.82652  0.08789  0.40190  1.0000
  H   H1034     1.0  0.86513  0.11630  0.38707  1.0000
  H   H1035     1.0  0.89615  0.17673  0.42235  1.0000
  H   H1036     1.0  0.85782  0.14865  0.43702  1.0000
  C   C658      1.0  0.69447  0.05250  0.37727  1.0000
  C   C659      1.0  0.71343  0.05157  0.36746  1.0000
  C   C660      1.0  0.71416  0.06218  0.35359  1.0000
  C   C661      1.0  0.69600  0.07384  0.34934  1.0000
  H   H1037     1.0  0.97598  0.28628  0.46462  1.0000
  H   H1038     1.0  0.74730  0.07051  0.49245  1.0000
  H   H1039     1.0  0.72710  0.04214  0.37042  1.0000
  H   H1040     1.0  0.72860  0.06097  0.34599  1.0000
  S   S266      1.0  0.68438  0.13019  0.26592  1.0000
  H   H1041     1.0  0.96854  0.30080  0.36712  1.0000
  C   C662      1.0  0.73685  0.04849  0.49102  1.0000
  H   H1042     1.0  0.71653  0.18314  0.28152  1.0000
  Fe  Fe136     1.0  0.84674  0.32055  0.29955  1.0000
  H   H1043     1.0  0.87081  0.26898  0.43677  1.0000
  Fe  Fe137     1.0  0.67870  0.16603  0.31489  1.0000
  H   H1044     1.0  0.81806  0.03111  0.40959  1.0000
  H   H1045     1.0  0.69573  0.21339  0.28999  1.0000
  H   H1046     1.0  0.88581  0.26653  0.45416  1.0000
  H   H1047     1.0  0.89295  0.31551  0.45952  1.0000
  S   S267      1.0  0.93750  0.30022  0.39297  1.0000
  C   C663      1.0  0.95351  0.30872  0.36434  1.0000
  H   H1048     1.0  0.89162  0.23763  0.33500  1.0000
  C   C664      1.0  0.88350  0.03997  0.41677  1.0000
  H   H1049     1.0  0.86191  0.32747  0.25265  1.0000
  H   H1050     1.0  0.74642  0.24807  0.26279  1.0000
  C   C665      1.0  0.95279  0.31892  0.35046  1.0000
  H   H1051     1.0  0.92689  0.29409  0.42245  1.0000
  H   H1052     1.0  0.87636  0.25028  0.34889  1.0000
  N   N65       1.0  0.71093  0.21346  0.26870  1.0000
  N   N66       1.0  0.77486  0.12181  0.38768  1.0000
  C   C666      1.0  0.76303  0.10424  0.39990  1.0000
  C   C667      1.0  0.79754  0.14742  0.39330  1.0000
  C   C668      1.0  0.75356  0.12826  0.38024  1.0000
  C   C669      1.0  0.78531  0.10724  0.37730  1.0000
  H   H1053     1.0  0.77863  0.09932  0.40591  1.0000
  H   H1054     1.0  0.74612  0.08456  0.39605  1.0000
  H   H1055     1.0  0.75455  0.11436  0.40787  1.0000
  H   H1056     1.0  0.79041  0.15890  0.40121  1.0000
  H   H1057     1.0  0.81391  0.14320  0.39901  1.0000
  H   H1058     1.0  0.80709  0.16117  0.38438  1.0000
  H   H1059     1.0  0.76159  0.14123  0.37083  1.0000
  H   H1060     1.0  0.74516  0.13927  0.38771  1.0000
  H   H1061     1.0  0.73609  0.10933  0.37595  1.0000
  H   H1062     1.0  0.76878  0.08773  0.37292  1.0000
  H   H1063     1.0  0.80147  0.10212  0.38252  1.0000
  H   H1064     1.0  0.79421  0.11982  0.36787  1.0000
  Fe  Fe138     1.0  0.76096  0.99826  0.41256  1.0000
  S   S268      1.0  0.96320  0.21342  0.42464  1.0000
  C   C670      1.0  0.89851  0.31980  0.44805  1.0000
  C   C671      1.0  0.85595  0.05704  0.43071  1.0000
  C   C672      1.0  0.72671  0.19759  0.27297  1.0000
  S   S269      1.0  0.77504  0.01842  0.43478  1.0000
  N   N67       1.0  0.91035  0.30129  0.44219  1.0000
  C   C673      1.0  0.93373  0.32976  0.34665  1.0000
  C   C674      1.0  0.89032  0.27256  0.44277  1.0000
  C   C675      1.0  0.91652  0.32071  0.37094  1.0000
  H   H1065     1.0  0.84734  0.21578  0.32098  1.0000
  Fe  Fe139     1.0  0.66750  0.12591  0.28862  1.0000
  H   H1066     1.0  0.82861  0.23571  0.31625  1.0000
  H   H1067     1.0  0.69487  0.24005  0.27898  1.0000
  H   H1068     1.0  0.68389  0.01313  0.43361  1.0000
  C   C676      1.0  0.71745  0.00773  0.47486  1.0000
  H   H1069     1.0  0.74755  0.21119  0.27731  1.0000
  S   S270      1.0  0.92806  0.23632  0.45500  1.0000
  C   C677      1.0  0.91741  0.30745  0.42698  1.0000
  H   H1070     1.0  0.83122  0.22763  0.33480  1.0000
  C   C678      1.0  0.67721  0.07498  0.35921  1.0000
  H   H1071     1.0  0.90531  0.27345  0.33998  1.0000
  H   H1072     1.0  0.68634  0.18323  0.25231  1.0000
  H   H1073     1.0  0.96724  0.31852  0.34264  1.0000
  H   H1074     1.0  0.66200  0.03087  0.43268  1.0000
  H   H1075     1.0  0.84845  0.05413  0.40154  1.0000
  H   H1076     1.0  0.88375  0.02373  0.40900  1.0000
  H   H1077     1.0  0.90063  0.28513  0.31466  1.0000
  C   C679      1.0  0.96598  0.27591  0.47403  1.0000
  H   H1078     1.0  0.82136  0.00374  0.43015  1.0000
  C   C680      1.0  0.70689  0.22800  0.28168  1.0000
  C   C681      1.0  0.73190  0.03609  0.47692  1.0000
  H   H1079     1.0  0.86773  0.05791  0.44098  1.0000
  H   H1080     1.0  0.86540  0.07749  0.42594  1.0000
  H   H1081     1.0  0.73857  0.04856  0.46762  1.0000
  N   N68       1.0  0.86772  0.25871  0.32708  1.0000
  C   C682      1.0  0.86036  0.28123  0.33200  1.0000
  C   C683      1.0  0.88187  0.26567  0.31333  1.0000
  C   C684      1.0  0.88598  0.25477  0.33823  1.0000
  H   H1082     1.0  0.85064  0.27732  0.34264  1.0000
  H   H1083     1.0  0.87863  0.30099  0.33320  1.0000
  H   H1084     1.0  0.72674  0.24240  0.28692  1.0000
  Fe  Fe140     1.0  0.67407  0.10803  0.32004  1.0000
  H   H1085     1.0  0.89622  0.04035  0.42660  1.0000
  H   H1086     1.0  0.66308  0.08382  0.35609  1.0000
  H   H1087     1.0  0.90271  0.32194  0.37893  1.0000
  C   C685      1.0  0.84266  0.00823  0.42725  1.0000
  H   H1088     1.0  0.83504  0.05410  0.43364  1.0000
  C   C686      1.0  0.68409  0.19467  0.26211  1.0000
  H   H1089     1.0  0.93076  0.30006  0.46243  1.0000
  H   H1090     1.0  0.89817  0.25816  0.43780  1.0000
  H   H1091     1.0  0.85422  0.00761  0.43734  1.0000
  S   S271      1.0  0.88871  0.32493  0.29407  1.0000
  H   H1092     1.0  0.94493  0.29192  0.44659  1.0000
  C   C687      1.0  0.93530  0.30528  0.45094  1.0000
  C   C688      1.0  0.97533  0.28808  0.48805  1.0000
  H   H1093     1.0  0.99231  0.30794  0.48931  1.0000
  H   H1094     1.0  0.87974  0.31743  0.44162  1.0000
  S   S272      1.0  0.98036  0.27995  0.42407  1.0000
  C   C689      1.0  0.72608  0.23355  0.25808  1.0000
  H   H1095     1.0  0.71475  0.24586  0.25459  1.0000
  H   H1096     1.0  0.67145  0.20580  0.25888  1.0000
  C   C690      1.0  0.66380  0.01226  0.43669  1.0000
  H   H1097     1.0  0.66435  0.01343  0.44879  1.0000
  H   H1098     1.0  0.95082  0.32677  0.45091  1.0000
  H   H1099     1.0  0.93238  0.32896  0.42598  1.0000
  H   H1100     1.0  0.66154  0.06499  0.38052  1.0000
  H   H1101     1.0  0.99011  0.24268  0.48425  1.0000
  C   C691      1.0  0.66650  0.12091  0.24876  1.0000
  H   H1102     1.0  0.99175  0.21002  0.48331  1.0000
  C   C692      1.0  0.91533  0.33027  0.35694  1.0000
  Fe  Fe141     1.0  0.76932  0.05801  0.57071  1.0000
  S   S273      1.0  0.72747  0.05259  0.56243  1.0000
  S   S274      1.0  0.80086  0.09870  0.58068  1.0000
  H   H1103     1.0  0.85401  0.01651  0.59506  1.0000
  H   H1104     1.0  0.76650  0.14371  0.52339  1.0000
  Fe  Fe142     1.0  0.73551  0.03202  0.54250  1.0000
  S   S275      1.0  0.73277  0.04958  0.52058  1.0000
  S   S276      1.0  0.97068  0.22498  0.53471  1.0000
  S   S277      1.0  0.77802  0.03989  0.55043  1.0000
  S   S278      1.0  0.75311  0.01822  0.58222  1.0000
  Fe  Fe143     1.0  0.94570  0.21395  0.55454  1.0000
  S   S279      1.0  0.94402  0.25545  0.55695  1.0000
  S   S280      1.0  0.91168  0.17079  0.55095  1.0000
  C   C693      1.0  0.81618  0.15166  0.53484  1.0000
  H   H1105     1.0  0.93121  0.23858  0.50818  1.0000
  C   C694      1.0  0.77547  0.12968  0.51917  1.0000
  H   H1106     1.0  0.84850  0.05627  0.55642  1.0000
  H   H1107     1.0  0.80863  0.16671  0.53928  1.0000
  H   H1108     1.0  0.78785  0.08595  0.52096  1.0000
  N   N69       1.0  0.79339  0.12528  0.53035  1.0000
  C   C695      1.0  0.77740  0.11350  0.54308  1.0000
  H   H1109     1.0  0.87347  0.01521  0.57974  1.0000
  S   S281      1.0  0.97440  0.29111  0.51784  1.0000
  H   H1110     1.0  0.78681  0.13862  0.50939  1.0000
  C   C696      1.0  0.80443  0.10621  0.52429  1.0000
  C   C697      1.0  0.83211  0.11858  0.57270  1.0000
  C   C698      1.0  0.84840  0.14519  0.57840  1.0000
  C   C699      1.0  0.87297  0.16157  0.57201  1.0000
  C   C700      1.0  0.88155  0.15135  0.55990  1.0000
  C   C701      1.0  0.86538  0.12463  0.55435  1.0000
  C   C702      1.0  0.84081  0.10843  0.56066  1.0000
  H   H1111     1.0  0.84191  0.15329  0.58774  1.0000
  H   H1112     1.0  0.88521  0.18209  0.57642  1.0000
  H   H1113     1.0  0.87182  0.11656  0.54497  1.0000
  H   H1114     1.0  0.82845  0.08819  0.55609  1.0000
  C   C703      1.0  0.72808  0.03264  0.50323  1.0000
  H   H1115     1.0  0.80736  0.02112  0.57818  1.0000
  H   H1116     1.0  0.89374  0.06641  0.57933  1.0000
  H   H1117     1.0  0.75819  0.10998  0.51556  1.0000
  H   H1118     1.0  0.78981  0.10876  0.55148  1.0000
  N   N70       1.0  0.85090  0.04014  0.57721  1.0000
  H   H1119     1.0  0.69954  0.00354  0.61119  1.0000
  H   H1120     1.0  0.81815  0.10248  0.53234  1.0000
  H   H1121     1.0  0.76960  0.12773  0.54828  1.0000
  H   H1122     1.0  0.82971  0.14904  0.54350  1.0000
  S   S282      1.0  0.98317  0.22555  0.56950  1.0000
  C   C704      1.0  0.85408  0.01611  0.58299  1.0000
  C   C705      1.0  0.82496  0.04033  0.58190  1.0000
  C   C706      1.0  0.71438  0.00420  0.50121  1.0000
  C   C707      1.0  0.87378  0.06563  0.58277  1.0000
  H   H1123     1.0  0.81633  0.11434  0.51456  1.0000
  Fe  Fe144     1.0  0.97164  0.26671  0.53793  1.0000
  H   H1124     1.0  0.82912  0.16094  0.52560  1.0000
  Fe  Fe145     1.0  0.71179  0.01102  0.57222  1.0000
  H   H1125     1.0  0.82461  0.04228  0.59392  1.0000
  H   H1126     1.0  0.98067  0.22136  0.49948  1.0000
  H   H1127     1.0  0.87162  0.08409  0.57871  1.0000
  H   H1128     1.0  0.87468  0.06757  0.59485  1.0000
  H   H1129     1.0  0.86962  0.03762  0.55726  1.0000
  H   H1130     1.0  0.75950  0.09407  0.54006  1.0000
  H   H1131     1.0  0.83315  0.01968  0.55660  1.0000
  C   C708      1.0  0.85057  0.03838  0.56117  1.0000
  H   H1132     1.0  0.82137  0.05766  0.57744  1.0000
  Fe  Fe146     1.0  0.75898  0.99976  0.56105  1.0000
  Fe  Fe147     1.0  0.98314  0.26798  0.57102  1.0000
  C   C709      1.0  0.96291  0.27468  0.50046  1.0000
  C   C710      1.0  0.94103  0.24902  0.49873  1.0000
  H   H1133     1.0  0.78922  0.09059  0.95857  1.0000
  H   H1134     1.0  0.79798  0.16287  0.95536  1.0000
  Fe  Fe148     1.0  0.79573  0.05956  0.91274  1.0000
  S   S283      1.0  0.75340  0.05852  0.91208  1.0000
  S   S284      1.0  0.83613  0.09644  0.91835  1.0000
  Fe  Fe149     1.0  0.74614  0.03003  0.93060  1.0000
  S   S285      1.0  0.73257  0.04464  0.95116  1.0000
  Fe  Fe150     1.0  0.73987  0.02015  0.89727  1.0000
  H   H1135     1.0  0.75083  0.09813  0.93583  1.0000
  S   S286      1.0  0.78847  0.03198  0.93149  1.0000
  S   S287      1.0  0.78333  0.02396  0.89652  1.0000
  Fe  Fe151     1.0  0.95341  0.24167  0.90252  1.0000
  S   S288      1.0  0.96302  0.28518  0.91045  1.0000
  S   S289      1.0  0.91229  0.21073  0.89286  1.0000
  H   H1136     1.0  0.66163  0.05108  0.80173  1.0000
  C   C711      1.0  0.79741  0.10005  0.94820  1.0000
  C   C712      1.0  0.97097  0.25198  0.96610  1.0000
  H   H1137     1.0  0.95074  0.21642  0.97852  1.0000
  H   H1138     1.0  0.92118  0.17898  0.99827  1.0000
  H   H1139     1.0  0.78844  0.08372  0.93949  1.0000
  H   H1140     1.0  0.82426  0.14233  0.93161  1.0000
  H   H1141     1.0  0.79341  0.11930  0.92225  1.0000
  S   S290      1.0  0.97705  0.23368  0.92102  1.0000
  C   C713      1.0  0.73359  0.03221  0.96871  1.0000
  H   H1142     1.0  0.94317  0.16403  0.90110  1.0000
  H   H1143     1.0  0.66549  0.04143  0.82791  1.0000
  C   C714      1.0  0.80270  0.14478  0.95718  1.0000
  H   H1144     1.0  0.96466  0.24078  0.95572  1.0000
  C   C715      1.0  0.73460  0.04882  0.98104  1.0000
  C   C716      1.0  0.98693  0.28066  0.99321  1.0000
  C   C717      1.0  0.73169  0.00569  0.97061  1.0000
  C   C718      1.0  0.96308  0.23823  0.97907  1.0000
  C   C719      1.0  0.89119  0.17911  0.90013  1.0000
  C   C720      1.0  0.89798  0.17085  0.91335  1.0000
  C   C721      1.0  0.88093  0.14539  0.91862  1.0000
  C   C722      1.0  0.85687  0.12790  0.91080  1.0000
  C   C723      1.0  0.84997  0.13618  0.89761  1.0000
  C   C724      1.0  0.86711  0.16164  0.89231  1.0000
  H   H1145     1.0  0.91632  0.18410  0.91954  1.0000
  H   H1146     1.0  0.88643  0.13921  0.92886  1.0000
  H   H1147     1.0  0.83151  0.12299  0.89150  1.0000
  H   H1148     1.0  0.86165  0.16788  0.88208  1.0000
  C   C725      1.0  0.95636  0.13745  0.87998  1.0000
  H   H1149     1.0  0.81984  0.10598  0.94859  1.0000
  H   H1150     1.0  0.75455  0.13144  0.94244  1.0000
  H   H1151     1.0  0.97166  0.13292  0.88653  1.0000
  C   C726      1.0  0.97097  0.25244  0.99268  1.0000
  N   N71       1.0  0.96268  0.16704  0.88082  1.0000
  N   N72       1.0  0.79059  0.12356  0.94534  1.0000
  H   H1152     1.0  0.93591  0.12527  0.88419  1.0000
  H   H1153     1.0  0.79478  0.13670  0.96785  1.0000
  H   H1154     1.0  0.82532  0.15208  0.95800  1.0000
  H   H1155     1.0  0.73576  0.06924  0.97969  1.0000
  H   H1156     1.0  0.95631  0.12993  0.86859  1.0000
  C   C727      1.0  0.76061  0.11433  0.94460  1.0000
  S   S291      1.0  0.98790  0.25507  0.88715  1.0000
  C   C728      1.0  0.94171  0.17224  0.87225  1.0000
  C   C729      1.0  0.80164  0.13501  0.93138  1.0000
  C   C730      1.0  0.73036  0.01205  0.99697  1.0000
  H   H1157     1.0  0.94055  0.16527  0.86067  1.0000
  C   C731      1.0  0.98982  0.18248  0.87505  1.0000
  S   S292      1.0  0.71863  0.00736  0.87443  1.0000
  H   H1158     1.0  0.79659  0.15256  0.92869  1.0000
  H   H1159     1.0  0.75156  0.10521  0.95489  1.0000
  H   H1160     1.0  0.92110  0.16161  0.87664  1.0000
  C   C732      1.0  0.96283  0.17608  0.89612  1.0000
  H   H1161     1.0  0.97962  0.17435  0.90282  1.0000
  C   C733      1.0  0.98658  0.28025  0.96660  1.0000
  Fe  Fe152     1.0  0.98937  0.27792  0.92787  1.0000
  H   H1162     1.0  0.94611  0.19448  0.87255  1.0000
  H   H1163     1.0  0.66660  0.00524  0.88519  1.0000
  H   H1164     1.0  0.96586  0.19782  0.89692  1.0000
  H   H1165     1.0  0.91362  0.14310  0.99810  1.0000
  C   C734      1.0  0.73339  0.03895  0.99512  1.0000
  H   H1166     1.0  0.99049  0.17658  0.86346  1.0000
  H   H1167     1.0  0.88659  0.15431  0.99514  1.0000
  Fe  Fe153     1.0  0.89677  0.57244  0.15169  1.0000
  S   S293      1.0  0.92611  0.61403  0.16070  1.0000
  S   S294      1.0  0.90902  0.53902  0.14284  1.0000
  Fe  Fe154     1.0  0.84822  0.58646  0.15448  1.0000
  S   S295      1.0  0.87302  0.62876  0.16410  1.0000
  S   S296      1.0  0.80364  0.56651  0.14711  1.0000
  Fe  Fe155     1.0  0.90291  0.63205  0.14681  1.0000
  H   H1168     1.0  0.93622  0.63807  0.22966  1.0000
  Fe  Fe156     1.0  0.89503  0.60895  0.17753  1.0000
  S   S297      1.0  0.91433  0.62496  0.20026  1.0000
  S   S298      1.0  0.87626  0.59088  0.13629  1.0000
  S   S299      1.0  0.86742  0.56607  0.16941  1.0000
  Fe  Fe157     1.0  0.67893  0.59585  0.17133  1.0000
  S   S300      1.0  0.72342  0.60866  0.17803  1.0000
  H   H1169     1.0  0.83036  0.36376  0.20040  1.0000
  Fe  Fe158     1.0  0.86880  0.37794  0.15810  1.0000
  S   S301      1.0  0.90294  0.36858  0.16799  1.0000
  S   S302      1.0  0.86198  0.41658  0.16386  1.0000
  C   C735      1.0  0.90230  0.35355  0.21799  1.0000
  H   H1170     1.0  0.72570  0.60768  0.24568  1.0000
  H   H1171     1.0  0.85819  0.37227  0.22308  1.0000
  H   H1172     1.0  0.86677  0.51755  0.24060  1.0000
  H   H1173     1.0  0.86939  0.43790  0.19526  1.0000
  C   C736      1.0  0.86977  0.43172  0.20668  1.0000
  H   H1174     1.0  0.93239  0.38416  0.23253  1.0000
  H   H1175     1.0  0.88563  0.40385  0.18802  1.0000
  H   H1176     1.0  0.89053  0.44426  0.21158  1.0000
  C   C737      1.0  0.87434  0.60658  0.24446  1.0000
  C   C738      1.0  0.66148  0.63767  0.24181  1.0000
  H   H1177     1.0  0.85486  0.43720  0.21260  1.0000
  C   C739      1.0  0.89746  0.50549  0.14940  1.0000
  C   C740      1.0  0.88079  0.49783  0.16125  1.0000
  C   C741      1.0  0.87026  0.47056  0.16548  1.0000
  C   C742      1.0  0.87668  0.45069  0.15814  1.0000
  C   C743      1.0  0.89379  0.45840  0.14647  1.0000
  C   C744      1.0  0.90403  0.48567  0.14210  1.0000
  H   H1178     1.0  0.87585  0.51288  0.16710  1.0000
  H   H1179     1.0  0.85702  0.46483  0.17451  1.0000
  H   H1180     1.0  0.89889  0.44333  0.14071  1.0000
  H   H1181     1.0  0.91697  0.49139  0.13294  1.0000
  C   C745      1.0  0.89838  0.61696  0.21710  1.0000
  C   C746      1.0  0.87024  0.60201  0.21785  1.0000
  C   C747      1.0  0.85832  0.59698  0.23145  1.0000
  C   C748      1.0  0.91444  0.62644  0.23011  1.0000
  H   H1182     1.0  0.85760  0.59468  0.20795  1.0000
  H   H1183     1.0  0.90421  0.40547  0.20472  1.0000
  C   C749      1.0  0.78140  0.57846  0.15559  1.0000
  C   C750      1.0  0.75393  0.56841  0.15062  1.0000
  C   C751      1.0  0.73577  0.57747  0.15737  1.0000
  C   C752      1.0  0.74508  0.59646  0.16919  1.0000
  C   C753      1.0  0.77256  0.60662  0.17407  1.0000
  C   C754      1.0  0.79069  0.59768  0.16728  1.0000
  H   H1184     1.0  0.74664  0.55350  0.14157  1.0000
  H   H1185     1.0  0.71460  0.56955  0.15356  1.0000
  H   H1186     1.0  0.77982  0.62129  0.18322  1.0000
  H   H1187     1.0  0.81176  0.60540  0.17124  1.0000
  C   C755      1.0  0.91280  0.36679  0.23166  1.0000
  H   H1188     1.0  0.76252  0.65313  0.16033  1.0000
  S   S303      1.0  0.86496  0.35322  0.13710  1.0000
  H   H1189     1.0  0.87772  0.37364  0.19782  1.0000
  H   H1190     1.0  0.72643  0.63744  0.13175  1.0000
  S   S304      1.0  0.83607  0.34267  0.16847  1.0000
  H   H1191     1.0  0.83461  0.39125  0.18878  1.0000
  C   C756      1.0  0.89828  0.35760  0.24424  1.0000
  H   H1192     1.0  0.84922  0.39959  0.22890  1.0000
  H   H1193     1.0  0.93706  0.65178  0.11227  1.0000
  H   H1194     1.0  0.66390  0.63546  0.11846  1.0000
  H   H1195     1.0  0.90574  0.33791  0.10918  1.0000
  N   N73       1.0  0.86324  0.40216  0.20715  1.0000
  H   H1196     1.0  0.91391  0.36057  0.20845  1.0000
  H   H1197     1.0  0.81981  0.39027  0.20605  1.0000
  C   C757      1.0  0.88361  0.39604  0.19913  1.0000
  H   H1198     1.0  0.88450  0.40536  0.22781  1.0000
  H   H1199     1.0  0.83648  0.58566  0.23189  1.0000
  H   H1200     1.0  0.69866  0.64262  0.13966  1.0000
  H   H1201     1.0  0.71660  0.62632  0.14962  1.0000
  C   C758      1.0  0.83576  0.38619  0.20032  1.0000
  N   N74       1.0  0.82273  0.49964  0.12891  1.0000
  C   C759      1.0  0.79334  0.48155  0.12738  1.0000
  C   C760      1.0  0.82875  0.52320  0.11961  1.0000
  C   C761      1.0  0.83897  0.48427  0.12454  1.0000
  C   C762      1.0  0.82996  0.50972  0.14420  1.0000
  H   H1202     1.0  0.78818  0.46366  0.13434  1.0000
  H   H1203     1.0  0.78707  0.47355  0.11596  1.0000
  H   H1204     1.0  0.78069  0.49273  0.13065  1.0000
  H   H1205     1.0  0.82285  0.51644  0.10802  1.0000
  H   H1206     1.0  0.81769  0.53592  0.12301  1.0000
  H   H1207     1.0  0.85095  0.53682  0.12027  1.0000
  H   H1208     1.0  0.86121  0.49774  0.12511  1.0000
  H   H1209     1.0  0.83348  0.47556  0.11320  1.0000
  H   H1210     1.0  0.83604  0.46711  0.13178  1.0000
  H   H1211     1.0  0.85174  0.52424  0.14558  1.0000
  H   H1212     1.0  0.82668  0.49269  0.15154  1.0000
  H   H1213     1.0  0.81762  0.52079  0.14804  1.0000
  C   C763      1.0  0.71919  0.64288  0.14205  1.0000
  C   C764      1.0  0.86381  0.39461  0.22240  1.0000
  Fe  Fe159     1.0  0.89687  0.34133  0.14756  1.0000
  H   H1214     1.0  0.87282  0.55292  0.24324  1.0000
  C   C765      1.0  0.88212  0.53793  0.24472  1.0000
  H   H1215     1.0  0.89992  0.54400  0.23770  1.0000
  C   C766      1.0  0.90254  0.62120  0.24373  1.0000
  S   S305      1.0  0.66628  0.62909  0.17861  1.0000
  C   C767      1.0  0.67015  0.65708  0.11691  1.0000
  H   H1216     1.0  0.95354  0.66117  0.18096  1.0000
  S   S306      1.0  0.93145  0.33378  0.13704  1.0000
  H   H1217     1.0  0.68355  0.65502  0.09524  1.0000
  C   C768      1.0  0.87321  0.33483  0.24304  1.0000
  Fe  Fe160     1.0  0.86978  0.33226  0.17724  1.0000
  H   H1218     1.0  0.67710  0.65831  0.24323  1.0000
  C   C769      1.0  0.87695  0.33113  0.21674  1.0000
  H   H1219     1.0  0.98680  0.34738  0.08731  1.0000
  H   H1220     1.0  0.72416  0.66102  0.16996  1.0000
  H   H1221     1.0  0.77362  0.66310  0.14248  1.0000
  C   C770      1.0  0.69608  0.58043  0.26749  1.0000
  H   H1222     1.0  0.67133  0.64961  0.42966  1.0000
  S   S307      1.0  0.69651  0.55282  0.30619  1.0000
  S   S308      1.0  0.68600  0.62165  0.31045  1.0000
  Fe  Fe161     1.0  0.87532  0.60548  0.28470  1.0000
  S   S309      1.0  0.85330  0.56832  0.29754  1.0000
  S   S310      1.0  0.85803  0.59920  0.26123  1.0000
  Fe  Fe162     1.0  0.91128  0.63780  0.31202  1.0000
  S   S311      1.0  0.89273  0.60189  0.32601  1.0000
  H   H1223     1.0  0.71442  0.62903  0.28256  1.0000
  Fe  Fe163     1.0  0.89495  0.57564  0.30680  1.0000
  S   S312      1.0  0.91187  0.54279  0.30494  1.0000
  Fe  Fe164     1.0  0.85288  0.59778  0.31527  1.0000
  S   S313      1.0  0.81987  0.59921  0.32944  1.0000
  S   S314      1.0  0.91717  0.61229  0.29348  1.0000
  S   S315      1.0  0.87127  0.63428  0.30181  1.0000
  Fe  Fe165     1.0  0.89207  0.36231  0.28263  1.0000
  S   S316      1.0  0.91181  0.37567  0.26108  1.0000
  H   H1224     1.0  0.92347  0.48863  0.35162  1.0000
  Fe  Fe166     1.0  0.86726  0.38176  0.30720  1.0000
  S   S317      1.0  0.85361  0.41483  0.31509  1.0000
  S   S318      1.0  0.91059  0.38953  0.30276  1.0000
  H   H1225     1.0  0.89035  0.41261  0.35445  1.0000
  Fe  Fe167     1.0  0.67016  0.57583  0.31044  1.0000
  C   C771      1.0  0.89415  0.50701  0.30687  1.0000
  C   C772      1.0  0.86921  0.49580  0.31354  1.0000
  C   C773      1.0  0.85675  0.46744  0.31566  1.0000
  C   C774      1.0  0.86875  0.44989  0.31088  1.0000
  C   C775      1.0  0.89328  0.46100  0.30378  1.0000
  C   C776      1.0  0.90605  0.48943  0.30198  1.0000
  H   H1226     1.0  0.85982  0.50905  0.31739  1.0000
  H   H1227     1.0  0.83779  0.45908  0.32116  1.0000
  H   H1228     1.0  0.90272  0.44778  0.29996  1.0000
  H   H1229     1.0  0.92540  0.49789  0.29685  1.0000
  C   C777      1.0  0.73112  0.56718  0.31217  1.0000
  C   C778      1.0  0.74889  0.55693  0.30609  1.0000
  C   C779      1.0  0.77651  0.56750  0.31085  1.0000
  C   C780      1.0  0.78623  0.58776  0.32206  1.0000
  C   C781      1.0  0.76851  0.59816  0.32807  1.0000
  C   C782      1.0  0.74109  0.58821  0.32297  1.0000
  H   H1230     1.0  0.74120  0.54049  0.29781  1.0000
  H   H1231     1.0  0.78998  0.55921  0.30627  1.0000
  H   H1232     1.0  0.77589  0.61373  0.33680  1.0000
  H   H1233     1.0  0.72747  0.59612  0.32775  1.0000
  H   H1234     1.0  0.88729  0.49624  0.25841  1.0000
  C   C783      1.0  0.86614  0.53014  0.26901  1.0000
  H   H1235     1.0  0.71435  0.62975  0.25598  1.0000
  H   H1236     1.0  0.96347  0.46151  0.35374  1.0000
  H   H1237     1.0  0.91512  0.62886  0.25362  1.0000
  N   N75       1.0  0.72429  0.60176  0.26866  1.0000
  C   C784      1.0  0.89409  0.43390  0.35168  1.0000
  H   H1238     1.0  0.94538  0.48754  0.33748  1.0000
  H   H1239     1.0  0.87792  0.43237  0.34340  1.0000
  H   H1240     1.0  0.72458  0.60552  0.29193  1.0000
  C   C785      1.0  0.72880  0.61957  0.25620  1.0000
  H   H1241     1.0  0.90218  0.58060  0.26444  1.0000
  H   H1242     1.0  0.76525  0.60405  0.26969  1.0000
  S   S319      1.0  0.86081  0.34514  0.32073  1.0000
  H   H1243     1.0  0.89108  0.44467  0.36153  1.0000
  H   H1244     1.0  0.91320  0.34162  0.44782  1.0000
  H   H1245     1.0  0.88615  0.65040  0.36235  1.0000
  H   H1246     1.0  0.84524  0.66097  0.36745  1.0000
  Fe  Fe168     1.0  0.90292  0.35103  0.31473  1.0000
  H   H1247     1.0  0.92897  0.57174  0.25826  1.0000
  H   H1248     1.0  0.87164  0.52993  0.28073  1.0000
  C   C786      1.0  0.88092  0.65203  0.35077  1.0000
  C   C787      1.0  0.94247  0.45064  0.35758  1.0000
  H   H1249     1.0  0.89960  0.65673  0.34462  1.0000
  N   N76       1.0  0.92163  0.44847  0.34619  1.0000
  C   C788      1.0  0.92476  0.43305  0.33332  1.0000
  C   C789      1.0  0.92518  0.47619  0.34212  1.0000
  H   H1250     1.0  0.74058  0.57498  0.27795  1.0000
  C   C790      1.0  0.91081  0.56497  0.26503  1.0000
  N   N77       1.0  0.89032  0.53754  0.26013  1.0000
  H   H1251     1.0  0.90862  0.51676  0.27341  1.0000
  H   H1252     1.0  0.92222  0.41200  0.33595  1.0000
  C   C791      1.0  0.90223  0.51727  0.26184  1.0000
  H   H1253     1.0  0.94038  0.43002  0.36081  1.0000
  S   S320      1.0  0.84903  0.35628  0.28653  1.0000
  H   H1254     1.0  0.69209  0.56759  0.25726  1.0000
  H   H1255     1.0  0.74966  0.63438  0.28374  1.0000
  H   H1256     1.0  0.69196  0.56654  0.27669  1.0000
  H   H1257     1.0  0.92060  0.52225  0.25534  1.0000
  H   H1258     1.0  0.90923  0.43087  0.32458  1.0000
  H   H1259     1.0  0.68093  0.58967  0.26765  1.0000
  H   H1260     1.0  0.90069  0.33871  0.35427  1.0000
  H   H1261     1.0  0.86604  0.63146  0.34663  1.0000
  H   H1262     1.0  0.85028  0.50948  0.26572  1.0000
  C   C792      1.0  0.72844  0.61843  0.28231  1.0000
  C   C793      1.0  0.74372  0.58861  0.26867  1.0000
  H   H1263     1.0  0.91811  0.56520  0.27648  1.0000
  H   H1264     1.0  0.90934  0.47524  0.33379  1.0000
  H   H1265     1.0  0.94074  0.46210  0.36750  1.0000
  H   H1266     1.0  0.71082  0.64373  0.40797  1.0000
  H   H1267     1.0  0.70176  0.64468  0.43418  1.0000
  H   H1268     1.0  0.82829  0.64446  0.35051  1.0000
  H   H1269     1.0  0.94850  0.65569  0.34667  1.0000
  H   H1270     1.0  0.74126  0.57589  0.25851  1.0000
  H   H1271     1.0  0.94515  0.44347  0.32872  1.0000
  H   H1272     1.0  0.85659  0.54501  0.26796  1.0000
  S   S321      1.0  0.93416  0.34266  0.32901  1.0000
  H   H1273     1.0  0.68083  0.64930  0.40317  1.0000
  H   H1274     1.0  0.74987  0.63596  0.25672  1.0000
  H   H1275     1.0  0.85192  0.65712  0.32767  1.0000
  H   H1276     1.0  0.71345  0.66138  0.34735  1.0000
  S   S322      1.0  0.66569  0.63660  0.27155  1.0000
  C   C794      1.0  0.70290  0.65976  0.40652  1.0000
  C   C795      1.0  0.69374  0.66043  0.43202  1.0000
  H   H1277     1.0  0.97586  0.44658  0.80737  1.0000
  H   H1278     1.0  0.96641  0.39673  0.80766  1.0000
  H   H1279     1.0  0.94898  0.41809  0.82685  1.0000
  C   C796      1.0  0.96849  0.42326  0.83324  1.0000
  H   H1280     1.0  0.96557  0.40607  0.84046  1.0000
  H   H1281     1.0  0.97235  0.44183  0.84031  1.0000
  H   H1282     1.0  0.98351  0.38512  0.82127  1.0000
  C   C797      1.0  0.98550  0.40269  0.81452  1.0000
  N   N78       1.0  0.99129  0.42784  0.82364  1.0000
  Fe  Fe169     1.0  0.73314  0.77600  0.04460  1.0000
  S   S323      1.0  0.76148  0.81817  0.05339  1.0000
  S   S324      1.0  0.71301  0.76488  0.02174  1.0000
  Fe  Fe170     1.0  0.72293  0.75186  0.07515  1.0000
  S   S325      1.0  0.74990  0.79241  0.08622  1.0000
  S   S326      1.0  0.70200  0.70883  0.08406  1.0000
  Fe  Fe171     1.0  0.73124  0.81217  0.07052  1.0000
  S   S327      1.0  0.71734  0.84555  0.07727  1.0000
  Fe  Fe172     1.0  0.77861  0.79602  0.06837  1.0000
  S   S328      1.0  0.82325  0.81377  0.07570  1.0000
  S   S329      1.0  0.70149  0.77127  0.06100  1.0000
  S   S330      1.0  0.75316  0.75432  0.05813  1.0000
  Fe  Fe173     1.0  0.94606  0.78648  0.04782  1.0000
  S   S331      1.0  0.90165  0.77414  0.04114  1.0000
  S   S332      1.0  0.95775  0.75145  0.04357  1.0000
  S   S333      1.0  0.78283  0.97275  0.06793  1.0000
  C   C798      1.0  0.95904  0.71232  0.09486  1.0000
  H   H1283     1.0  0.71248  0.93809  0.00939  1.0000
  C   C799      1.0  0.93490  0.68855  0.12094  1.0000
  H   H1284     1.0  0.90966  0.75736  0.06965  1.0000
  C   C800      1.0  0.95242  0.72787  0.10530  1.0000
  C   C801      1.0  0.92292  0.69035  0.17969  1.0000
  H   H1285     1.0  0.87780  0.70071  0.09409  1.0000
  C   C802      1.0  0.94111  0.67290  0.11040  1.0000
  C   C803      1.0  0.84494  0.80257  0.06612  1.0000
  C   C804      1.0  0.83522  0.78492  0.05380  1.0000
  C   C805      1.0  0.85296  0.77655  0.04621  1.0000
  C   C806      1.0  0.88047  0.78575  0.05088  1.0000
  C   C807      1.0  0.89020  0.80323  0.06328  1.0000
  C   C808      1.0  0.87244  0.81167  0.07087  1.0000
  H   H1286     1.0  0.81411  0.77791  0.05003  1.0000
  H   H1287     1.0  0.84535  0.76302  0.03662  1.0000
  H   H1288     1.0  0.91140  0.81043  0.06694  1.0000
  H   H1289     1.0  0.88007  0.82536  0.08040  1.0000
  C   C809      1.0  0.73431  0.88058  0.07341  1.0000
  C   C810      1.0  0.72520  0.89961  0.07944  1.0000
  C   C811      1.0  0.73914  0.92782  0.07730  1.0000
  C   C812      1.0  0.76268  0.93730  0.06934  1.0000
  C   C813      1.0  0.77130  0.91820  0.06292  1.0000
  C   C814      1.0  0.75693  0.88994  0.06475  1.0000
  H   H1290     1.0  0.70758  0.89256  0.08606  1.0000
  H   H1291     1.0  0.73232  0.94231  0.08232  1.0000
  H   H1292     1.0  0.78932  0.92536  0.05661  1.0000
  H   H1293     1.0  0.76356  0.87539  0.05968  1.0000
  C   C815      1.0  0.68912  0.69628  0.10126  1.0000
  H   H1294     1.0  0.70680  0.67695  0.15925  1.0000
  H   H1295     1.0  0.91323  0.67114  0.18557  1.0000
  S   S334      1.0  0.92092  0.67527  0.13781  1.0000
  H   H1296     1.0  0.86899  0.67368  0.08023  1.0000
  S   S335      1.0  0.98116  0.81568  0.03597  1.0000
  H   H1297     1.0  0.91542  0.70531  0.18427  1.0000
  H   H1298     1.0  0.98473  0.71500  0.19791  1.0000
  H   H1299     1.0  0.69689  0.68731  0.04897  1.0000
  H   H1300     1.0  0.91755  0.70532  0.06134  1.0000
  N   N79       1.0  0.70908  0.92291  0.03084  1.0000
  C   C816      1.0  0.96490  0.72619  0.17279  1.0000
  H   H1301     1.0  0.69155  0.73452  0.11066  1.0000
  H   H1302     1.0  0.68637  0.93484  0.04634  1.0000
  H   H1303     1.0  0.75006  0.68631  0.12748  1.0000
  N   N80       1.0  0.82174  0.88756  0.08889  1.0000
  C   C817      1.0  0.84422  0.88481  0.09736  1.0000
  C   C818      1.0  0.82692  0.88717  0.07325  1.0000
  C   C819      1.0  0.82008  0.91364  0.09322  1.0000
  C   C820      1.0  0.79574  0.86446  0.09172  1.0000
  H   H1304     1.0  0.84087  0.88461  0.10921  1.0000
  H   H1305     1.0  0.86420  0.90193  0.09556  1.0000
  H   H1306     1.0  0.84603  0.86535  0.09420  1.0000
  H   H1307     1.0  0.82774  0.86751  0.06957  1.0000
  H   H1308     1.0  0.81062  0.88954  0.06651  1.0000
  H   H1309     1.0  0.84665  0.90399  0.07077  1.0000
  H   H1310     1.0  0.80288  0.91598  0.08727  1.0000
  H   H1311     1.0  0.83910  0.93161  0.09094  1.0000
  H   H1312     1.0  0.81665  0.91480  0.10501  1.0000
  H   H1313     1.0  0.79088  0.86429  0.10335  1.0000
  H   H1314     1.0  0.79657  0.84452  0.08883  1.0000
  H   H1315     1.0  0.77829  0.86529  0.08528  1.0000
  N   N81       1.0  0.88741  0.71440  0.07246  1.0000
  C   C821      1.0  0.86087  0.71561  0.06906  1.0000
  C   C822      1.0  0.90739  0.74177  0.07779  1.0000
  H   H1316     1.0  0.92790  0.74186  0.07996  1.0000
  H   H1317     1.0  0.89945  0.72030  0.05040  1.0000
  H   H1318     1.0  0.95830  0.67250  0.08957  1.0000
  H   H1319     1.0  0.95698  0.74914  0.10356  1.0000
  H   H1320     1.0  0.93600  0.72849  0.12633  1.0000
  H   H1321     1.0  0.75662  0.71157  0.14211  1.0000
  C   C823      1.0  0.73572  0.94419  0.03620  1.0000
  H   H1322     1.0  0.72249  0.69238  0.13487  1.0000
  C   C824      1.0  0.95323  0.68477  0.09752  1.0000
  C   C825      1.0  0.72787  0.76456  0.00484  1.0000
  C   C826      1.0  0.88430  0.69449  0.08376  1.0000
  C   C827      1.0  0.69030  0.70027  0.04195  1.0000
  H   H1323     1.0  0.85314  0.72260  0.07874  1.0000
  H   H1324     1.0  0.90390  0.69271  0.08625  1.0000
  H   H1325     1.0  0.86263  0.73026  0.06041  1.0000
  H   H1326     1.0  0.90117  0.74871  0.08800  1.0000
  N   N82       1.0  0.73834  0.66981  0.14840  1.0000
  C   C828      1.0  0.70436  0.89704  0.03790  1.0000
  H   H1327     1.0  0.95321  0.68833  0.20283  1.0000
  H   H1328     1.0  0.74089  0.96360  0.03057  1.0000
  S   S336      1.0  0.97430  0.72592  0.07831  1.0000
  C   C829      1.0  0.96192  0.68034  0.17494  1.0000
  H   H1329     1.0  0.88290  0.68513  0.05495  1.0000
  C   C830      1.0  0.94057  0.71608  0.11826  1.0000
  H   H1330     1.0  0.69032  0.95145  0.02947  1.0000
  H   H1331     1.0  0.72071  0.88992  0.03566  1.0000
  H   H1332     1.0  0.95847  0.74226  0.17696  1.0000
  C   C831      1.0  0.67439  0.70175  0.12547  1.0000
  H   H1333     1.0  0.91531  0.68567  0.16814  1.0000
  H   H1334     1.0  0.95577  0.72267  0.20144  1.0000
  H   H1335     1.0  0.67157  0.71488  0.13383  1.0000
  Fe  Fe174     1.0  0.98100  0.76375  0.06511  1.0000
  C   C832      1.0  0.89722  0.70586  0.05921  1.0000
  C   C833      1.0  0.68714  0.93171  0.03440  1.0000
  H   H1336     1.0  0.76677  0.76829  0.01377  1.0000
  H   H1337     1.0  0.77991  0.68875  0.15689  1.0000
  S   S337      1.0  0.96770  0.79792  0.06986  1.0000
  C   C834      1.0  0.68126  0.66827  0.10369  1.0000
  N   N83       1.0  0.95300  0.70105  0.18098  1.0000
  H   H1338     1.0  0.95827  0.72190  0.16104  1.0000
  H   H1339     1.0  0.66677  0.91634  0.03033  1.0000
  H   H1340     1.0  0.70413  0.89960  0.04992  1.0000
  C   C835      1.0  0.96214  0.70712  0.19647  1.0000
  H   H1341     1.0  0.69840  0.70028  0.03098  1.0000
  H   H1342     1.0  0.75266  0.93767  0.03465  1.0000
  S   S338      1.0  0.72262  0.99498  0.05619  1.0000
  H   H1343     1.0  0.98759  0.73483  0.17348  1.0000
  H   H1344     1.0  0.73560  0.94918  0.04793  1.0000
  H   H1345     1.0  0.84517  0.69529  0.06509  1.0000
  C   C836      1.0  0.66644  0.67373  0.12789  1.0000
  H   H1346     1.0  0.74078  0.69681  0.16669  1.0000
  C   C837      1.0  0.72707  0.67650  0.16165  1.0000
  C   C838      1.0  0.74214  0.69097  0.13775  1.0000
  H   H1347     1.0  0.95499  0.67491  0.16331  1.0000
  C   C839      1.0  0.75441  0.76619  0.00395  1.0000
  C   C840      1.0  0.70918  0.91883  0.01493  1.0000
  C   C841      1.0  0.76482  0.66874  0.15216  1.0000
  H   H1348     1.0  0.70038  0.72154  0.04660  1.0000
  C   C842      1.0  0.68581  0.71300  0.11232  1.0000
  H   H1349     1.0  0.66212  0.73108  0.03733  1.0000
  H   H1350     1.0  0.68945  0.90282  0.01048  1.0000
  H   H1351     1.0  0.98451  0.68778  0.17556  1.0000
  H   H1352     1.0  0.72578  0.91265  0.01186  1.0000
  H   H1353     1.0  0.68448  0.88039  0.03412  1.0000
  H   H1354     1.0  0.66068  0.71094  0.02128  1.0000
  H   H1355     1.0  0.66033  0.71174  0.06160  1.0000
  N   N84       1.0  0.66035  0.69100  0.04122  1.0000
  Fe  Fe175     1.0  0.75158  0.77144  0.43849  1.0000
  S   S339      1.0  0.77437  0.81709  0.43869  1.0000
  S   S340      1.0  0.73741  0.74481  0.45791  1.0000
  Fe  Fe176     1.0  0.75626  0.76411  0.40548  1.0000
  S   S341      1.0  0.78039  0.80946  0.40323  1.0000
  S   S342      1.0  0.75041  0.73271  0.38675  1.0000
  Fe  Fe177     1.0  0.80285  0.80846  0.42400  1.0000
  S   S343      1.0  0.84785  0.83058  0.42984  1.0000
  Fe  Fe178     1.0  0.75019  0.81484  0.41799  1.0000
  S   S344      1.0  0.72739  0.84156  0.41334  1.0000
  S   S345      1.0  0.78174  0.76298  0.42510  1.0000
  S   S346      1.0  0.72450  0.76941  0.41892  1.0000
  S   S347      1.0  0.78128  0.97045  0.40527  1.0000
  H   H1356     1.0  0.75752  0.85267  0.36788  1.0000
  C   C843      1.0  0.73700  0.69149  0.42356  1.0000
  Fe  Fe179     1.0  0.96671  0.81165  0.39914  1.0000
  S   S348      1.0  0.93354  0.81976  0.38741  1.0000
  S   S349      1.0  0.95221  0.76947  0.40741  1.0000
  H   H1357     1.0  0.69693  0.67329  0.44225  1.0000
  C   C844      1.0  0.96495  0.68832  0.36337  1.0000
  C   C845      1.0  0.96084  0.72236  0.34208  1.0000
  N   N85       1.0  0.86997  0.67303  0.34893  1.0000
  S   S350      1.0  0.98726  0.72935  0.38479  1.0000
  C   C846      1.0  0.67540  0.68652  0.36682  1.0000
  C   C847      1.0  0.97291  0.71633  0.36703  1.0000
  C   C848      1.0  0.87130  0.82887  0.41739  1.0000
  C   C849      1.0  0.89926  0.84155  0.42127  1.0000
  C   C850      1.0  0.91842  0.83858  0.41218  1.0000
  C   C851      1.0  0.90978  0.82374  0.39888  1.0000
  C   C852      1.0  0.88186  0.81179  0.39476  1.0000
  C   C853      1.0  0.86258  0.81399  0.40410  1.0000
  H   H1358     1.0  0.90614  0.85343  0.43144  1.0000
  H   H1359     1.0  0.93994  0.84814  0.41533  1.0000
  H   H1360     1.0  0.87515  0.80042  0.38444  1.0000
  H   H1361     1.0  0.84106  0.80422  0.40101  1.0000
  C   C854      1.0  0.74333  0.87764  0.41205  1.0000
  C   C855      1.0  0.72734  0.89282  0.41297  1.0000
  C   C856      1.0  0.73888  0.92133  0.41132  1.0000
  C   C857      1.0  0.76644  0.93488  0.40837  1.0000
  C   C858      1.0  0.78244  0.91968  0.40737  1.0000
  C   C859      1.0  0.77104  0.89125  0.40937  1.0000
  H   H1362     1.0  0.70589  0.88249  0.41501  1.0000
  H   H1363     1.0  0.72630  0.93270  0.41207  1.0000
  H   H1364     1.0  0.80376  0.92994  0.40507  1.0000
  H   H1365     1.0  0.78360  0.87985  0.40862  1.0000
  C   C860      1.0  0.72330  0.70945  0.37499  1.0000
  N   N86       1.0  0.88137  0.76789  0.44246  1.0000
  H   H1366     1.0  0.66533  0.96302  0.43257  1.0000
  H   H1367     1.0  0.85012  0.77881  0.43334  1.0000
  C   C861      1.0  0.95237  0.69423  0.33850  1.0000
  C   C862      1.0  0.69619  0.70611  0.37602  1.0000
  Fe  Fe180     1.0  0.98865  0.76782  0.39700  1.0000
  C   C863      1.0  0.75249  0.83475  0.37479  1.0000
  H   H1368     1.0  0.69116  0.71847  0.38390  1.0000
  H   H1369     1.0  0.72872  0.82026  0.34802  1.0000
  C   C864      1.0  0.74451  0.78800  0.47737  1.0000
  C   C865      1.0  0.73940  0.76030  0.47549  1.0000
  C   C866      1.0  0.73531  0.74449  0.48783  1.0000
  H   H1370     1.0  0.69898  0.71132  0.42744  1.0000
  H   H1371     1.0  0.74757  0.80041  0.46802  1.0000
  H   H1372     1.0  0.73126  0.72302  0.48651  1.0000
  H   H1373     1.0  0.87390  0.74386  0.46137  1.0000
  H   H1374     1.0  0.88687  0.79361  0.46175  1.0000
  H   H1375     1.0  0.69874  0.77337  0.37770  1.0000
  N   N87       1.0  0.72509  0.81321  0.37083  1.0000
  C   C867      1.0  0.70446  0.82465  0.37253  1.0000
  C   C868      1.0  0.71918  0.79009  0.38043  1.0000
  H   H1376     1.0  0.66137  0.98713  0.41066  1.0000
  C   C869      1.0  0.72422  0.80335  0.35560  1.0000
  C   C870      1.0  0.69613  0.69789  0.41749  1.0000
  H   H1377     1.0  0.90936  0.70661  0.35094  1.0000
  H   H1378     1.0  0.70380  0.78709  0.35225  1.0000
  H   H1379     1.0  0.97683  0.75491  0.35887  1.0000
  H   H1380     1.0  0.67391  0.68806  0.41446  1.0000
  C   C871      1.0  0.97060  0.73329  0.35630  1.0000
  H   H1381     1.0  0.84142  0.99104  0.41971  1.0000
  H   H1382     1.0  0.75388  0.84253  0.38626  1.0000
  C   C872      1.0  0.88924  0.69932  0.35595  1.0000
  C   C873      1.0  0.97865  0.78650  0.49270  1.0000
  H   H1383     1.0  0.70636  0.71124  0.40855  1.0000
  H   H1384     1.0  0.70475  0.83236  0.38393  1.0000
  H   H1385     1.0  0.84103  0.74276  0.43354  1.0000
  H   H1386     1.0  0.71939  0.79681  0.39199  1.0000
  H   H1387     1.0  0.70829  0.84221  0.36548  1.0000
  H   H1388     1.0  0.84201  0.76203  0.45010  1.0000
  C   C874      1.0  0.85233  0.76253  0.43977  1.0000
  H   H1389     1.0  0.76866  0.82695  0.37361  1.0000
  H   H1390     1.0  0.91650  0.77465  0.43003  1.0000
  H   H1391     1.0  0.88161  0.71566  0.35489  1.0000
  H   H1392     1.0  0.88508  0.74961  0.42195  1.0000
  H   H1393     1.0  0.73948  0.79443  0.35404  1.0000
  H   H1394     1.0  0.68348  0.80897  0.36977  1.0000
  H   H1395     1.0  0.89226  0.78530  0.42170  1.0000
  H   H1396     1.0  0.94286  0.77495  0.47833  1.0000
  C   C875      1.0  0.96479  0.78185  0.47898  1.0000
  H   H1397     1.0  0.91768  0.79939  0.45262  1.0000
  H   H1398     1.0  0.89344  0.81131  0.44522  1.0000
  S   S351      1.0  0.96061  0.77892  0.44914  1.0000
  C   C876      1.0  0.88345  0.74556  0.45072  1.0000
  C   C877      1.0  0.89430  0.76935  0.42843  1.0000
  N   N88       1.0  0.70742  0.67734  0.41989  1.0000
  H   H1399     1.0  0.87342  0.72546  0.44460  1.0000
  H   H1400     1.0  0.85838  0.69237  0.33144  1.0000
  H   H1401     1.0  0.90515  0.74912  0.45297  1.0000
  H   H1402     1.0  0.75009  0.69549  0.36364  1.0000
  H   H1403     1.0  0.74115  0.70531  0.43349  1.0000
  C   C878      1.0  0.89544  0.79418  0.45090  1.0000
  Fe  Fe181     1.0  0.97953  0.79004  0.42716  1.0000
  C   C879      1.0  0.70877  0.99186  0.48707  1.0000
  C   C880      1.0  0.72924  0.69316  0.36456  1.0000
  S   S352      1.0  0.93922  0.68141  0.32051  1.0000
  H   H1404     1.0  0.95949  0.73575  0.33383  1.0000
  H   H1405     1.0  0.74796  0.70425  0.41456  1.0000
  C   C881      1.0  0.74498  0.79960  0.49133  1.0000
  H   H1406     1.0  0.73447  0.78104  0.37956  1.0000
  H   H1407     1.0  0.69749  0.96993  0.48558  1.0000
  C   C882      1.0  0.95449  0.67727  0.34927  1.0000
  S   S353      1.0  0.71674  0.98824  0.41591  1.0000
  H   H1408     1.0  0.74855  0.82097  0.49256  1.0000
  H   H1409     1.0  0.89295  0.69741  0.36772  1.0000
  C   C883      1.0  0.86642  0.67656  0.33328  1.0000
  C   C884      1.0  0.70849  0.67375  0.35528  1.0000
  C   C885      1.0  0.97910  0.78593  0.46613  1.0000
  C   C886      1.0  0.68135  0.67020  0.35637  1.0000
  H   H1410     1.0  0.71344  0.67197  0.39726  1.0000
  H   H1411     1.0  0.88613  0.68294  0.32780  1.0000
  S   S354      1.0  0.70813  0.99173  0.45722  1.0000
  H   H1412     1.0  0.74625  0.67669  0.42562  1.0000
  H   H1413     1.0  0.96697  0.67507  0.37151  1.0000
  H   H1414     1.0  0.83448  0.67956  0.35455  1.0000
  S   S355      1.0  0.99178  0.83265  0.41945  1.0000
  C   C887      1.0  0.84333  0.66417  0.35569  1.0000
  H   H1415     1.0  0.94280  0.69744  0.60290  1.0000
  H   H1416     1.0  0.73271  0.74380  0.51124  1.0000
  Fe  Fe182     1.0  0.96311  0.79030  0.55415  1.0000
  S   S356      1.0  0.91678  0.76745  0.55483  1.0000
  H   H1417     1.0  0.66756  0.70899  0.64670  1.0000
  Fe  Fe183     1.0  0.73976  0.82030  0.57225  1.0000
  S   S357      1.0  0.70807  0.78472  0.55946  1.0000
  S   S358      1.0  0.72517  0.85240  0.57972  1.0000
  Fe  Fe184     1.0  0.78309  0.79669  0.56968  1.0000
  S   S359      1.0  0.75390  0.75902  0.55687  1.0000
  S   S360      1.0  0.82941  0.81354  0.57333  1.0000
  Fe  Fe185     1.0  0.74124  0.78791  0.54438  1.0000
  S   S361      1.0  0.74127  0.79998  0.52083  1.0000
  Fe  Fe186     1.0  0.72296  0.75924  0.57328  1.0000
  S   S362      1.0  0.69195  0.72119  0.58351  1.0000
  S   S363      1.0  0.77182  0.82531  0.55651  1.0000
  S   S364      1.0  0.75329  0.79496  0.58684  1.0000
  H   H1418     1.0  0.68638  0.83112  0.55465  1.0000
  C   C888      1.0  0.67768  0.70216  0.65552  1.0000
  C   C889      1.0  0.94154  0.71018  0.56709  1.0000
  S   S365      1.0  0.78294  0.97367  0.55933  1.0000
  H   H1419     1.0  0.69219  0.86636  0.55384  1.0000
  H   H1420     1.0  0.93127  0.68866  0.56268  1.0000
  H   H1421     1.0  0.89497  0.68186  0.58006  1.0000
  C   C890      1.0  0.74208  0.88630  0.57449  1.0000
  C   C891      1.0  0.72921  0.90428  0.57609  1.0000
  C   C892      1.0  0.74156  0.93112  0.57141  1.0000
  C   C893      1.0  0.76700  0.94016  0.56526  1.0000
  C   C894      1.0  0.78003  0.92230  0.56379  1.0000
  C   C895      1.0  0.76759  0.89539  0.56840  1.0000
  H   H1422     1.0  0.70954  0.89738  0.58088  1.0000
  H   H1423     1.0  0.73145  0.94484  0.57264  1.0000
  H   H1424     1.0  0.79977  0.92927  0.55909  1.0000
  H   H1425     1.0  0.77777  0.88174  0.56729  1.0000
  C   C896      1.0  0.82272  0.83486  0.53043  1.0000
  H   H1426     1.0  0.83717  0.85345  0.52534  1.0000
  H   H1427     1.0  0.94651  0.74440  0.59946  1.0000
  H   H1428     1.0  0.69052  0.76480  0.60319  1.0000
  C   C897      1.0  0.89284  0.78076  0.55992  1.0000
  C   C898      1.0  0.86480  0.76365  0.55841  1.0000
  C   C899      1.0  0.84505  0.77319  0.56254  1.0000
  C   C900      1.0  0.85320  0.79998  0.56831  1.0000
  C   C901      1.0  0.88122  0.81706  0.56980  1.0000
  C   C902      1.0  0.90096  0.80757  0.56558  1.0000
  H   H1429     1.0  0.85833  0.74282  0.55410  1.0000
  H   H1430     1.0  0.82359  0.75973  0.56146  1.0000
  H   H1431     1.0  0.88773  0.83781  0.57426  1.0000
  H   H1432     1.0  0.92244  0.82093  0.56685  1.0000
  C   C903      1.0  0.73614  0.75623  0.50187  1.0000
  C   C904      1.0  0.72792  0.85707  0.53747  1.0000
  H   H1433     1.0  0.96380  0.71707  0.56555  1.0000
  H   H1434     1.0  0.93419  0.72287  0.56028  1.0000
  C   C905      1.0  0.68400  0.84643  0.54746  1.0000
  H   H1435     1.0  0.96742  0.78321  0.50250  1.0000
  H   H1436     1.0  0.82096  0.78728  0.50467  1.0000
  H   H1437     1.0  0.89828  0.71622  0.57759  1.0000
  H   H1438     1.0  0.69705  0.70452  0.68314  1.0000
  H   H1439     1.0  0.73715  0.87820  0.54251  1.0000
  H   H1440     1.0  0.73147  0.84339  0.54532  1.0000
  H   H1441     1.0  0.85898  0.81644  0.54013  1.0000
  H   H1442     1.0  0.70231  0.88912  0.53032  1.0000
  C   C906      1.0  0.69450  0.86849  0.52464  1.0000
  H   H1443     1.0  0.97255  0.74920  0.58681  1.0000
  H   H1444     1.0  0.79847  0.80429  0.50631  1.0000
  C   C907      1.0  0.67514  0.74547  0.60628  1.0000
  N   N89       1.0  0.66217  0.69733  0.66887  1.0000
  S   S366      1.0  0.98114  0.76254  0.54447  1.0000
  H   H1445     1.0  0.80169  0.83342  0.52811  1.0000
  H   H1446     1.0  0.80932  0.78859  0.54414  1.0000
  H   H1447     1.0  0.68056  0.73973  0.67633  1.0000
  C   C908      1.0  0.80601  0.78594  0.53213  1.0000
  N   N90       1.0  0.69849  0.84827  0.53391  1.0000
  H   H1448     1.0  0.90142  0.70535  0.59553  1.0000
  H   H1449     1.0  0.93614  0.67378  0.58748  1.0000
  H   H1450     1.0  0.70552  0.87062  0.51442  1.0000
  H   H1451     1.0  0.78455  0.78283  0.52952  1.0000
  H   H1452     1.0  0.67929  0.68322  0.65127  1.0000
  N   N91       1.0  0.82550  0.80992  0.52497  1.0000
  C   C909      1.0  0.67621  0.68857  0.68036  1.0000
  S   S367      1.0  0.99192  0.80238  0.57394  1.0000
  H   H1453     1.0  0.96869  0.70235  0.59012  1.0000
  H   H1454     1.0  0.69812  0.82178  0.51578  1.0000
  C   C910      1.0  0.90634  0.70356  0.58402  1.0000
  C   C911      1.0  0.66858  0.98590  0.62687  1.0000
  H   H1455     1.0  0.85626  0.79379  0.52490  1.0000
  C   C912      1.0  0.94628  0.69576  0.59115  1.0000
  H   H1456     1.0  0.67253  0.86243  0.52163  1.0000
  H   H1457     1.0  0.82688  0.83809  0.54243  1.0000
  N   N92       1.0  0.93603  0.71273  0.58253  1.0000
  H   H1458     1.0  0.80805  0.76679  0.52872  1.0000
  H   H1459     1.0  0.69087  0.80559  0.53270  1.0000
  H   H1460     1.0  0.69869  0.71836  0.65742  1.0000
  C   C913      1.0  0.68765  0.82116  0.52609  1.0000
  H   H1461     1.0  0.67820  0.66937  0.67693  1.0000
  C   C914      1.0  0.85363  0.81268  0.52828  1.0000
  H   H1462     1.0  0.83385  0.82383  0.50330  1.0000
  C   C915      1.0  0.95010  0.74162  0.58783  1.0000
  C   C916      1.0  0.81951  0.80618  0.50911  1.0000
  C   C917      1.0  0.74067  0.78382  0.50364  1.0000
  H   H1463     1.0  0.66541  0.81361  0.52338  1.0000
  H   H1464     1.0  0.73931  0.85670  0.52765  1.0000
  H   H1465     1.0  0.94285  0.75502  0.58155  1.0000
  H   H1466     1.0  0.86888  0.83013  0.52275  1.0000
  C   C918      1.0  0.67154  0.72131  0.59846  1.0000
  S   S368      1.0  0.67004  0.99157  0.58256  1.0000
  S   S369      1.0  0.71692  0.99003  0.55146  1.0000
  H   H1467     1.0  0.66465  0.68449  0.69049  1.0000
  H   H1468     1.0  0.66178  0.84026  0.54525  1.0000
  H   H1469     1.0  0.70730  0.99181  0.51051  1.0000
  S   S370      1.0  0.98924  0.82647  0.54144  1.0000
  H   H1470     1.0  0.68304  0.99293  0.63610  1.0000
  C   C919      1.0  0.67804  0.99198  0.61273  1.0000
  H   H1471     1.0  0.66212  0.76356  0.62412  1.0000
  H   H1472     1.0  0.83701  0.99662  0.57886  1.0000
  C   C920      1.0  0.66010  0.72289  0.67386  1.0000
  C   C921      1.0  0.65964  0.98351  0.60065  1.0000
  H   H1473     1.0  0.87716  0.82069  0.89197  1.0000
  H   H1474     1.0  0.85947  0.74116  0.92232  1.0000
  Fe  Fe187     1.0  0.96102  0.78432  0.91138  1.0000
  S   S371      1.0  0.91552  0.76089  0.91475  1.0000
  H   H1475     1.0  0.71536  0.69929  0.86741  1.0000
  Fe  Fe188     1.0  0.78064  0.78763  0.91006  1.0000
  S   S372      1.0  0.75673  0.74536  0.91738  1.0000
  S   S373      1.0  0.82053  0.79953  0.89862  1.0000
  Fe  Fe189     1.0  0.73813  0.80778  0.92061  1.0000
  S   S374      1.0  0.71149  0.76653  0.92855  1.0000
  S   S375      1.0  0.72114  0.83936  0.92513  1.0000
  Fe  Fe190     1.0  0.75063  0.76641  0.93773  1.0000
  S   S376      1.0  0.76284  0.75853  0.96050  1.0000
  Fe  Fe191     1.0  0.71998  0.75005  0.90731  1.0000
  S   S377      1.0  0.68710  0.71517  0.89339  1.0000
  S   S378      1.0  0.77686  0.80855  0.93081  1.0000
  S   S379      1.0  0.74428  0.79147  0.89893  1.0000
  H   H1476     1.0  0.74045  0.70552  0.89096  1.0000
  S   S380      1.0  0.78978  0.96432  0.91380  1.0000
  H   H1477     1.0  0.75546  0.98036  0.87204  1.0000
  H   H1478     1.0  0.77103  0.95986  0.86377  1.0000
  H   H1479     1.0  0.71058  0.94907  0.86107  1.0000
  H   H1480     1.0  0.77510  0.96722  0.88303  1.0000
  C   C922      1.0  0.73477  0.70352  0.86190  1.0000
  C   C923      1.0  0.74891  0.76125  0.97737  1.0000
  H   H1481     1.0  0.80235  0.74126  0.87027  1.0000
  C   C924      1.0  0.72255  0.76014  0.97826  1.0000
  C   C925      1.0  0.75934  0.70945  0.88501  1.0000
  N   N93       1.0  0.75866  0.72206  0.87106  1.0000
  H   H1482     1.0  0.71000  0.75737  0.96843  1.0000
  C   C926      1.0  0.74044  0.87399  0.92193  1.0000
  C   C927      1.0  0.72943  0.89315  0.92495  1.0000
  C   C928      1.0  0.74452  0.92106  0.92276  1.0000
  C   C929      1.0  0.77071  0.92986  0.91752  1.0000
  C   C930      1.0  0.78181  0.91070  0.91464  1.0000
  C   C931      1.0  0.76670  0.88280  0.91681  1.0000
  H   H1483     1.0  0.70915  0.88640  0.92901  1.0000
  H   H1484     1.0  0.73593  0.93574  0.92514  1.0000
  H   H1485     1.0  0.80210  0.91746  0.91059  1.0000
  H   H1486     1.0  0.77537  0.86814  0.91451  1.0000
  H   H1487     1.0  0.73758  0.74523  0.87957  1.0000
  H   H1488     1.0  0.77376  0.85521  0.94579  1.0000
  C   C932      1.0  0.68171  0.73847  0.86741  1.0000
  H   H1489     1.0  0.75293  0.90993  0.86796  1.0000
  H   H1490     1.0  0.78423  0.73660  0.85301  1.0000
  H   H1491     1.0  0.69919  0.75662  0.87130  1.0000
  H   H1492     1.0  0.82234  0.75620  0.91670  1.0000
  H   H1493     1.0  0.95858  0.78566  0.97765  1.0000
  C   C933      1.0  0.75644  0.74835  0.87386  1.0000
  C   C934      1.0  0.88979  0.77284  0.91069  1.0000
  C   C935      1.0  0.89464  0.79544  0.90224  1.0000
  C   C936      1.0  0.87331  0.80350  0.89875  1.0000
  C   C937      1.0  0.84709  0.78951  0.90395  1.0000
  C   C938      1.0  0.84239  0.76724  0.91266  1.0000
  C   C939      1.0  0.86355  0.75880  0.91587  1.0000
  H   H1494     1.0  0.91466  0.80640  0.89813  1.0000
  H   H1495     1.0  0.75571  0.75849  0.86362  1.0000
  N   N94       1.0  0.75792  0.84579  0.96701  1.0000
  C   C940      1.0  0.77032  0.86551  0.95570  1.0000
  C   C941      1.0  0.73177  0.82426  0.96119  1.0000
  C   C942      1.0  0.75288  0.86028  0.97971  1.0000
  C   C943      1.0  0.77659  0.83309  0.97149  1.0000
  H   H1496     1.0  0.79034  0.88182  0.95955  1.0000
  H   H1497     1.0  0.75684  0.87565  0.95221  1.0000
  S   S381      1.0  0.98432  0.79043  0.89091  1.0000
  H   H1498     1.0  0.72139  0.80951  0.96954  1.0000
  H   H1499     1.0  0.71752  0.83313  0.95715  1.0000
  H   H1500     1.0  0.73491  0.81234  0.95187  1.0000
  H   H1501     1.0  0.74357  0.84596  0.98847  1.0000
  H   H1502     1.0  0.73873  0.86994  0.97669  1.0000
  H   H1503     1.0  0.77220  0.87673  0.98435  1.0000
  H   H1504     1.0  0.76816  0.81875  0.98033  1.0000
  H   H1505     1.0  0.78663  0.70772  0.86139  1.0000
  S   S382      1.0  0.98960  0.77011  0.92370  1.0000
  N   N95       1.0  0.73546  0.93733  0.87560  1.0000
  C   C944      1.0  0.76035  0.96226  0.87349  1.0000
  C   C945      1.0  0.74298  0.91396  0.87762  1.0000
  C   C946      1.0  0.71648  0.93164  0.86277  1.0000
  C   C947      1.0  0.72207  0.94160  0.88860  1.0000
  S   S383      1.0  0.98278  0.82803  0.91953  1.0000
  C   C948      1.0  0.66975  0.73735  0.85341  1.0000
  H   H1506     1.0  0.72482  0.89488  0.87958  1.0000
  H   H1507     1.0  0.72585  0.92837  0.85270  1.0000
  H   H1508     1.0  0.73325  0.71259  0.85139  1.0000
  H   H1509     1.0  0.75760  0.91801  0.88714  1.0000
  H   H1510     1.0  0.77409  0.76288  0.88077  1.0000
  H   H1511     1.0  0.69144  0.76015  0.99250  1.0000
  S   S384      1.0  0.72913  0.99161  0.91582  1.0000
  C   C949      1.0  0.71207  0.76163  0.99193  1.0000
  C   C950      1.0  0.93626  0.77737  0.97498  1.0000
  C   C951      1.0  0.90050  0.76172  0.95600  1.0000
  H   H1512     1.0  0.77710  0.72300  0.89221  1.0000
  H   H1513     1.0  0.73575  0.68348  0.85947  1.0000
  H   H1514     1.0  0.69735  0.91311  0.86405  1.0000
  H   H1515     1.0  0.67834  0.75469  0.84664  1.0000
  C   C952      1.0  0.94119  0.75363  0.95334  1.0000
  N   N96       1.0  0.93032  0.77304  0.95912  1.0000
  H   H1516     1.0  0.71518  0.95840  0.88725  1.0000
  H   H1517     1.0  0.70387  0.92287  0.89096  1.0000
  H   H1518     1.0  0.96373  0.76177  0.95524  1.0000
  H   H1519     1.0  0.93676  0.74960  0.94142  1.0000
  C   C953      1.0  0.94337  0.79943  0.95211  1.0000
  C   C954      1.0  0.78407  0.72707  0.86357  1.0000
  H   H1520     1.0  0.93208  0.73358  0.95850  1.0000
  H   H1521     1.0  0.73628  0.94727  0.89834  1.0000
  H   H1522     1.0  0.76097  0.68951  0.88335  1.0000
  C   C955      1.0  0.67133  0.71595  0.87617  1.0000
  H   H1523     1.0  0.92665  0.75790  0.98064  1.0000
  H   H1524     1.0  0.72710  0.97467  0.98593  1.0000
  H   H1525     1.0  0.92861  0.79212  0.97973  1.0000
  H   H1526     1.0  0.88992  0.74176  0.96108  1.0000
  H   H1527     1.0  0.93893  0.79688  0.94015  1.0000
  H   H1528     1.0  0.93593  0.81472  0.95630  1.0000
  H   H1529     1.0  0.89544  0.75819  0.94410  1.0000
  H   H1530     1.0  0.89161  0.77592  0.96010  1.0000
  H   H1531     1.0  0.96594  0.80837  0.95397  1.0000
  C   C956      1.0  0.76475  0.76431  0.99028  1.0000
  H   H1532     1.0  0.78513  0.76508  0.98971  1.0000
  H   H1533     1.0  0.78000  0.82097  0.96234  1.0000
  H   H1534     1.0  0.79689  0.84872  0.97548  1.0000
  C   C957      1.0  0.67901  0.98248  0.85258  1.0000
  H   H1535     1.0  0.69548  0.98115  0.84663  1.0000
  H   H1536     1.0  0.73066  0.99262  0.96122  1.0000
  C   C958      1.0  0.68441  0.99426  0.86684  1.0000
  C   C959      1.0  0.66287  0.99610  0.87428  1.0000
  C   C960      1.0  0.72965  0.99556  0.98465  1.0000
  Fe  Fe192     1.0  0.77273  0.99655  0.91526  1.0000
