data_image0
_chemical_formula_structural       H2CH2SHSCH4CHCH3NCH3C2H2CHS2FeCSH3CH2SHCH2CHNHC2HCH2CHSFeCSHCSH2CHSHCHFeHNH3C3SHSFeC2SCHFeH4CH4CHSFeH3NCH2CH4CHCH4NCH2CHC4H2S3FeCH2CFeCHSCHCSNHC2H3CS2FeCH6C2H2SH2CSCNH3CHC2H4FeSCS2CFeCH2CFeCFeSH4CNCH7CHFe2SH5SC2H2CHCSHFeCFeHFeHS2H2CHFeCHCHNH2CHCH2CSH4SC5HCSH3C2HNH3CHFeSFeS2C2HFeSFeCS2HCH3CHCH2CH2CH2C2H2C2SCNH2CSCHCSCHC2H5FeCHSC6H4CH4CNHSCFeSFeSCS2FeHFeSNHCHSHCHCH3CH8C2HC3HCHSH2NCH5CH2CHCS2CH2C2H2C2HCHCHFeSHCHSH3SHCH2CH5CH3SFeSHCHSHCH3CHC2H2SH4CNH2CSCFeCHCHNC3HCH3SH4FeH3C3H2S2CHFe2H10NC4H2SH4SH2CHSHFeHSC2H3SH3FeHCHCHCSHCNCFeCSC2HCSH3C2HCHCH3C2HCNH3NHCSH2C4HCH5NCH2SFeH2C2HC2H5CFeCHCH2S2C2HSCFeSCFeCSH3C3HSH3C2H3C5H2SH2CH2CNC6H2SCH2SHCH4FeC2H6SNH3CFeSCFeCFeS3HFeSC2HCHC2HNH7CHSCSHCH2C2HC2HSFeCFeSH5SCFeC2SCHSH2SC2HNH2SCH2CHCH3SFeH3CH3C2NH2CHC2SCFeHCHSFeHCSCHC3H2FeC3H2S2NH3SHCH2C2SH2SCHC2HCSH4CHCHSHFeSH2NCH3CHFeC2FeCHCHCHSHC3H6CH3SNC2HCH2SH3C2H7CSFeH5FeSC4SFeC2H2SFeH3C2HFeHS2CH2C2H2SNCHCHFeSCSHCHCHC3FeH2CH2CSH2FeSHCSH4CNH4C2HCSHC4H2C3H2CNH6
_chemical_formula_sum              "H512 C320 S128 N32 Fe64"
_cell_length_a       41.5769
_cell_length_b       40.1645
_cell_length_c       46.0648
_cell_angle_alpha    89.7324
_cell_angle_beta     90.2327
_cell_angle_gamma    114.047

_space_group_name_H-M_alt    "P 1"
_space_group_IT_number       1

loop_
  _space_group_symop_operation_xyz
  'x, y, z'

loop_
  _atom_site_type_symbol
  _atom_site_label
  _atom_site_symmetry_multiplicity
  _atom_site_fract_x
  _atom_site_fract_y
  _atom_site_fract_z
  _atom_site_occupancy
  H   H1        1.0  0.12998  0.18078  0.02470  1.0000
  H   H2        1.0  0.19191  0.19339  0.03779  1.0000
  C   C1        1.0  0.20024  0.21672  0.02232  1.0000
  H   H3        1.0  0.14140  0.22889  0.02123  1.0000
  H   H4        1.0  0.20267  0.24138  0.03475  1.0000
  S   S1        1.0  0.26857  0.00504  0.04930  1.0000
  H   H5        1.0  0.30650  0.17560  0.04776  1.0000
  S   S2        1.0  0.29409  0.10359  0.02950  1.0000
  C   C2        1.0  0.29713  0.17280  0.02559  1.0000
  H   H6        1.0  0.36075  0.14640  0.06020  1.0000
  H   H7        1.0  0.33368  0.01809  0.15190  1.0000
  H   H8        1.0  0.31683  0.09245  0.08496  1.0000
  H   H9        1.0  0.38327  0.16274  0.09396  1.0000
  C   C3        1.0  0.38136  0.14485  0.07508  1.0000
  H   H10       1.0  0.33882  0.10884  0.11891  1.0000
  C   C4        1.0  0.33833  0.09241  0.09943  1.0000
  H   H11       1.0  0.33079  0.06381  0.10665  1.0000
  H   H12       1.0  0.35086  0.08555  0.04273  1.0000
  H   H13       1.0  0.30062  0.22794  0.02324  1.0000
  N   N1        1.0  0.37266  0.10686  0.08434  1.0000
  C   C5        1.0  0.40587  0.00481  0.13103  1.0000
  H   H14       1.0  0.39627  0.09362  0.04706  1.0000
  H   H15       1.0  0.36266  0.05521  0.06442  1.0000
  H   H16       1.0  0.40682  0.15651  0.06319  1.0000
  C   C6        1.0  0.37060  0.08436  0.05854  1.0000
  C   C7        1.0  0.38375  0.01417  0.14886  1.0000
  H   H17       1.0  0.42666  0.11724  0.09371  1.0000
  H   H18       1.0  0.40190  0.12144  0.12440  1.0000
  C   C8        1.0  0.40028  0.10578  0.10418  1.0000
  H   H19       1.0  0.39497  0.07730  0.11073  1.0000
  S   S3        1.0  0.39692  0.03062  0.18429  1.0000
  S   S4        1.0  0.45930  0.03268  0.24815  1.0000
  Fe  Fe1       1.0  0.44537  0.02422  0.20079  1.0000
  C   C9        1.0  0.35106  0.01124  0.13809  1.0000
  S   S5        1.0  0.50137  0.05395  0.18584  1.0000
  H   H20       1.0  0.43110  0.00690  0.13911  1.0000
  H   H21       1.0  0.01475  0.44941  0.16717  1.0000
  H   H22       1.0  0.12580  0.45521  0.04385  1.0000
  C   C10       1.0  0.01832  0.41953  0.12923  1.0000
  H   H23       1.0  0.07178  0.28901  0.03022  1.0000
  H   H24       1.0  0.04671  0.43305  0.12811  1.0000
  S   S6        1.0  0.02361  0.38061  0.08212  1.0000
  H   H25       1.0  0.07253  0.35485  0.05280  1.0000
  C   C11       1.0  0.09741  0.36683  0.06561  1.0000
  H   H26       1.0  0.09000  0.37125  0.08802  1.0000
  H   H27       1.0  0.10130  0.43378  0.07593  1.0000
  C   C12       1.0  0.10753  0.42875  0.05330  1.0000
  H   H28       1.0  0.08235  0.41955  0.04094  1.0000
  N   N2        1.0  0.12256  0.40115  0.05243  1.0000
  H   H29       1.0  0.10861  0.34609  0.06705  1.0000
  C   C13       1.0  0.12935  0.39458  0.02196  1.0000
  C   C14       1.0  0.09646  0.29774  0.01861  1.0000
  H   H30       1.0  0.15173  0.41944  0.09209  1.0000
  C   C15       1.0  0.15598  0.41442  0.06896  1.0000
  H   H31       1.0  0.17562  0.44030  0.05965  1.0000
  H   H32       1.0  0.16799  0.39413  0.06864  1.0000
  C   C16       1.0  0.12735  0.30072  0.03321  1.0000
  H   H33       1.0  0.12632  0.29441  0.05614  1.0000
  S   S7        1.0  0.19795  0.31798  0.03841  1.0000
  Fe  Fe2       1.0  0.25170  0.32972  0.01870  1.0000
  C   C17       1.0  0.15961  0.31225  0.01846  1.0000
  S   S8        1.0  0.30105  0.38102  0.02472  1.0000
  H   H34       1.0  0.14249  0.37545  0.02063  1.0000
  C   C18       1.0  0.40451  0.48723  0.10988  1.0000
  S   S9        1.0  0.37114  0.35697  0.06930  1.0000
  H   H35       1.0  0.41946  0.37699  0.11661  1.0000
  H   H36       1.0  0.37719  0.43420  0.07009  1.0000
  C   C19       1.0  0.39676  0.38181  0.12316  1.0000
  H   H37       1.0  0.45746  0.47024  0.06155  1.0000
  S   S10       1.0  0.44617  0.47686  0.25051  1.0000
  H   H38       1.0  0.38400  0.49831  0.10915  1.0000
  C   C20       1.0  0.33823  0.39400  0.14047  1.0000
  H   H39       1.0  0.41938  0.40497  0.16438  1.0000
  Fe  Fe3       1.0  0.49743  0.48657  0.22807  1.0000
  H   H40       1.0  0.31557  0.39880  0.14714  1.0000
  N   N3        1.0  0.41872  0.48605  0.08072  1.0000
  H   H41       1.0  0.39229  0.45960  0.11965  1.0000
  H   H42       1.0  0.39966  0.46062  0.03935  1.0000
  H   H43       1.0  0.36892  0.47286  0.05921  1.0000
  C   C21       1.0  0.33839  0.37849  0.11313  1.0000
  C   C22       1.0  0.38990  0.46254  0.06148  1.0000
  C   C23       1.0  0.36783  0.40450  0.15878  1.0000
  S   S11       1.0  0.36889  0.42767  0.19141  1.0000
  H   H44       1.0  0.46748  0.48768  0.09797  1.0000
  S   S12       1.0  0.27749  0.29333  0.03445  1.0000
  Fe  Fe4       1.0  0.32757  0.34401  0.03600  1.0000
  C   C24       1.0  0.39691  0.39795  0.15013  1.0000
  C   C25       1.0  0.36788  0.37273  0.10434  1.0000
  S   S13       1.0  0.47209  0.47373  0.18388  1.0000
  C   C26       1.0  0.44575  0.47108  0.08305  1.0000
  H   H45       1.0  0.43431  0.44273  0.09167  1.0000
  Fe  Fe5       1.0  0.42249  0.46890  0.20554  1.0000
  H   H46       1.0  0.31590  0.37134  0.09880  1.0000
  H   H47       1.0  0.49579  0.32904  0.25459  1.0000
  H   H48       1.0  0.48744  0.26454  0.26394  1.0000
  H   H49       1.0  0.48968  0.07654  0.33290  1.0000
  C   C27       1.0  0.49697  0.05898  0.31805  1.0000
  H   H50       1.0  0.50234  0.04317  0.37395  1.0000
  H   H51       1.0  0.47256  0.03455  0.31273  1.0000
  H   H52       1.0  0.47290  0.26699  0.30031  1.0000
  H   H53       1.0  0.48031  0.33077  0.29071  1.0000
  C   C28       1.0  0.49653  0.27260  0.28660  1.0000
  H   H54       1.0  0.49094  0.22202  0.73705  1.0000
  S   S14       1.0  0.50220  0.09359  0.71978  1.0000
  Fe  Fe6       1.0  0.48827  0.05058  0.75608  1.0000
  H   H55       1.0  0.03563  0.46350  0.72930  1.0000
  H   H56       1.0  0.12977  0.47938  0.73346  1.0000
  H   H57       1.0  0.02192  0.43286  0.75980  1.0000
  N   N4        1.0  0.07764  0.45594  0.75166  1.0000
  C   C29       1.0  0.04080  0.44206  0.74134  1.0000
  H   H58       1.0  0.09722  0.44558  0.71106  1.0000
  H   H59       1.0  0.03443  0.41850  0.72645  1.0000
  C   C30       1.0  0.10169  0.46825  0.72651  1.0000
  H   H60       1.0  0.07807  0.40261  0.75331  1.0000
  H   H61       1.0  0.09770  0.49033  0.71425  1.0000
  H   H62       1.0  0.49952  0.27899  0.70937  1.0000
  H   H63       1.0  0.34237  0.48307  0.74686  1.0000
  C   C31       1.0  0.36284  0.48683  0.76366  1.0000
  H   H64       1.0  0.37061  0.46343  0.76217  1.0000
  C   C32       1.0  0.18757  0.24129  0.97795  1.0000
  H   H65       1.0  0.21330  0.24547  0.96807  1.0000
  H   H66       1.0  0.16864  0.23772  0.95988  1.0000
  H   H67       1.0  0.19913  0.18047  0.97345  1.0000
  H   H68       1.0  0.15442  0.17086  0.96340  1.0000
  N   N5        1.0  0.17516  0.20971  0.99793  1.0000
  C   C33       1.0  0.17286  0.17685  0.98214  1.0000
  H   H69       1.0  0.12054  0.19902  0.99155  1.0000
  H   H70       1.0  0.16372  0.15245  0.99656  1.0000
  C   C34       1.0  0.14017  0.20424  0.00935  1.0000
  H   H71       1.0  0.22698  0.22116  0.01440  1.0000
  C   C35       1.0  0.28869  0.13967  0.01093  1.0000
  C   C36       1.0  0.28179  0.19934  0.98308  1.0000
  C   C37       1.0  0.27654  0.13636  0.98228  1.0000
  C   C38       1.0  0.27306  0.16612  0.96844  1.0000
  H   H72       1.0  0.27006  0.11103  0.97076  1.0000
  H   H73       1.0  0.26391  0.16349  0.94621  1.0000
  S   S15       1.0  0.27680  0.23599  0.96506  1.0000
  S   S16       1.0  0.32696  0.03227  0.99644  1.0000
  S   S17       1.0  0.24281  0.00882  0.98229  1.0000
  Fe  Fe7       1.0  0.28327  0.04652  0.01314  1.0000
  C   C39       1.0  0.29372  0.20251  0.01176  1.0000
  H   H74       1.0  0.45495  0.02748  0.95723  1.0000
  H   H75       1.0  0.35125  0.04298  0.93215  1.0000
  C   C40       1.0  0.35604  0.03026  0.91298  1.0000
  Fe  Fe8       1.0  0.45025  0.03123  0.81437  1.0000
  C   C41       1.0  0.39347  0.03218  0.87169  1.0000
  H   H76       1.0  0.40615  0.07443  0.90391  1.0000
  S   S18       1.0  0.43306  0.05561  0.85248  1.0000
  C   C42       1.0  0.38709  0.04807  0.89689  1.0000
  H   H77       1.0  0.47858  0.06585  0.89983  1.0000
  C   C43       1.0  0.49727  0.05731  0.91181  1.0000
  S   S19       1.0  0.43053  0.02386  0.76837  1.0000
  N   N6        1.0  0.48074  0.01820  0.91964  1.0000
  H   H78       1.0  0.42913  0.01765  0.92455  1.0000
  C   C44       1.0  0.44873  0.01093  0.93702  1.0000
  C   C45       1.0  0.37862  0.49592  0.81440  1.0000
  H   H79       1.0  0.37856  0.48331  0.91384  1.0000
  H   H80       1.0  0.11225  0.49851  0.77946  1.0000
  H   H81       1.0  0.01269  0.38441  0.86218  1.0000
  C   C46       1.0  0.08461  0.48699  0.77139  1.0000
  S   S20       1.0  0.05920  0.30187  0.96980  1.0000
  S   S21       1.0  0.02775  0.37157  0.00132  1.0000
  Fe  Fe9       1.0  0.01530  0.31318  0.99083  1.0000
  C   C47       1.0  0.09747  0.30555  0.98894  1.0000
  H   H82       1.0  0.06527  0.41707  0.78655  1.0000
  H   H83       1.0  0.06696  0.47874  0.79069  1.0000
  H   H84       1.0  0.10447  0.38238  0.00917  1.0000
  H   H85       1.0  0.11073  0.43620  0.77576  1.0000
  H   H86       1.0  0.19123  0.26682  0.98951  1.0000
  H   H87       1.0  0.14676  0.42023  0.01087  1.0000
  C   C48       1.0  0.12950  0.31588  0.97397  1.0000
  C   C49       1.0  0.16056  0.31961  0.98870  1.0000
  H   H88       1.0  0.13042  0.32169  0.95094  1.0000
  H   H89       1.0  0.18524  0.32860  0.97708  1.0000
  S   S22       1.0  0.26184  0.32443  0.97155  1.0000
  H   H90       1.0  0.30946  0.45715  0.82254  1.0000
  H   H91       1.0  0.29768  0.45006  0.78471  1.0000
  C   C50       1.0  0.31965  0.45576  0.80045  1.0000
  S   S23       1.0  0.34271  0.33812  0.99004  1.0000
  C   C51       1.0  0.38465  0.39609  0.88412  1.0000
  N   N7        1.0  0.35018  0.48985  0.79307  1.0000
  H   H92       1.0  0.32696  0.43195  0.80036  1.0000
  H   H93       1.0  0.47533  0.48775  0.87409  1.0000
  H   H94       1.0  0.38604  0.37156  0.87580  1.0000
  C   C52       1.0  0.49608  0.50378  0.88986  1.0000
  H   H95       1.0  0.49871  0.43229  0.92784  1.0000
  C   C53       1.0  0.40036  0.46094  0.88056  1.0000
  C   C54       1.0  0.36496  0.39417  0.90932  1.0000
  H   H96       1.0  0.41406  0.48681  0.86976  1.0000
  H   H97       1.0  0.46548  0.43251  0.90288  1.0000
  H   H98       1.0  0.47378  0.45882  0.93552  1.0000
  H   H99       1.0  0.36985  0.49776  0.83690  1.0000
  Fe  Fe10      1.0  0.46070  0.48118  0.81328  1.0000
  S   S24       1.0  0.45058  0.49156  0.76682  1.0000
  C   C55       1.0  0.48674  0.44989  0.91793  1.0000
  S   S25       1.0  0.33693  0.42400  0.95094  1.0000
  S   S26       1.0  0.42640  0.43017  0.83789  1.0000
  C   C56       1.0  0.40228  0.42939  0.86958  1.0000
  Fe  Fe11      1.0  0.29007  0.29029  0.98758  1.0000
  C   C57       1.0  0.38033  0.45894  0.90559  1.0000
  H   H100      1.0  0.35128  0.36829  0.92024  1.0000
  H   H101      1.0  0.38773  0.47338  0.81405  1.0000
  C   C58       1.0  0.36248  0.42554  0.92001  1.0000
  Fe  Fe12      1.0  0.31353  0.37258  0.97845  1.0000
  C   C59       1.0  0.08326  0.42664  0.76746  1.0000
  Fe  Fe13      1.0  0.01855  0.51936  0.25459  1.0000
  S   S27       1.0  0.01296  0.52165  0.20582  1.0000
  H   H102      1.0  0.16465  0.55106  0.26480  1.0000
  H   H103      1.0  0.21165  0.54420  0.21718  1.0000
  H   H104      1.0  0.24914  0.58591  0.22491  1.0000
  H   H105      1.0  0.20551  0.58477  0.22610  1.0000
  C   C60       1.0  0.22141  0.56885  0.23121  1.0000
  N   N8        1.0  0.21887  0.55888  0.26231  1.0000
  C   C61       1.0  0.37754  0.68567  0.26290  1.0000
  H   H106      1.0  0.37090  0.68040  0.23949  1.0000
  H   H107      1.0  0.17106  0.51048  0.25717  1.0000
  H   H108      1.0  0.23073  0.51194  0.25604  1.0000
  H   H109      1.0  0.26846  0.55390  0.26212  1.0000
  H   H110      1.0  0.33181  0.55457  0.26321  1.0000
  H   H111      1.0  0.46055  0.68899  0.26068  1.0000
  H   H112      1.0  0.46049  0.75136  0.25556  1.0000
  C   C62       1.0  0.43479  0.52335  0.06854  1.0000
  H   H113      1.0  0.42763  0.67398  0.23254  1.0000
  Fe  Fe14      1.0  0.48441  0.53314  0.17978  1.0000
  Fe  Fe15      1.0  0.46019  0.53664  0.24190  1.0000
  S   S28       1.0  0.43286  0.52776  0.19868  1.0000
  H   H114      1.0  0.45668  0.54170  0.08258  1.0000
  H   H115      1.0  0.41518  0.53556  0.06668  1.0000
  H   H116      1.0  0.38587  0.54580  0.25072  1.0000
  H   H117      1.0  0.42603  0.73479  0.22871  1.0000
  H   H118      1.0  0.44587  0.52354  0.04657  1.0000
  S   S29       1.0  0.49945  0.55424  0.13392  1.0000
  C   C63       1.0  0.43144  0.73796  0.25244  1.0000
  C   C64       1.0  0.43172  0.67808  0.25636  1.0000
  H   H119      1.0  0.10063  0.88436  0.03486  1.0000
  H   H120      1.0  0.06428  0.82098  0.01868  1.0000
  C   C65       1.0  0.11301  0.86899  0.02378  1.0000
  H   H121      1.0  0.31562  0.99735  0.10119  1.0000
  C   C66       1.0  0.34088  0.99972  0.10938  1.0000
  S   S30       1.0  0.17385  0.93148  0.02832  1.0000
  H   H122      1.0  0.28756  0.90160  0.22349  1.0000
  Fe  Fe16      1.0  0.30964  0.98861  0.03077  1.0000
  C   C67       1.0  0.14945  0.88530  0.01839  1.0000
  Fe  Fe17      1.0  0.23127  0.96595  0.01710  1.0000
  H   H123      1.0  0.41206  0.81725  0.25354  1.0000
  Fe  Fe18      1.0  0.46325  0.97845  0.24619  1.0000
  H   H124      1.0  0.39284  0.91040  0.23298  1.0000
  S   S31       1.0  0.44556  0.96865  0.19975  1.0000
  S   S32       1.0  0.35294  0.97909  0.05463  1.0000
  H   H125      1.0  0.29606  0.86115  0.22462  1.0000
  H   H126      1.0  0.30909  0.89090  0.19352  1.0000
  C   C68       1.0  0.30704  0.89025  0.21766  1.0000
  H   H127      1.0  0.33687  0.96247  0.22654  1.0000
  Fe  Fe19      1.0  0.50276  0.99864  0.18788  1.0000
  C   C69       1.0  0.35525  0.94953  0.22131  1.0000
  H   H128      1.0  0.35937  0.95172  0.19735  1.0000
  C   C70       1.0  0.36656  0.89519  0.22294  1.0000
  H   H129      1.0  0.38101  0.96643  0.23161  1.0000
  N   N9        1.0  0.34165  0.91121  0.23130  1.0000
  H   H130      1.0  0.41324  0.98673  0.08855  1.0000
  H   H131      1.0  0.43934  0.88460  0.24822  1.0000
  C   C71       1.0  0.36347  0.99130  0.09131  1.0000
  H   H132      1.0  0.35734  0.86631  0.23025  1.0000
  C   C72       1.0  0.39574  0.99343  0.10236  1.0000
  H   H133      1.0  0.37040  0.89600  0.19899  1.0000
  H   H134      1.0  0.42029  0.75705  0.26072  1.0000
  C   C73       1.0  0.33791  0.90988  0.26324  1.0000
  S   S33       1.0  0.00371  0.71700  0.04293  1.0000
  H   H135      1.0  0.42556  0.50442  0.12509  1.0000
  H   H136      1.0  0.00962  0.58834  0.32342  1.0000
  H   H137      1.0  0.04218  0.57308  0.31144  1.0000
  H   H138      1.0  0.12408  0.53272  0.32008  1.0000
  S   S34       1.0  0.20117  0.66461  0.32376  1.0000
  C   C74       1.0  0.13964  0.62934  0.29304  1.0000
  C   C75       1.0  0.16444  0.62511  0.31193  1.0000
  C   C76       1.0  0.15866  0.59001  0.32151  1.0000
  C   C77       1.0  0.12848  0.55968  0.31225  1.0000
  C   C78       1.0  0.10414  0.56386  0.29282  1.0000
  H   H139      1.0  0.17707  0.58637  0.33651  1.0000
  C   C79       1.0  0.10985  0.59894  0.28333  1.0000
  S   S35       1.0  0.06711  0.52439  0.28139  1.0000
  H   H140      1.0  0.06576  0.56123  0.37229  1.0000
  H   H141      1.0  0.05730  0.53014  0.34261  1.0000
  H   H142      1.0  0.05151  0.60339  0.34171  1.0000
  C   C80       1.0  0.04469  0.53801  0.36107  1.0000
  C   C81       1.0  0.03043  0.57960  0.33108  1.0000
  H   H143      1.0  0.03481  0.51444  0.37633  1.0000
  N   N10       1.0  0.01594  0.54786  0.35086  1.0000
  H   H144      1.0  0.01852  0.58086  0.38815  1.0000
  H   H145      1.0  0.14367  0.65638  0.28565  1.0000
  H   H146      1.0  0.09141  0.60271  0.26842  1.0000
  C   C82       1.0  0.18172  0.53636  0.26970  1.0000
  H   H147      1.0  0.24039  0.53150  0.29182  1.0000
  Fe  Fe20      1.0  0.25571  0.67206  0.34053  1.0000
  S   S36       1.0  0.27101  0.63389  0.36761  1.0000
  Fe  Fe21      1.0  0.31104  0.68519  0.38853  1.0000
  S   S37       1.0  0.29315  0.72339  0.36329  1.0000
  S   S38       1.0  0.29487  0.67783  0.30568  1.0000
  C   C83       1.0  0.31309  0.68617  0.47247  1.0000
  C   C84       1.0  0.27694  0.67120  0.47838  1.0000
  H   H148      1.0  0.25832  0.66363  0.46056  1.0000
  Fe  Fe22      1.0  0.31255  0.64258  0.33346  1.0000
  S   S39       1.0  0.33045  0.69349  0.43630  1.0000
  Fe  Fe23      1.0  0.33358  0.72603  0.32971  1.0000
  C   C85       1.0  0.33673  0.69584  0.49615  1.0000
  S   S40       1.0  0.31621  0.59637  0.30700  1.0000
  S   S41       1.0  0.35373  0.69075  0.35570  1.0000
  H   H149      1.0  0.36476  0.70745  0.49191  1.0000
  C   C86       1.0  0.26477  0.66604  0.50741  1.0000
  H   H150      1.0  0.23672  0.65442  0.51151  1.0000
  H   H151      1.0  0.23097  0.58612  0.30367  1.0000
  H   H152      1.0  0.17872  0.52913  0.29319  1.0000
  C   C87       1.0  0.23199  0.59241  0.28002  1.0000
  H   H153      1.0  0.41220  0.72692  0.30826  1.0000
  C   C88       1.0  0.24043  0.53803  0.26827  1.0000
  H   H154      1.0  0.25992  0.60993  0.27480  1.0000
  H   H155      1.0  0.21631  0.60891  0.27639  1.0000
  C   C89       1.0  0.35515  0.58992  0.29961  1.0000
  H   H156      1.0  0.36501  0.65921  0.27462  1.0000
  H   H157      1.0  0.36488  0.70350  0.27091  1.0000
  C   C90       1.0  0.35537  0.56780  0.27611  1.0000
  H   H158      1.0  0.45219  0.72053  0.30369  1.0000
  H   H159      1.0  0.41167  0.68226  0.31143  1.0000
  C   C91       1.0  0.42341  0.70830  0.29913  1.0000
  C   C92       1.0  0.41673  0.57958  0.28541  1.0000
  H   H160      1.0  0.38559  0.62267  0.33493  1.0000
  H   H161      1.0  0.43991  0.61416  0.32220  1.0000
  C   C93       1.0  0.38570  0.60641  0.31631  1.0000
  C   C94       1.0  0.41635  0.60129  0.30920  1.0000
  S   S42       1.0  0.45650  0.57584  0.27616  1.0000
  C   C95       1.0  0.38599  0.56270  0.26898  1.0000
  N   N11       1.0  0.41605  0.70249  0.26770  1.0000
  H   H162      1.0  0.41967  0.65064  0.26660  1.0000
  H   H163      1.0  0.39436  0.89450  0.32975  1.0000
  C   C96       1.0  0.38767  0.81725  0.29479  1.0000
  S   S43       1.0  0.43790  0.94287  0.28578  1.0000
  C   C97       1.0  0.40798  0.83398  0.27021  1.0000
  H   H164      1.0  0.32856  0.88142  0.27163  1.0000
  C   C98       1.0  0.42342  0.87225  0.26706  1.0000
  S   S44       1.0  0.37003  0.76883  0.29770  1.0000
  C   C99       1.0  0.38264  0.83937  0.31609  1.0000
  H   H165      1.0  0.36715  0.82697  0.33513  1.0000
  C   C100      1.0  0.39817  0.87771  0.31297  1.0000
  C   C101      1.0  0.41871  0.89439  0.28850  1.0000
  H   H166      1.0  0.48617  0.00178  0.35307  1.0000
  H   H167      1.0  0.36358  0.92591  0.27409  1.0000
  H   H168      1.0  0.31897  0.92131  0.27039  1.0000
  H   H169      1.0  0.04436  0.68225  0.73762  1.0000
  H   H170      1.0  0.05860  0.61320  0.73374  1.0000
  Fe  Fe24      1.0  0.01053  0.52283  0.74437  1.0000
  C   C102      1.0  0.07186  0.68477  0.73474  1.0000
  H   H171      1.0  0.16295  0.61483  0.75570  1.0000
  S   S45       1.0  0.05076  0.53741  0.70745  1.0000
  C   C103      1.0  0.16985  0.61228  0.70958  1.0000
  C   C104      1.0  0.15004  0.60359  0.73538  1.0000
  C   C105      1.0  0.11371  0.58086  0.73513  1.0000
  C   C106      1.0  0.09663  0.56621  0.70900  1.0000
  C   C107      1.0  0.11655  0.57429  0.68326  1.0000
  C   C108      1.0  0.15291  0.59724  0.68349  1.0000
  H   H172      1.0  0.10372  0.56308  0.66290  1.0000
  H   H173      1.0  0.16770  0.60364  0.66344  1.0000
  H   H174      1.0  0.09902  0.57490  0.75518  1.0000
  H   H175      1.0  0.07372  0.67471  0.71258  1.0000
  C   C109      1.0  0.11781  0.66787  0.75267  1.0000
  H   H176      1.0  0.13695  0.69685  0.75413  1.0000
  H   H177      1.0  0.12105  0.65766  0.73089  1.0000
  H   H178      1.0  0.08966  0.71428  0.73556  1.0000
  H   H179      1.0  0.08021  0.50930  0.76014  1.0000
  C   C110      1.0  0.05697  0.62502  0.75524  1.0000
  N   N12       1.0  0.08124  0.66390  0.75724  1.0000
  H   H180      1.0  0.02917  0.62118  0.75857  1.0000
  S   S46       1.0  0.21508  0.64302  0.71140  1.0000
  C   C111      1.0  0.32459  0.69068  0.52516  1.0000
  Fe  Fe25      1.0  0.26043  0.66154  0.67840  1.0000
  S   S47       1.0  0.27096  0.62587  0.64569  1.0000
  Fe  Fe26      1.0  0.28875  0.67432  0.61526  1.0000
  S   S48       1.0  0.27104  0.66801  0.56726  1.0000
  C   C112      1.0  0.28839  0.67566  0.53106  1.0000
  S   S49       1.0  0.27360  0.70843  0.64681  1.0000
  S   S50       1.0  0.31563  0.68305  0.69754  1.0000
  Fe  Fe27      1.0  0.32916  0.72775  0.66388  1.0000
  H   H181      1.0  0.34337  0.69832  0.54279  1.0000
  Fe  Fe28      1.0  0.32658  0.64963  0.66297  1.0000
  S   S51       1.0  0.34465  0.69579  0.63068  1.0000
  N   N13       1.0  0.32773  0.59531  0.57180  1.0000
  H   H182      1.0  0.36500  0.63911  0.72374  1.0000
  C   C113      1.0  0.31672  0.59396  0.54109  1.0000
  H   H183      1.0  0.30091  0.56548  0.53394  1.0000
  S   S52       1.0  0.35526  0.61163  0.66404  1.0000
  H   H184      1.0  0.27953  0.55125  0.58505  1.0000
  C   C114      1.0  0.29618  0.58017  0.59046  1.0000
  H   H185      1.0  0.27948  0.59580  0.58791  1.0000
  C   C115      1.0  0.34900  0.63352  0.58007  1.0000
  H   H186      1.0  0.33330  0.65018  0.57823  1.0000
  H   H187      1.0  0.35843  0.63542  0.60295  1.0000
  H   H188      1.0  0.30361  0.58119  0.61385  1.0000
  C   C116      1.0  0.34902  0.57378  0.57576  1.0000
  H   H189      1.0  0.33982  0.60595  0.52635  1.0000
  H   H190      1.0  0.37260  0.64629  0.56600  1.0000
  H   H191      1.0  0.33382  0.54469  0.56987  1.0000
  H   H192      1.0  0.35765  0.57451  0.59884  1.0000
  H   H193      1.0  0.28321  0.75141  0.59309  1.0000
  H   H194      1.0  0.30017  0.60961  0.53766  1.0000
  H   H195      1.0  0.33264  0.73582  0.58005  1.0000
  H   H196      1.0  0.37318  0.58461  0.56212  1.0000
  C   C117      1.0  0.37848  0.62122  0.72147  1.0000
  C   C118      1.0  0.37790  0.60453  0.69477  1.0000
  H   H197      1.0  0.39544  0.56832  0.67179  1.0000
  C   C119      1.0  0.39561  0.58133  0.69233  1.0000
  C   C120      1.0  0.41393  0.57510  0.71618  1.0000
  C   C121      1.0  0.41467  0.59201  0.74282  1.0000
  H   H198      1.0  0.42771  0.55750  0.71386  1.0000
  C   C122      1.0  0.39669  0.61492  0.74531  1.0000
  H   H199      1.0  0.38634  0.51188  0.75770  1.0000
  S   S53       1.0  0.49312  0.99647  0.75318  1.0000
  H   H200      1.0  0.46456  0.91414  0.75542  1.0000
  H   H201      1.0  0.31214  0.78389  0.61853  1.0000
  N   N14       1.0  0.33234  0.78875  0.57507  1.0000
  C   C123      1.0  0.40273  0.85687  0.68759  1.0000
  H   H202      1.0  0.30432  0.79956  0.53942  1.0000
  H   H203      1.0  0.34400  0.84607  0.57399  1.0000
  H   H204      1.0  0.34012  0.78798  0.52892  1.0000
  H   H205      1.0  0.37278  0.76990  0.56581  1.0000
  H   H206      1.0  0.29978  0.75321  0.54193  1.0000
  C   C124      1.0  0.35708  0.82732  0.57854  1.0000
  H   H207      1.0  0.37996  0.83468  0.56362  1.0000
  H   H208      1.0  0.36766  0.83281  0.60117  1.0000
  C   C125      1.0  0.31858  0.78220  0.54501  1.0000
  H   H209      1.0  0.28851  0.79804  0.59194  1.0000
  C   C126      1.0  0.38769  0.87914  0.73245  1.0000
  S   S54       1.0  0.39456  0.91322  0.75932  1.0000
  S   S55       1.0  0.36716  0.78829  0.66431  1.0000
  C   C127      1.0  0.35093  0.76509  0.58138  1.0000
  H   H210      1.0  0.34301  0.83964  0.75506  1.0000
  H   H211      1.0  0.36252  0.77003  0.60361  1.0000
  C   C128      1.0  0.40930  0.88503  0.70805  1.0000
  C   C129      1.0  0.35355  0.81633  0.71597  1.0000
  H   H212      1.0  0.43069  0.91143  0.70469  1.0000
  H   H213      1.0  0.41933  0.86195  0.66862  1.0000
  C   C130      1.0  0.35989  0.84459  0.73627  1.0000
  C   C131      1.0  0.37479  0.82237  0.69135  1.0000
  H   H214      1.0  0.33193  0.79006  0.71921  1.0000
  C   C132      1.0  0.30273  0.78017  0.59555  1.0000
  H   H215      1.0  0.46022  0.83640  0.75437  1.0000
  C   C133      1.0  0.48691  0.90830  0.76372  1.0000
  H   H216      1.0  0.49881  0.90053  0.74476  1.0000
  Fe  Fe29      1.0  0.02711  0.72960  0.99795  1.0000
  S   S56       1.0  0.01695  0.67093  0.98886  1.0000
  H   H217      1.0  0.03538  0.65915  0.86754  1.0000
  C   C134      1.0  0.00894  0.63990  0.87268  1.0000
  H   H218      1.0  0.00607  0.66761  0.91212  1.0000
  S   S57       1.0  0.01245  0.60559  0.82228  1.0000
  H   H219      1.0  0.00446  0.60266  0.94855  1.0000
  H   H220      1.0  0.09624  0.70700  0.78886  1.0000
  H   H221      1.0  0.03294  0.56018  0.99000  1.0000
  S   S58       1.0  0.02996  0.52967  0.79001  1.0000
  H   H222      1.0  0.08440  0.66209  0.80383  1.0000
  C   C135      1.0  0.07817  0.67780  0.78631  1.0000
  H   H223      1.0  0.02072  0.59671  0.99987  1.0000
  H   H224      1.0  0.12559  0.65220  0.76919  1.0000
  C   C136      1.0  0.01044  0.56668  0.99656  1.0000
  H   H225      1.0  0.06286  0.60855  0.77226  1.0000
  H   H226      1.0  0.05082  0.67510  0.79050  1.0000
  H   H227      1.0  0.01776  0.56687  0.93865  1.0000
  H   H228      1.0  0.33023  0.52420  0.81571  1.0000
  H   H229      1.0  0.31855  0.51753  0.77781  1.0000
  C   C137      1.0  0.33976  0.52092  0.79382  1.0000
  H   H230      1.0  0.48351  0.51411  0.90680  1.0000
  H   H231      1.0  0.36241  0.54704  0.78843  1.0000
  H   H232      1.0  0.40181  0.52177  0.80982  1.0000
  S   S59       1.0  0.47448  0.53846  0.82778  1.0000
  Fe  Fe30      1.0  0.46822  0.55009  0.78045  1.0000
  S   S60       1.0  0.43657  0.58476  0.77395  1.0000
  H   H233      1.0  0.39706  0.62815  0.76579  1.0000
  C   C138      1.0  0.09233  0.83306  0.01465  1.0000
  H   H234      1.0  0.13997  0.93119  0.93793  1.0000
  S   S61       1.0  0.08280  0.76917  0.98545  1.0000
  H   H235      1.0  0.19330  0.87703  0.00054  1.0000
  C   C139      1.0  0.10791  0.81322  0.99972  1.0000
  H   H236      1.0  0.14206  0.89287  0.95661  1.0000
  H   H237      1.0  0.14032  0.89917  0.89128  1.0000
  H   H238      1.0  0.18322  0.96308  0.89968  1.0000
  C   C140      1.0  0.16519  0.86509  0.00422  1.0000
  H   H239      1.0  0.17400  0.93797  0.96424  1.0000
  C   C141      1.0  0.15834  0.91970  0.94650  1.0000
  C   C142      1.0  0.14443  0.82942  0.99461  1.0000
  H   H240      1.0  0.15674  0.81414  0.98333  1.0000
  H   H241      1.0  0.17623  0.88639  0.88380  1.0000
  S   S62       1.0  0.27131  0.94597  0.00163  1.0000
  H   H242      1.0  0.21785  0.97220  0.92587  1.0000
  H   H243      1.0  0.21929  0.95033  0.89261  1.0000
  H   H244      1.0  0.19262  0.87494  0.94605  1.0000
  H   H245      1.0  0.14437  0.86249  0.91120  1.0000
  C   C143      1.0  0.15959  0.88987  0.90140  1.0000
  N   N15       1.0  0.18135  0.91602  0.92347  1.0000
  H   H246      1.0  0.22251  0.92105  0.95364  1.0000
  H   H247      1.0  0.22531  0.90094  0.91981  1.0000
  C   C144      1.0  0.20112  0.95193  0.90974  1.0000
  S   S63       1.0  0.29050  0.97457  0.92241  1.0000
  C   C145      1.0  0.20644  0.90251  0.93629  1.0000
  Fe  Fe31      1.0  0.28549  0.99110  0.96863  1.0000
  C   C146      1.0  0.33714  0.98073  0.87846  1.0000
  H   H248      1.0  0.31768  0.95480  0.87106  1.0000
  C   C147      1.0  0.33076  0.99667  0.90367  1.0000
  H   H249      1.0  0.45173  0.00238  0.87967  1.0000
  N   N16       1.0  0.47506  0.87935  0.78608  1.0000
  C   C148      1.0  0.36856  0.99824  0.86266  1.0000
  C   C149      1.0  0.44907  0.84529  0.77324  1.0000
  C   C150      1.0  0.47102  0.99606  0.89289  1.0000
  H   H250      1.0  0.43551  0.98170  0.94339  1.0000
  C   C151      1.0  0.45859  0.89066  0.81030  1.0000
  H   H251      1.0  0.43550  0.89573  0.80270  1.0000
  H   H252      1.0  0.44912  0.86945  0.82755  1.0000
  H   H253      1.0  0.49410  0.97941  0.94353  1.0000
  S   S64       1.0  0.45206  0.97649  0.81602  1.0000
  H   H254      1.0  0.45880  0.96639  0.89788  1.0000
  H   H255      1.0  0.37318  0.98582  0.84322  1.0000
  H   H256      1.0  0.43983  0.82265  0.78936  1.0000
  H   H257      1.0  0.47754  0.91632  0.82045  1.0000
  Fe  Fe32      1.0  0.43698  0.97057  0.76870  1.0000
  H   H258      1.0  0.49441  0.00134  0.87890  1.0000
  H   H259      1.0  0.42540  0.84896  0.76527  1.0000
  H   H260      1.0  0.49794  0.85190  0.81412  1.0000
  C   C152      1.0  0.58889  0.02644  0.14448  1.0000
  C   C153      1.0  0.62050  0.04381  0.12894  1.0000
  C   C154      1.0  0.62212  0.03683  0.09926  1.0000
  H   H261      1.0  0.64389  0.06220  0.14010  1.0000
  H   H262      1.0  0.58811  0.03128  0.16751  1.0000
  S   S65       1.0  0.56132  0.10532  0.25468  1.0000
  S   S66       1.0  0.66304  0.05603  0.08112  1.0000
  C   C155      1.0  0.59164  0.01334  0.08499  1.0000
  H   H263      1.0  0.59238  0.00868  0.06198  1.0000
  Fe  Fe33      1.0  0.66778  0.03950  0.03486  1.0000
  Fe  Fe34      1.0  0.51561  0.05777  0.23348  1.0000
  H   H264      1.0  0.72559  0.11247  0.06085  1.0000
  H   H265      1.0  0.76206  0.15123  0.04691  1.0000
  H   H266      1.0  0.81652  0.11798  0.04918  1.0000
  H   H267      1.0  0.74504  0.12882  0.11095  1.0000
  H   H268      1.0  0.78123  0.16889  0.09800  1.0000
  H   H269      1.0  0.78939  0.13739  0.12164  1.0000
  H   H270      1.0  0.83120  0.13272  0.08542  1.0000
  H   H271      1.0  0.73654  0.06782  0.09236  1.0000
  H   H272      1.0  0.82233  0.16267  0.06056  1.0000
  H   H273      1.0  0.78078  0.07626  0.10339  1.0000
  N   N17       1.0  0.77612  0.11895  0.07770  1.0000
  C   C156      1.0  0.75361  0.12241  0.05406  1.0000
  C   C157      1.0  0.76464  0.08003  0.08541  1.0000
  C   C158      1.0  0.77285  0.13944  0.10325  1.0000
  C   C159      1.0  0.81318  0.13377  0.06788  1.0000
  H   H274      1.0  0.75451  0.10614  0.03487  1.0000
  H   H275      1.0  0.76699  0.06395  0.06650  1.0000
  S   S67       1.0  0.70611  0.01400  0.02792  1.0000
  H   H276      1.0  0.60135  0.48874  0.19917  1.0000
  H   H277      1.0  0.54902  0.49323  0.17766  1.0000
  H   H278      1.0  0.54509  0.31033  0.24697  1.0000
  H   H279      1.0  0.58792  0.43087  0.24379  1.0000
  S   S68       1.0  0.53820  0.46232  0.23444  1.0000
  H   H280      1.0  0.56626  0.49669  0.14163  1.0000
  H   H281      1.0  0.61851  0.49011  0.16329  1.0000
  C   C160      1.0  0.57816  0.43401  0.26487  1.0000
  H   H282      1.0  0.78448  0.43232  0.25348  1.0000
  S   S69       1.0  0.94624  0.34459  0.02176  1.0000
  H   H283      1.0  0.88055  0.41503  0.26264  1.0000
  Fe  Fe35      1.0  0.93834  0.49546  0.26493  1.0000
  H   H284      1.0  0.79675  0.34004  0.23906  1.0000
  S   S70       1.0  0.97231  0.46477  0.25822  1.0000
  C   C161      1.0  0.96311  0.37538  0.11030  1.0000
  C   C162      1.0  0.85840  0.34290  0.21692  1.0000
  H   H285      1.0  0.83528  0.32658  0.20322  1.0000
  H   H286      1.0  0.94866  0.35463  0.09465  1.0000
  H   H287      1.0  0.84948  0.46753  0.25620  1.0000
  S   S71       1.0  0.92699  0.49740  0.21750  1.0000
  H   H288      1.0  0.91681  0.37019  0.13422  1.0000
  H   H289      1.0  0.84147  0.41843  0.22334  1.0000
  H   H290      1.0  0.88161  0.35492  0.20224  1.0000
  Fe  Fe36      1.0  0.96387  0.46985  0.21051  1.0000
  H   H291      1.0  0.82336  0.38189  0.19779  1.0000
  C   C163      1.0  0.84642  0.39659  0.21206  1.0000
  H   H292      1.0  0.86364  0.32393  0.23196  1.0000
  C   C164      1.0  0.96364  0.41092  0.15337  1.0000
  H   H293      1.0  0.86977  0.41027  0.19780  1.0000
  C   C165      1.0  0.94514  0.38420  0.13277  1.0000
  S   S72       1.0  0.94010  0.41966  0.18205  1.0000
  H   H294      1.0  0.90769  0.40452  0.23746  1.0000
  C   C166      1.0  0.82116  0.35473  0.25190  1.0000
  N   N18       1.0  0.85235  0.37161  0.23298  1.0000
  C   C167      1.0  0.88358  0.39230  0.25099  1.0000
  Fe  Fe37      1.0  0.99666  0.34897  0.04194  1.0000
  C   C168      1.0  0.00028  0.42887  0.15136  1.0000
  S   S73       1.0  0.98652  0.29040  0.03265  1.0000
  C   C169      1.0  0.99982  0.39275  0.10867  1.0000
  C   C170      1.0  0.53620  0.18351  0.29292  1.0000
  H   H295      1.0  0.51272  0.18794  0.29732  1.0000
  C   C171      1.0  0.53330  0.15196  0.27773  1.0000
  S   S74       1.0  0.57092  0.24831  0.32181  1.0000
  H   H296      1.0  0.50660  0.07464  0.29758  1.0000
  H   H297      1.0  0.50782  0.13254  0.27044  1.0000
  H   H298      1.0  0.54966  0.09972  0.35327  1.0000
  C   C172      1.0  0.56916  0.20933  0.30243  1.0000
  C   C173      1.0  0.59924  0.20311  0.29666  1.0000
  H   H299      1.0  0.62475  0.22262  0.30386  1.0000
  C   C174      1.0  0.59629  0.17137  0.28174  1.0000
  H   H300      1.0  0.54504  0.04167  0.29008  1.0000
  C   C175      1.0  0.53340  0.02601  0.31020  1.0000
  H   H301      1.0  0.55315  0.01678  0.31945  1.0000
  H   H302      1.0  0.57678  0.07491  0.34794  1.0000
  H   H303      1.0  0.56714  0.09812  0.31809  1.0000
  C   C176      1.0  0.55577  0.08171  0.33800  1.0000
  C   C177      1.0  0.56339  0.14565  0.27211  1.0000
  H   H304      1.0  0.61975  0.16676  0.27757  1.0000
  C   C178      1.0  0.50997  0.02716  0.35782  1.0000
  N   N19       1.0  0.52406  0.04849  0.33105  1.0000
  H   H305      1.0  0.52976  0.01886  0.36828  1.0000
  H   H306      1.0  0.62496  0.47651  0.45128  1.0000
  H   H307      1.0  0.57196  0.34620  0.27083  1.0000
  N   N20       1.0  0.52143  0.31133  0.28825  1.0000
  H   H308      1.0  0.54519  0.30305  0.32763  1.0000
  C   C179      1.0  0.53268  0.32068  0.31869  1.0000
  S   S75       1.0  0.59428  0.41389  0.34946  1.0000
  H   H309      1.0  0.54425  0.44586  0.34055  1.0000
  H   H310      1.0  0.61062  0.41209  0.28805  1.0000
  C   C180      1.0  0.57887  0.42738  0.31738  1.0000
  C   C181      1.0  0.59095  0.42315  0.28994  1.0000
  C   C182      1.0  0.54080  0.45312  0.29432  1.0000
  C   C183      1.0  0.55376  0.44242  0.31943  1.0000
  H   H311      1.0  0.58729  0.43452  0.45785  1.0000
  C   C184      1.0  0.61005  0.44833  0.44309  1.0000
  H   H312      1.0  0.52153  0.46472  0.29620  1.0000
  H   H313      1.0  0.59928  0.45052  0.42127  1.0000
  H   H314      1.0  0.60001  0.39179  0.40876  1.0000
  H   H315      1.0  0.58978  0.37513  0.44535  1.0000
  H   H316      1.0  0.55233  0.34930  0.32057  1.0000
  N   N21       1.0  0.63267  0.42800  0.44145  1.0000
  C   C185      1.0  0.61169  0.39095  0.43039  1.0000
  H   H317      1.0  0.56632  0.30007  0.27761  1.0000
  H   H318      1.0  0.65284  0.44827  0.39901  1.0000
  S   S76       1.0  0.60435  0.32733  0.37565  1.0000
  Fe  Fe38      1.0  0.62491  0.37801  0.34808  1.0000
  H   H319      1.0  0.50908  0.25435  0.29434  1.0000
  H   H320      1.0  0.58390  0.31550  0.51017  1.0000
  C   C186      1.0  0.55254  0.31726  0.27008  1.0000
  C   C187      1.0  0.55306  0.44908  0.26689  1.0000
  H   H321      1.0  0.62503  0.40979  0.48601  1.0000
  C   C188      1.0  0.64655  0.42550  0.47062  1.0000
  C   C189      1.0  0.50410  0.33477  0.27768  1.0000
  H   H322      1.0  0.52208  0.36420  0.27916  1.0000
  H   H323      1.0  0.51013  0.31755  0.33299  1.0000
  H   H324      1.0  0.60727  0.32044  0.45997  1.0000
  H   H325      1.0  0.62830  0.37539  0.42784  1.0000
  H   H326      1.0  0.66167  0.45293  0.48008  1.0000
  C   C190      1.0  0.61202  0.32542  0.50679  1.0000
  Fe  Fe39      1.0  0.68912  0.36453  0.32827  1.0000
  C   C191      1.0  0.66235  0.44703  0.42151  1.0000
  H   H327      1.0  0.66465  0.41132  0.46977  1.0000
  C   C192      1.0  0.79820  0.43324  0.27367  1.0000
  H   H328      1.0  0.68035  0.43272  0.42040  1.0000
  H   H329      1.0  0.78255  0.40219  0.34318  1.0000
  S   S77       1.0  0.67260  0.31226  0.35438  1.0000
  S   S78       1.0  0.73296  0.38746  0.29420  1.0000
  C   C193      1.0  0.68422  0.35041  0.49765  1.0000
  C   C194      1.0  0.77890  0.41462  0.29814  1.0000
  H   H330      1.0  0.71234  0.36032  0.49431  1.0000
  S   S79       1.0  0.68030  0.34797  0.43769  1.0000
  C   C195      1.0  0.79696  0.41641  0.32419  1.0000
  Fe  Fe40      1.0  0.61750  0.29955  0.33780  1.0000
  S   S80       1.0  0.63459  0.34966  0.30960  1.0000
  C   C196      1.0  0.62524  0.32840  0.47819  1.0000
  Fe  Fe41      1.0  0.66026  0.34379  0.39043  1.0000
  C   C197      1.0  0.66156  0.34120  0.47336  1.0000
  S   S81       1.0  0.68026  0.39657  0.36493  1.0000
  H   H331      1.0  0.67834  0.47543  0.42868  1.0000
  H   H332      1.0  0.82435  0.33498  0.26742  1.0000
  H   H333      1.0  0.97739  0.49219  0.34950  1.0000
  C   C198      1.0  0.83509  0.45292  0.27505  1.0000
  C   C199      1.0  0.83392  0.43590  0.32549  1.0000
  C   C200      1.0  0.85326  0.45387  0.30086  1.0000
  H   H334      1.0  0.84761  0.43665  0.34566  1.0000
  S   S82       1.0  0.90000  0.47652  0.30314  1.0000
  H   H335      1.0  0.88843  0.37467  0.26759  1.0000
  H   H336      1.0  0.81669  0.37556  0.26512  1.0000
  H   H337      1.0  0.51903  0.21354  0.71138  1.0000
  C   C201      1.0  0.53948  0.15730  0.69003  1.0000
  C   C202      1.0  0.51888  0.22785  0.73199  1.0000
  H   H338      1.0  0.51617  0.14914  0.67653  1.0000
  H   H339      1.0  0.52884  0.21499  0.74931  1.0000
  H   H340      1.0  0.56815  0.20645  0.66528  1.0000
  C   C203      1.0  0.54003  0.13480  0.71341  1.0000
  C   C204      1.0  0.57050  0.14551  0.73048  1.0000
  C   C205      1.0  0.60014  0.17792  0.72387  1.0000
  C   C206      1.0  0.59957  0.20030  0.70043  1.0000
  C   C207      1.0  0.56892  0.18991  0.68365  1.0000
  H   H341      1.0  0.62370  0.18552  0.73698  1.0000
  H   H342      1.0  0.57141  0.12848  0.74847  1.0000
  S   S83       1.0  0.63799  0.24043  0.69258  1.0000
  H   H343      1.0  0.73366  0.23800  0.65089  1.0000
  H   H344      1.0  0.70966  0.23657  0.68367  1.0000
  C   C208      1.0  0.72433  0.25437  0.66529  1.0000
  H   H345      1.0  0.52814  0.26991  0.68450  1.0000
  H   H346      1.0  0.54330  0.31279  0.70309  1.0000
  C   C209      1.0  0.57753  0.27367  0.72372  1.0000
  N   N22       1.0  0.54063  0.26748  0.72962  1.0000
  C   C210      1.0  0.54962  0.45743  0.71728  1.0000
  C   C211      1.0  0.55724  0.44226  0.74239  1.0000
  C   C212      1.0  0.57476  0.41881  0.74039  1.0000
  C   C213      1.0  0.58488  0.41021  0.71332  1.0000
  C   C214      1.0  0.57750  0.42548  0.68818  1.0000
  C   C215      1.0  0.55994  0.44895  0.69020  1.0000
  H   H347      1.0  0.58505  0.41909  0.66718  1.0000
  H   H348      1.0  0.55412  0.46051  0.67065  1.0000
  S   S84       1.0  0.60716  0.38074  0.71239  1.0000
  C   C216      1.0  0.52726  0.28294  0.70561  1.0000
  H   H349      1.0  0.58043  0.40726  0.75999  1.0000
  H   H350      1.0  0.59493  0.30328  0.72264  1.0000
  S   S85       1.0  0.52735  0.48693  0.71862  1.0000
  H   H351      1.0  0.57981  0.26146  0.70267  1.0000
  C   C217      1.0  0.53902  0.28562  0.75709  1.0000
  H   H352      1.0  0.55515  0.31561  0.75579  1.0000
  H   H353      1.0  0.54951  0.44855  0.76334  1.0000
  H   H354      1.0  0.65552  0.47094  0.70818  1.0000
  H   H355      1.0  0.51153  0.28153  0.76228  1.0000
  Fe  Fe42      1.0  0.93212  0.49153  0.76366  1.0000
  C   C218      1.0  0.77220  0.31061  0.65066  1.0000
  C   C219      1.0  0.73993  0.30844  0.69451  1.0000
  H   H356      1.0  0.72432  0.29157  0.71293  1.0000
  H   H357      1.0  0.58826  0.26118  0.74073  1.0000
  H   H358      1.0  0.75784  0.47056  0.69916  1.0000
  H   H359      1.0  0.66263  0.44265  0.68138  1.0000
  H   H360      1.0  0.72068  0.44157  0.74265  1.0000
  H   H361      1.0  0.72232  0.31780  0.68201  1.0000
  S   S86       1.0  0.60055  0.30873  0.64992  1.0000
  N   N23       1.0  0.70735  0.47100  0.70888  1.0000
  H   H362      1.0  0.70474  0.26108  0.65281  1.0000
  H   H363      1.0  0.68548  0.41386  0.71914  1.0000
  H   H364      1.0  0.67746  0.44167  0.74581  1.0000
  C   C220      1.0  0.69743  0.44078  0.73012  1.0000
  Fe  Fe43      1.0  0.62969  0.36090  0.67439  1.0000
  S   S87       1.0  0.61624  0.33089  0.56666  1.0000
  C   C221      1.0  0.67556  0.46897  0.69309  1.0000
  Fe  Fe44      1.0  0.64170  0.29055  0.66662  1.0000
  C   C222      1.0  0.63469  0.33461  0.53109  1.0000
  Fe  Fe45      1.0  0.63878  0.33583  0.61302  1.0000
  S   S88       1.0  0.66873  0.34114  0.69312  1.0000
  S   S89       1.0  0.66524  0.38944  0.63687  1.0000
  S   S90       1.0  0.67773  0.31361  0.62830  1.0000
  H   H365      1.0  0.68885  0.35431  0.54457  1.0000
  Fe  Fe46      1.0  0.70197  0.36541  0.65432  1.0000
  S   S91       1.0  0.76196  0.39472  0.65493  1.0000
  C   C223      1.0  0.79204  0.41364  0.68408  1.0000
  C   C224      1.0  0.78077  0.41373  0.71263  1.0000
  H   H366      1.0  0.75295  0.40154  0.71758  1.0000
  C   C225      1.0  0.67096  0.34706  0.52627  1.0000
  H   H367      1.0  0.72245  0.44135  0.67669  1.0000
  C   C226      1.0  0.73310  0.46809  0.68808  1.0000
  C   C227      1.0  0.80565  0.43006  0.73486  1.0000
  H   H368      1.0  0.75399  0.31857  0.63736  1.0000
  N   N24       1.0  0.75382  0.28768  0.67573  1.0000
  H   H369      1.0  0.79671  0.43040  0.75684  1.0000
  H   H370      1.0  0.74044  0.48976  0.67115  1.0000
  H   H371      1.0  0.76146  0.33325  0.70352  1.0000
  H   H372      1.0  0.68189  0.49126  0.67679  1.0000
  H   H373      1.0  0.78970  0.26158  0.67908  1.0000
  H   H374      1.0  0.78355  0.29619  0.63612  1.0000
  H   H375      1.0  0.76571  0.26041  0.71174  1.0000
  C   C228      1.0  0.77878  0.27746  0.69254  1.0000
  H   H376      1.0  0.79397  0.33651  0.65783  1.0000
  S   S92       1.0  0.87193  0.46715  0.75786  1.0000
  C   C229      1.0  0.85331  0.44522  0.70050  1.0000
  S   S93       1.0  0.96921  0.46567  0.75172  1.0000
  H   H377      1.0  0.83745  0.42938  0.65620  1.0000
  C   C230      1.0  0.82841  0.42926  0.67821  1.0000
  H   H378      1.0  0.88116  0.45744  0.69559  1.0000
  H   H379      1.0  0.80136  0.30205  0.70066  1.0000
  C   C231      1.0  0.84207  0.44599  0.72897  1.0000
  C   C232      1.0  0.60116  0.03789  0.90635  1.0000
  H   H380      1.0  0.55594  0.05263  0.84907  1.0000
  C   C233      1.0  0.58540  0.05537  0.88839  1.0000
  C   C234      1.0  0.56795  0.03883  0.86268  1.0000
  H   H381      1.0  0.58659  0.08183  0.89450  1.0000
  S   S94       1.0  0.61975  0.05856  0.93970  1.0000
  Fe  Fe47      1.0  0.65185  0.03886  0.96982  1.0000
  C   C235      1.0  0.56652  0.00480  0.85445  1.0000
  Fe  Fe48      1.0  0.50760  0.00494  0.80072  1.0000
  S   S95       1.0  0.50743  0.06078  0.80233  1.0000
  H   H382      1.0  0.52052  0.06349  0.89753  1.0000
  H   H383      1.0  0.52995  0.01294  0.92402  1.0000
  H   H384      1.0  0.51464  0.02545  0.95671  1.0000
  H   H385      1.0  0.80503  0.21085  0.00018  1.0000
  H   H386      1.0  0.76818  0.14566  0.98989  1.0000
  S   S96       1.0  0.69039  0.08108  0.99945  1.0000
  C   C236      1.0  0.86990  0.18012  0.99715  1.0000
  Fe  Fe49      1.0  0.72631  0.05326  0.99045  1.0000
  C   C237      1.0  0.79642  0.15498  0.99213  1.0000
  C   C238      1.0  0.81189  0.13003  0.98983  1.0000
  S   S97       1.0  0.78618  0.08243  0.98637  1.0000
  C   C239      1.0  0.84878  0.14292  0.99193  1.0000
  H   H387      1.0  0.86106  0.12390  0.99001  1.0000
  S   S98       1.0  0.68941  0.01353  0.95798  1.0000
  H   H388      1.0  0.89818  0.18953  0.99917  1.0000
  H   H389      1.0  0.84610  0.25274  0.94985  1.0000
  S   S99       1.0  0.87874  0.25129  0.00933  1.0000
  C   C240      1.0  0.85422  0.20475  0.00050  1.0000
  C   C241      1.0  0.81743  0.19199  0.99778  1.0000
  H   H390      1.0  0.50872  0.45106  0.86318  1.0000
  N   N25       1.0  0.51331  0.48140  0.90247  1.0000
  H   H391      1.0  0.55477  0.48790  0.93296  1.0000
  H   H392      1.0  0.54893  0.49140  0.86650  1.0000
  S   S100      1.0  0.51660  0.48960  0.80494  1.0000
  C   C242      1.0  0.52915  0.46821  0.87893  1.0000
  H   H393      1.0  0.54273  0.45144  0.88755  1.0000
  H   H394      1.0  0.54915  0.27478  0.77563  1.0000
  C   C243      1.0  0.54118  0.50387  0.92286  1.0000
  H   H395      1.0  0.86236  0.25494  0.91342  1.0000
  C   C244      1.0  0.86786  0.26891  0.93481  1.0000
  H   H396      1.0  0.89221  0.26750  0.94372  1.0000
  H   H397      1.0  0.96850  0.46419  0.86129  1.0000
  H   H398      1.0  0.83187  0.29465  0.89921  1.0000
  S   S101      1.0  0.94775  0.49732  0.81119  1.0000
  Fe  Fe50      1.0  0.98684  0.47474  0.79832  1.0000
  H   H399      1.0  0.90435  0.35644  0.91009  1.0000
  H   H400      1.0  0.89621  0.31529  0.89027  1.0000
  H   H401      1.0  0.85805  0.30940  0.97718  1.0000
  C   C245      1.0  0.96704  0.43772  0.90241  1.0000
  H   H402      1.0  0.84041  0.33591  0.91895  1.0000
  H   H403      1.0  0.90401  0.32443  0.97027  1.0000
  H   H404      1.0  0.92626  0.32809  0.92042  1.0000
  C   C246      1.0  0.90076  0.32750  0.91234  1.0000
  C   C247      1.0  0.83844  0.30750  0.92103  1.0000
  N   N26       1.0  0.87156  0.30703  0.93234  1.0000
  H   H405      1.0  0.95410  0.45253  0.91350  1.0000
  H   H406      1.0  0.81592  0.29237  0.93571  1.0000
  C   C248      1.0  0.97551  0.41206  0.91766  1.0000
  H   H407      1.0  0.88254  0.35325  0.96034  1.0000
  C   C249      1.0  0.97507  0.44429  0.87277  1.0000
  C   C250      1.0  0.87919  0.32431  0.96126  1.0000
  S   S102      1.0  0.96358  0.40371  0.95452  1.0000
  C   C251      1.0  0.99144  0.42504  0.85810  1.0000
  Fe  Fe51      1.0  0.93780  0.28763  0.00842  1.0000
  H   H408      1.0  0.94730  0.50387  0.95477  1.0000
  C   C252      1.0  0.50588  0.00854  0.93676  1.0000
  H   H409      1.0  0.95883  0.49949  0.99181  1.0000
  S   S103      1.0  0.00133  0.43244  0.82074  1.0000
  Fe  Fe52      1.0  0.97631  0.36237  0.98019  1.0000
  H   H410      1.0  0.99876  0.37309  0.91471  1.0000
  C   C253      1.0  0.99207  0.39288  0.90310  1.0000
  S   S104      1.0  0.96594  0.30571  0.96580  1.0000
  C   C254      1.0  0.99995  0.39934  0.87336  1.0000
  H   H411      1.0  0.50624  0.07486  0.93138  1.0000
  C   C255      1.0  0.56343  0.61039  0.14708  1.0000
  C   C256      1.0  0.54089  0.58892  0.12548  1.0000
  C   C257      1.0  0.55155  0.59467  0.09635  1.0000
  H   H412      1.0  0.55506  0.60664  0.16951  1.0000
  H   H413      1.0  0.53416  0.57826  0.07952  1.0000
  Fe  Fe53      1.0  0.66407  0.68749  0.05427  1.0000
  C   C258      1.0  0.60753  0.64264  0.11039  1.0000
  C   C259      1.0  0.59671  0.63720  0.13953  1.0000
  C   C260      1.0  0.58478  0.62142  0.08881  1.0000
  H   H414      1.0  0.61412  0.65383  0.15627  1.0000
  H   H415      1.0  0.59287  0.62551  0.06630  1.0000
  S   S105      1.0  0.64997  0.67525  0.10173  1.0000
  S   S106      1.0  0.72011  0.72405  0.04285  1.0000
  N   N27       1.0  0.60209  0.53324  0.17266  1.0000
  H   H416      1.0  0.64455  0.52196  0.19040  1.0000
  H   H417      1.0  0.61283  0.57689  0.14190  1.0000
  H   H418      1.0  0.62657  0.54223  0.13058  1.0000
  S   S107      1.0  0.51341  0.54701  0.22228  1.0000
  H   H419      1.0  0.65126  0.57462  0.15784  1.0000
  C   C261      1.0  0.62421  0.55777  0.14979  1.0000
  H   H420      1.0  0.58902  0.57474  0.19201  1.0000
  H   H421      1.0  0.62710  0.57081  0.20730  1.0000
  C   C262      1.0  0.60049  0.55500  0.19799  1.0000
  C   C263      1.0  0.56615  0.51270  0.16122  1.0000
  S   S108      1.0  0.64115  0.71831  0.02624  1.0000
  H   H422      1.0  0.58385  0.53722  0.21560  1.0000
  H   H423      1.0  0.55333  0.53122  0.15513  1.0000
  S   S109      1.0  0.65897  0.64521  0.02061  1.0000
  C   C264      1.0  0.61738  0.50741  0.18172  1.0000
  H   H424      1.0  0.78797  0.70677  0.04450  1.0000
  C   C265      1.0  0.84262  0.71461  0.04322  1.0000
  C   C266      1.0  0.80774  0.70124  0.03278  1.0000
  H   H425      1.0  0.84955  0.73055  0.06294  1.0000
  C   C267      1.0  0.86855  0.70753  0.02828  1.0000
  S   S110      1.0  0.91218  0.72521  0.04181  1.0000
  H   H426      1.0  0.87242  0.65900  0.13471  1.0000
  H   H427      1.0  0.85465  0.61008  0.13197  1.0000
  H   H428      1.0  0.86282  0.66357  0.08185  1.0000
  H   H429      1.0  0.84500  0.61472  0.07887  1.0000
  C   C268      1.0  0.86982  0.63987  0.07860  1.0000
  H   H430      1.0  0.88118  0.64279  0.05640  1.0000
  C   C269      1.0  0.87917  0.63543  0.13002  1.0000
  H   H431      1.0  0.00092  0.66502  0.10041  1.0000
  S   S111      1.0  0.98503  0.54985  0.26441  1.0000
  H   H432      1.0  0.89766  0.63455  0.14733  1.0000
  Fe  Fe54      1.0  0.95255  0.70869  0.02029  1.0000
  S   S112      1.0  0.97942  0.60050  0.19389  1.0000
  H   H433      1.0  0.94670  0.67347  0.11653  1.0000
  H   H434      1.0  0.92172  0.69731  0.10209  1.0000
  N   N28       1.0  0.89503  0.63874  0.10091  1.0000
  C   C270      1.0  0.92746  0.67271  0.09943  1.0000
  H   H435      1.0  0.91779  0.60970  0.07465  1.0000
  H   H436      1.0  0.94067  0.67554  0.07806  1.0000
  H   H437      1.0  0.92117  0.60425  0.11303  1.0000
  C   C271      1.0  0.90375  0.60707  0.09567  1.0000
  H   H438      1.0  0.87974  0.58111  0.09511  1.0000
  Fe  Fe55      1.0  0.98975  0.65822  0.03193  1.0000
  C   C272      1.0  0.97956  0.57238  0.13939  1.0000
  C   C273      1.0  0.98207  0.57485  0.10897  1.0000
  Fe  Fe56      1.0  0.97651  0.54892  0.21600  1.0000
  C   C274      1.0  0.98416  0.60319  0.15581  1.0000
  H   H439      1.0  0.97374  0.54654  0.15012  1.0000
  C   C275      1.0  0.98930  0.60812  0.09477  1.0000
  H   H440      1.0  0.97809  0.55078  0.09641  1.0000
  C   C276      1.0  0.99175  0.63658  0.14163  1.0000
  H   H441      1.0  0.81660  0.77449  0.02293  1.0000
  S   S113      1.0  0.98994  0.60944  0.05652  1.0000
  H   H442      1.0  0.99575  0.66058  0.15428  1.0000
  C   C277      1.0  0.99460  0.63913  0.11118  1.0000
  C   C278      1.0  0.55886  0.00156  0.13049  1.0000
  C   C279      1.0  0.56024  0.99540  0.10063  1.0000
  H   H443      1.0  0.65019  0.94785  0.05521  1.0000
  H   H444      1.0  0.56660  0.89805  0.11591  1.0000
  H   H445      1.0  0.53696  0.97645  0.08966  1.0000
  H   H446      1.0  0.61136  0.91982  0.12864  1.0000
  H   H447      1.0  0.58955  0.94665  0.11440  1.0000
  H   H448      1.0  0.63629  0.97564  0.07779  1.0000
  C   C280      1.0  0.57943  0.91793  0.06027  1.0000
  H   H449      1.0  0.58860  0.91655  0.03779  1.0000
  H   H450      1.0  0.55369  0.89430  0.06328  1.0000
  H   H451      1.0  0.58598  0.85946  0.08353  1.0000
  S   S114      1.0  0.52077  0.97444  0.15019  1.0000
  N   N29       1.0  0.60559  0.91796  0.08214  1.0000
  C   C281      1.0  0.63940  0.94945  0.07695  1.0000
  C   C282      1.0  0.61090  0.88386  0.07967  1.0000
  H   H452      1.0  0.57453  0.94307  0.06159  1.0000
  C   C283      1.0  0.59271  0.92063  0.11155  1.0000
  H   H453      1.0  0.63082  0.88308  0.09556  1.0000
  H   H454      1.0  0.62047  0.88109  0.05762  1.0000
  S   S115      1.0  0.52080  0.00383  0.23444  1.0000
  H   H455      1.0  0.65959  0.95089  0.09338  1.0000
  H   H456      1.0  0.00103  0.55380  0.01814  1.0000
  H   H457      1.0  0.97724  0.56449  0.36889  1.0000
  C   C284      1.0  0.99924  0.55721  0.37598  1.0000
  C   C285      1.0  0.98933  0.51661  0.33527  1.0000
  H   H458      1.0  0.96741  0.52321  0.32697  1.0000
  H   H459      1.0  0.98801  0.53387  0.39137  1.0000
  H   H460      1.0  0.00107  0.50857  0.31629  1.0000
  H   H461      1.0  0.50985  0.00128  0.30367  1.0000
  H   H462      1.0  0.73115  0.52961  0.70897  1.0000
  H   H463      1.0  0.74732  0.50860  0.73660  1.0000
  H   H464      1.0  0.70452  0.50924  0.74020  1.0000
  C   C286      1.0  0.72330  0.50618  0.72434  1.0000
  S   S116      1.0  0.97179  0.54822  0.75195  1.0000
  Fe  Fe57      1.0  0.50829  0.50495  0.75969  1.0000
  H   H465      1.0  0.60338  0.70958  0.90955  1.0000
  H   H466      1.0  0.53464  0.62889  0.92181  1.0000
  H   H467      1.0  0.62220  0.73900  0.97111  1.0000
  H   H468      1.0  0.64370  0.71769  0.92801  1.0000
  H   H469      1.0  0.52934  0.59629  0.87511  1.0000
  Fe  Fe58      1.0  0.52996  0.54806  0.81647  1.0000
  S   S117      1.0  0.59045  0.65807  0.96346  1.0000
  C   C287      1.0  0.58119  0.59668  0.87790  1.0000
  C   C288      1.0  0.58737  0.63400  0.93085  1.0000
  C   C289      1.0  0.55634  0.62295  0.91426  1.0000
  C   C290      1.0  0.55323  0.60439  0.88784  1.0000
  S   S118      1.0  0.57836  0.57247  0.84538  1.0000
  Fe  Fe59      1.0  0.63980  0.67847  0.99142  1.0000
  C   C291      1.0  0.61221  0.60777  0.89452  1.0000
  C   C292      1.0  0.61535  0.62641  0.92088  1.0000
  H   H470      1.0  0.63395  0.60189  0.88696  1.0000
  H   H471      1.0  0.63939  0.63482  0.93348  1.0000
  S   S119      1.0  0.69369  0.71361  0.97483  1.0000
  Fe  Fe60      1.0  0.71359  0.68420  0.00711  1.0000
  H   H472      1.0  0.51534  0.52772  0.87801  1.0000
  H   H473      1.0  0.56160  0.52771  0.91156  1.0000
  H   H474      1.0  0.64465  0.73839  0.89319  1.0000
  C   C293      1.0  0.63020  0.73088  0.91414  1.0000
  C   C294      1.0  0.60894  0.75128  0.95620  1.0000
  H   H475      1.0  0.53026  0.51486  0.94061  1.0000
  Fe  Fe61      1.0  0.69655  0.75109  0.01158  1.0000
  H   H476      1.0  0.58182  0.73010  0.95257  1.0000
  S   S120      1.0  0.52551  0.56468  0.77031  1.0000
  S   S121      1.0  0.75624  0.66703  0.99130  1.0000
  C   C295      1.0  0.82447  0.67349  0.99244  1.0000
  H   H477      1.0  0.81768  0.65782  0.97257  1.0000
  H   H478      1.0  0.87895  0.68082  0.99133  1.0000
  C   C296      1.0  0.79866  0.68112  0.00704  1.0000
  C   C297      1.0  0.85925  0.68657  0.00301  1.0000
  H   H479      1.0  0.77844  0.74624  0.00250  1.0000
  H   H480      1.0  0.81528  0.73582  0.96440  1.0000
  S   S122      1.0  0.93735  0.64934  0.01309  1.0000
  N   N30       1.0  0.98185  0.55414  0.97472  1.0000
  C   C298      1.0  0.95799  0.62036  0.90435  1.0000
  H   H481      1.0  0.94342  0.56284  0.84664  1.0000
  C   C299      1.0  0.94049  0.59077  0.88583  1.0000
  H   H482      1.0  0.91385  0.57182  0.89074  1.0000
  Fe  Fe62      1.0  0.96534  0.66573  0.97056  1.0000
  S   S123      1.0  0.97670  0.72522  0.97594  1.0000
  C   C300      1.0  0.95723  0.58557  0.86091  1.0000
  S   S124      1.0  0.93619  0.62528  0.93564  1.0000
  H   H483      1.0  0.96155  0.59314  0.98766  1.0000
  C   C301      1.0  0.95263  0.56324  0.98461  1.0000
  H   H484      1.0  0.93073  0.55480  0.96848  1.0000
  C   C302      1.0  0.96901  0.51423  0.97102  1.0000
  H   H485      1.0  0.94189  0.55011  0.00582  1.0000
  C   C303      1.0  0.99241  0.64475  0.89791  1.0000
  C   C304      1.0  0.99138  0.61033  0.85413  1.0000
  C   C305      1.0  0.99530  0.57253  0.94668  1.0000
  Fe  Fe63      1.0  0.98944  0.55181  0.79851  1.0000
  H   H486      1.0  0.97445  0.56339  0.92965  1.0000
  H   H487      1.0  0.99033  0.50635  0.96339  1.0000
  C   C306      1.0  0.59996  0.00393  0.89809  1.0000
  H   H488      1.0  0.61204  0.99024  0.91177  1.0000
  H   H489      1.0  0.50703  0.93419  0.77261  1.0000
  C   C307      1.0  0.50578  0.87345  0.79708  1.0000
  S   S125      1.0  0.64222  0.91471  0.99952  1.0000
  H   H490      1.0  0.52577  0.89892  0.80684  1.0000
  H   H491      1.0  0.58204  0.96130  0.86584  1.0000
  Fe  Fe64      1.0  0.66637  0.97676  0.99659  1.0000
  S   S126      1.0  0.54424  0.98312  0.82244  1.0000
  H   H492      1.0  0.51899  0.86510  0.77933  1.0000
  C   C308      1.0  0.58283  0.98754  0.87212  1.0000
  S   S127      1.0  0.62634  0.99974  0.00631  1.0000
  H   H493      1.0  0.67883  0.77884  0.94973  1.0000
  H   H494      1.0  0.65111  0.79758  0.01211  1.0000
  H   H495      1.0  0.58288  0.75946  0.90463  1.0000
  H   H496      1.0  0.68043  0.79906  0.91461  1.0000
  C   C309      1.0  0.66459  0.79009  0.93479  1.0000
  N   N31       1.0  0.62851  0.76290  0.92865  1.0000
  H   H497      1.0  0.66429  0.81484  0.94539  1.0000
  H   H498      1.0  0.60685  0.77461  0.96774  1.0000
  H   H499      1.0  0.60849  0.80356  0.91993  1.0000
  H   H500      1.0  0.62426  0.78839  0.88855  1.0000
  C   C310      1.0  0.61022  0.77932  0.90957  1.0000
  C   C311      1.0  0.66602  0.88695  0.00077  1.0000
  H   H501      1.0  0.71670  0.92979  0.99143  1.0000
  C   C312      1.0  0.72002  0.87764  0.99644  1.0000
  S   S128      1.0  0.72446  0.81146  0.00131  1.0000
  H   H502      1.0  0.74805  0.88866  0.99233  1.0000
  C   C313      1.0  0.70166  0.84022  0.00217  1.0000
  C   C314      1.0  0.70233  0.90102  0.99592  1.0000
  C   C315      1.0  0.66544  0.82627  0.00744  1.0000
  C   C316      1.0  0.64767  0.84950  0.00648  1.0000
  H   H503      1.0  0.61958  0.83842  0.01027  1.0000
  H   H504      1.0  0.77201  0.76026  0.95131  1.0000
  C   C317      1.0  0.79275  0.78822  0.95485  1.0000
  C   C318      1.0  0.79859  0.77461  0.00504  1.0000
  C   C319      1.0  0.84481  0.82558  0.98196  1.0000
  H   H505      1.0  0.83257  0.84429  0.98897  1.0000
  H   H506      1.0  0.85299  0.76187  0.98610  1.0000
  C   C320      1.0  0.83508  0.76401  0.96881  1.0000
  N   N32       1.0  0.81787  0.78815  0.97763  1.0000
  H   H507      1.0  0.85974  0.83686  0.96164  1.0000
  H   H508      1.0  0.86419  0.82624  0.99898  1.0000
  H   H509      1.0  0.85093  0.77399  0.94873  1.0000
  H   H510      1.0  0.80625  0.79823  0.93376  1.0000
  H   H511      1.0  0.77907  0.80594  0.96100  1.0000
  H   H512      1.0  0.78465  0.79170  0.01215  1.0000
