data_image0
_chemical_formula_structural       H3CH6CHNH2SH3CHCHCH2FeS2FeS2FeHFeS3HFeS3H2C6H5C4NH3CH2SH2C2HC2HCH6FeH3SCNH9NH2C2H2FeHFeS2FeS2HFeS3C5H3CH2C6H4NC2HCH3C2H2CH2C2H4SCH3CHCH2CFeHSC2H2C2H2NH5SHCH3CH2FeS2FeSFeSFeS3CH5C3H2C7H4C3NH2CH3CH2C2H2CH3CHCN2H6SH6CH2CH2CSH5C6H2CFeS2FeS2FeSFeS3H4NHC2H2NC2HC2FeH4C2HC2H2C3HC2HC2H4C3SHC2H11NHSHCH2CH3FeH3SCFeSCHC3HC2HFeHCH3CHNCHCSHCSH2SFeH3CHFeHS2CH3CSHCFeH3SHSFeHSHCHNCH3C3HC5H3FeHCHSH2CH3NH4C3H2CHCHCH5SH3CS2HSFeS2FeSFe2S2HC2HC5H2CHCH3CH2S2H2NH2C9HNH5CH2CH2C2HCHCH2SH8CNH3NH2FeS2FeSNFeHFeS4C6H4C3H3CFeH2CH3CHC2H4CHNHFeSH8FeHSFeSC2H2S2CHCHC2S2HC2SC4H5C2H2NHNH2C2H3CH3CH4FeCHFeH2SCS2H2SCH3C4H5CHNSCH4C2H3CH2FeS2FeS2FeSFeHS2FeS2FeCFeHS2CH4CH4C6H4C3H4CH2SC2HCH2C2HCHCHSHNHNCH6CH3SH3C3SH3SH3C2SCH3C3HCH2SH3C2HNC2HCHC4H5CH2CHFeSCFeSHS3H6CH5CHNC2H3NHFeS2FeS2FeSFeS3H2CH2C6H4CSC6H3C3HC2HCHC3HNHFeCHC2HNC4H12NH5CH4CH2CFeH11FeS2FeS2FeCFeS3C3HC6H5CH3C3H6NH4CH2CH2NCH2C7HCH2CH3SFeSHFeS2Fe2S3C4H5CH3NC2H3CH4CH3CH3CNCHCHSHSH2SHCSCHCHNH5CHCHC2FeHCH2CH2CFeS2FeSFeSFeS3HC2H2C3FeH2CH2CHNH2CH4C2SCSC2H2C2H2C3H5C2HCNSH2C2H4CHFeH3S3C2H2C2H2SHNCH2SHSCHC3SH3C4FeHC3HCH2CH3NHC2Fe2HS2FeCFeHSCHFeCH5C2HCHCSHCHSHSHCHNH2C2HCFeCHSH2CHC3H2SH3CHCHCHCH4C2SFeSFeSFeS2HC5SH3FeHSC3HNCH3NH4C2NH3CH2FeNC5H3S3H3C2HCSH4CH2CNHSCFeHC3FeH2CHFeS2CH3CSHSCFeSHCFeC3FeNH2C2HC4H6C2SC2H3FeH4CHCSH4Fe2H4FeHS2C2SCFeHC4S2H3S2FeSNSH3C7HFeCSH3C2H12CH2SHFeSHCH2CHSC3FeHC2HCH2C2HCH4CNCNH3SHC2HCH6C2SFe2HCHFeHSFeHSC4H6CH2C2HCHCNH3SH3CSHCFeSC6H3FeHCFeSHS2H3CHCHC2HSNHC2H2CSFeS2FeS2HC3SC3H4CHSH2CHCH2NH2FeH5CH3C2HCHS2HCHCHC3HCFeS2FeHFeSFeNS2C4H9CHCSHCH4CSH2NCHCH2CNCHC4HNH4CH3SH2CHCHFe2SHCHC3HFeHCSHCHFeSH3CH5CH2SC3H2CH2CHCSH4SH4C4H2C2H4CHCH2CHC2NCHCHCH2NHCHSCFeC2H2CSH7CFeH2C2H2CH3FeS2FeSFeS2H3C4H2C6HCHCH3NC3H4CH5Fe2S2FeHFeS3C3H5CNH2SHCHC2HCHCH3C3H3S3H2CFeCH4CHSC2H2FeS2CHFe2HS2C2HC4H2C3S2CHCH2C2H3CH3CHC2H2CH2NSHNHCFeS2FeSHFeSFeS3C3H3SH2CHC3H2CH3NCH2FeH4SCH2CHSHCH3CH2FeCNFeSHFeS2FeSFeS3NH2C6H4C2H2CHC4H5CSCNCHSHCH2CH2CH3CH3S2CHNH2SHCHCH3CSHCH3CFeC2H3CH6SFeHCH3FeHFeS2C2HC5H2C3H3C2NHC2H4CH3SH2C2H6FeS2HCHSFeS2FeS2Fe2S4H3C3H2C6H6NCH4CH3CNH2CHFeHFeHC2H3SC2H2CHCH3CH2CH2CH4CH2CHCSCH2CH8CH5FeHSCSCH3SH2C2FeSC2NSCH6CH2CHFeHSHFeCSC6H3C3H2C2SH2SH3CHCHSFeH3S2HFeCNH4CHCFeS2FeS2FeS2HC3H2CH2C6NH3SNC4H12NH9SH3CHC2HSCH2CH2CHSC4H3CH4CH3C2HC2SNH6SC2H2NC2H2CH2CH3NC2H2C2FeSFeS2FeS2H2C5H6FeH4CHNHC4H6CHSH3CHCHNHFeSFeSNCSFeHSH3SHCH2C6H4C5H2NHSHCH2CHCHCH3CH3SHCH4CFeSHCHS2HFeSC2SH2CSHNHCH2SCH6SCH2FeCSCHC3H2C2HCH4FeSCSH4CH2CSH2NH2C2H2FeHCFeS2FeS2Fe3S3C2FeH3C4H2C6H4CH2C2SHNSCHNHSCH2CH7CH2SH4SCH2CHC2HC3H6CHSCFeSCFeSHFeSFeS3C2HC3HCH2C3H4CN2C2H3CHCH5C2H3SH5C3H2CH3CNSH2CH3CHCHCH2C2H2C2HCNH7CFeS2FeSHFeHFeS4H2C6H4C2H5SH2CH2SH3CH4C2HSCH3CNC2HCHCH6CHFeS2CFeS2FeSCFeSFeHS2HC2HC7H5CH5CH2N2HSHCH2SHCH2SH3CHC2H2CH2CHCHCNH6SFeSCH
_chemical_formula_sum              "H1536 C960 N96 S384 Fe192"
_cell_length_a       54.9208
_cell_length_b       54.9735
_cell_length_c       54.7201
_cell_angle_alpha    90.0426
_cell_angle_beta     90.024
_cell_angle_gamma    90.2436

_space_group_name_H-M_alt    "P 1"
_space_group_IT_number       1

loop_
  _space_group_symop_operation_xyz
  'x, y, z'

loop_
  _atom_site_type_symbol
  _atom_site_label
  _atom_site_symmetry_multiplicity
  _atom_site_fract_x
  _atom_site_fract_y
  _atom_site_fract_z
  _atom_site_occupancy
  H   H1        1.0  0.36135  0.24747  0.20492  1.0000
  H   H2        1.0  0.30744  0.10814  0.34753  1.0000
  H   H3        1.0  0.36372  0.14655  0.30079  1.0000
  C   C1        1.0  0.29563  0.12218  0.33897  1.0000
  H   H4        1.0  0.28294  0.11271  0.32626  1.0000
  H   H5        1.0  0.27835  0.16769  0.33472  1.0000
  H   H6        1.0  0.35942  0.05726  0.20025  1.0000
  H   H7        1.0  0.14360  0.25768  0.05011  1.0000
  H   H8        1.0  0.08340  0.23133  0.35452  1.0000
  H   H9        1.0  0.25348  0.14631  0.33324  1.0000
  C   C2        1.0  0.26708  0.15484  0.34569  1.0000
  H   H10       1.0  0.30785  0.13408  0.32791  1.0000
  N   N1        1.0  0.28238  0.13629  0.35770  1.0000
  H   H11       1.0  0.25368  0.10961  0.36037  1.0000
  H   H12       1.0  0.25685  0.16577  0.35942  1.0000
  S   S1        1.0  0.35733  0.13194  0.35096  1.0000
  H   H13       1.0  0.06498  0.15813  0.35895  1.0000
  H   H14       1.0  0.33803  0.26987  0.20944  1.0000
  H   H15       1.0  0.17054  0.27579  0.04567  1.0000
  C   C3        1.0  0.35803  0.26679  0.21022  1.0000
  H   H16       1.0  0.31283  0.16040  0.36363  1.0000
  C   C4        1.0  0.15993  0.26003  0.03831  1.0000
  H   H17       1.0  0.17142  0.24352  0.04030  1.0000
  C   C5        1.0  0.36274  0.28017  0.16852  1.0000
  H   H18       1.0  0.36400  0.26893  0.22955  1.0000
  H   H19       1.0  0.36492  0.26101  0.16251  1.0000
  Fe  Fe1       1.0  0.12915  0.17220  0.42421  1.0000
  S   S2        1.0  0.11354  0.18554  0.45954  1.0000
  S   S3        1.0  0.10566  0.16115  0.39200  1.0000
  Fe  Fe2       1.0  0.18147  0.18415  0.43991  1.0000
  S   S4        1.0  0.16939  0.19966  0.47598  1.0000
  S   S5        1.0  0.22187  0.18467  0.43138  1.0000
  Fe  Fe3       1.0  0.14512  0.16673  0.47738  1.0000
  H   H20       1.0  0.22008  0.19530  0.50738  1.0000
  Fe  Fe4       1.0  0.13918  0.21718  0.45451  1.0000
  S   S6        1.0  0.12277  0.25459  0.46014  1.0000
  S   S7        1.0  0.15866  0.15041  0.44224  1.0000
  S   S8        1.0  0.15343  0.20469  0.41829  1.0000
  H   H21       1.0  0.23772  0.18378  0.48243  1.0000
  Fe  Fe5       1.0  0.32439  0.08887  0.42339  1.0000
  S   S9        1.0  0.34772  0.12243  0.42250  1.0000
  S   S10       1.0  0.28490  0.08825  0.43515  1.0000
  S   S11       1.0  0.33363  0.07735  0.38521  1.0000
  H   H22       1.0  0.10970  0.22606  0.37345  1.0000
  H   H23       1.0  0.32038  0.08004  0.57186  1.0000
  C   C6        1.0  0.23907  0.15769  0.43290  1.0000
  C   C7        1.0  0.22792  0.13481  0.43420  1.0000
  C   C8        1.0  0.24220  0.11368  0.43547  1.0000
  C   C9        1.0  0.26770  0.11523  0.43505  1.0000
  C   C10       1.0  0.27886  0.13812  0.43395  1.0000
  C   C11       1.0  0.26457  0.15927  0.43289  1.0000
  H   H24       1.0  0.20831  0.13330  0.43396  1.0000
  H   H25       1.0  0.23343  0.09602  0.43627  1.0000
  H   H26       1.0  0.29847  0.13956  0.43399  1.0000
  H   H27       1.0  0.27333  0.17693  0.43208  1.0000
  H   H28       1.0  0.07139  0.26857  0.40984  1.0000
  C   C12       1.0  0.05051  0.22724  0.39162  1.0000
  C   C13       1.0  0.07435  0.15575  0.39715  1.0000
  C   C14       1.0  0.06536  0.15209  0.42075  1.0000
  C   C15       1.0  0.23505  0.18255  0.50258  1.0000
  N   N2        1.0  0.22920  0.15739  0.51019  1.0000
  H   H29       1.0  0.13083  0.06353  0.57700  1.0000
  H   H30       1.0  0.07770  0.15197  0.43614  1.0000
  H   H31       1.0  0.10651  0.22754  0.41771  1.0000
  C   C16       1.0  0.05812  0.15545  0.37729  1.0000
  H   H32       1.0  0.15726  0.25928  0.42003  1.0000
  H   H33       1.0  0.25201  0.18932  0.51144  1.0000
  S   S12       1.0  0.14339  0.13977  0.50855  1.0000
  H   H34       1.0  0.32581  0.14793  0.56885  1.0000
  H   H35       1.0  0.11131  0.06300  0.62927  1.0000
  C   C17       1.0  0.07987  0.26022  0.39339  1.0000
  C   C18       1.0  0.22585  0.15661  0.53700  1.0000
  H   H36       1.0  0.24530  0.12184  0.50827  1.0000
  C   C19       1.0  0.26676  0.11972  0.37215  1.0000
  C   C20       1.0  0.13102  0.10700  0.62131  1.0000
  H   H37       1.0  0.14865  0.06453  0.60443  1.0000
  C   C21       1.0  0.10212  0.07446  0.61519  1.0000
  H   H38       1.0  0.33649  0.12076  0.53562  1.0000
  H   H39       1.0  0.11726  0.11856  0.63060  1.0000
  H   H40       1.0  0.14042  0.09635  0.63571  1.0000
  H   H41       1.0  0.31284  0.10001  0.59655  1.0000
  H   H42       1.0  0.04224  0.23425  0.37447  1.0000
  H   H43       1.0  0.26674  0.14650  0.51178  1.0000
  Fe  Fe6       1.0  0.35915  0.10916  0.38530  1.0000
  H   H44       1.0  0.14475  0.11941  0.61301  1.0000
  H   H45       1.0  0.36382  0.08196  0.58448  1.0000
  H   H46       1.0  0.24261  0.16242  0.54686  1.0000
  S   S13       1.0  0.35284  0.06465  0.44027  1.0000
  C   C22       1.0  0.14567  0.27513  0.42020  1.0000
  N   N3        1.0  0.07667  0.23350  0.39322  1.0000
  H   H47       1.0  0.21086  0.16886  0.54295  1.0000
  H   H48       1.0  0.22101  0.13796  0.54335  1.0000
  H   H49       1.0  0.35645  0.10258  0.60883  1.0000
  H   H50       1.0  0.25217  0.14126  0.48292  1.0000
  H   H51       1.0  0.09860  0.09406  0.56997  1.0000
  H   H52       1.0  0.09953  0.26531  0.39375  1.0000
  H   H53       1.0  0.20147  0.13042  0.50301  1.0000
  H   H54       1.0  0.04769  0.20712  0.39185  1.0000
  H   H55       1.0  0.31144  0.13497  0.38393  1.0000
  N   N4        1.0  0.11974  0.09079  0.60293  1.0000
  H   H56       1.0  0.04019  0.23480  0.40736  1.0000
  H   H57       1.0  0.09319  0.06189  0.60195  1.0000
  C   C23       1.0  0.24926  0.14102  0.50304  1.0000
  C   C24       1.0  0.20650  0.14943  0.49809  1.0000
  H   H58       1.0  0.09253  0.11690  0.59270  1.0000
  H   H59       1.0  0.20797  0.15046  0.47786  1.0000
  Fe  Fe7       1.0  0.20861  0.11983  0.69206  1.0000
  H   H60       1.0  0.08761  0.08492  0.62466  1.0000
  Fe  Fe8       1.0  0.18909  0.08196  0.65667  1.0000
  S   S14       1.0  0.17440  0.11778  0.66986  1.0000
  S   S15       1.0  0.16056  0.05254  0.65232  1.0000
  Fe  Fe9       1.0  0.24038  0.10275  0.64994  1.0000
  S   S16       1.0  0.22926  0.13971  0.66283  1.0000
  S   S17       1.0  0.27942  0.09508  0.63911  1.0000
  H   H61       1.0  0.19101  0.16115  0.50347  1.0000
  Fe  Fe10      1.0  0.19635  0.13379  0.63910  1.0000
  S   S18       1.0  0.18262  0.16402  0.61468  1.0000
  S   S19       1.0  0.22202  0.08290  0.68088  1.0000
  S   S20       1.0  0.20874  0.09791  0.62433  1.0000
  C   C25       1.0  0.16602  0.12892  0.55147  1.0000
  C   C26       1.0  0.17506  0.13405  0.57491  1.0000
  C   C27       1.0  0.17350  0.15757  0.58444  1.0000
  C   C28       1.0  0.16402  0.17624  0.56980  1.0000
  C   C29       1.0  0.15545  0.17123  0.54608  1.0000
  H   H62       1.0  0.16677  0.11055  0.54439  1.0000
  H   H63       1.0  0.18284  0.11971  0.58576  1.0000
  H   H64       1.0  0.16289  0.19454  0.57701  1.0000
  C   C30       1.0  0.30008  0.14847  0.37402  1.0000
  H   H65       1.0  0.30404  0.10773  0.56602  1.0000
  H   H66       1.0  0.08475  0.20319  0.41654  1.0000
  C   C31       1.0  0.33386  0.15689  0.65246  1.0000
  C   C32       1.0  0.30933  0.16216  0.64804  1.0000
  C   C33       1.0  0.29267  0.14336  0.64305  1.0000
  C   C34       1.0  0.30029  0.11913  0.64323  1.0000
  C   C35       1.0  0.32494  0.11388  0.64713  1.0000
  C   C36       1.0  0.34176  0.13273  0.65153  1.0000
  H   H67       1.0  0.30317  0.18083  0.64870  1.0000
  H   H68       1.0  0.27393  0.14769  0.63913  1.0000
  H   H69       1.0  0.33092  0.09515  0.64740  1.0000
  H   H70       1.0  0.33262  0.14023  0.60000  1.0000
  N   N5        1.0  0.34214  0.11265  0.57372  1.0000
  C   C37       1.0  0.33908  0.13841  0.58083  1.0000
  C   C38       1.0  0.31884  0.09952  0.57713  1.0000
  H   H71       1.0  0.07774  0.23081  0.43252  1.0000
  C   C39       1.0  0.34958  0.11123  0.54780  1.0000
  H   H72       1.0  0.35106  0.09207  0.54144  1.0000
  H   H73       1.0  0.29083  0.15994  0.38791  1.0000
  H   H74       1.0  0.25590  0.12991  0.38590  1.0000
  C   C40       1.0  0.04041  0.14776  0.42443  1.0000
  C   C41       1.0  0.08680  0.22330  0.41598  1.0000
  H   H75       1.0  0.14768  0.18561  0.53509  1.0000
  H   H76       1.0  0.15252  0.08756  0.58175  1.0000
  C   C42       1.0  0.10711  0.10564  0.58434  1.0000
  H   H77       1.0  0.11997  0.11833  0.57502  1.0000
  H   H78       1.0  0.35265  0.16791  0.50346  1.0000
  C   C43       1.0  0.13874  0.07598  0.59097  1.0000
  C   C44       1.0  0.15591  0.14741  0.53714  1.0000
  H   H79       1.0  0.27779  0.10602  0.38225  1.0000
  H   H80       1.0  0.27920  0.11288  0.68951  1.0000
  H   H81       1.0  0.27675  0.15750  0.68958  1.0000
  H   H82       1.0  0.36286  0.13708  0.47212  1.0000
  S   S21       1.0  0.35356  0.18003  0.66251  1.0000
  C   C45       1.0  0.08966  0.22314  0.37198  1.0000
  H   H83       1.0  0.08665  0.20316  0.37058  1.0000
  H   H84       1.0  0.07175  0.26877  0.37689  1.0000
  H   H85       1.0  0.03368  0.14450  0.44273  1.0000
  C   C46       1.0  0.36117  0.10147  0.58912  1.0000
  H   H86       1.0  0.36063  0.12853  0.65531  1.0000
  C   C47       1.0  0.12760  0.27742  0.43801  1.0000
  H   H87       1.0  0.35654  0.14858  0.57947  1.0000
  H   H88       1.0  0.31673  0.13739  0.69603  1.0000
  C   C48       1.0  0.03304  0.15151  0.38102  1.0000
  Fe  Fe11      1.0  0.36447  0.05645  0.40181  1.0000
  H   H89       1.0  0.28643  0.09666  0.71696  1.0000
  S   S22       1.0  0.21307  0.12955  0.73202  1.0000
  C   C49       1.0  0.16491  0.14188  0.73813  1.0000
  C   C50       1.0  0.18615  0.13315  0.74906  1.0000
  H   H90       1.0  0.16463  0.14577  0.71876  1.0000
  H   H91       1.0  0.18695  0.25061  0.99839  1.0000
  C   C51       1.0  0.14420  0.14642  0.75245  1.0000
  C   C52       1.0  0.18636  0.12837  0.77424  1.0000
  H   H92       1.0  0.25718  0.11056  0.71344  1.0000
  H   H93       1.0  0.17070  0.27028  0.97810  1.0000
  N   N6        1.0  0.28642  0.13569  0.72066  1.0000
  H   H94       1.0  0.04014  0.24021  0.88080  1.0000
  H   H95       1.0  0.28068  0.17427  0.71739  1.0000
  H   H96       1.0  0.13754  0.20944  0.82554  1.0000
  H   H97       1.0  0.12800  0.15376  0.74399  1.0000
  H   H98       1.0  0.26212  0.13403  0.75137  1.0000
  S   S23       1.0  0.05583  0.18176  0.89182  1.0000
  H   H99       1.0  0.25389  0.15592  0.71285  1.0000
  C   C53       1.0  0.17528  0.26709  0.99766  1.0000
  H   H100      1.0  0.13351  0.24589  0.98374  1.0000
  H   H101      1.0  0.13349  0.03754  0.95952  1.0000
  H   H102      1.0  0.12181  0.24040  0.01390  1.0000
  C   C54       1.0  0.13883  0.24316  0.00324  1.0000
  H   H103      1.0  0.15298  0.19269  0.78771  1.0000
  H   H104      1.0  0.18496  0.18954  0.78258  1.0000
  Fe  Fe12      1.0  0.11794  0.14387  0.83611  1.0000
  S   S24       1.0  0.14656  0.12585  0.85894  1.0000
  S   S25       1.0  0.11884  0.14991  0.79525  1.0000
  Fe  Fe13      1.0  0.08634  0.15665  0.88081  1.0000
  S   S26       1.0  0.11233  0.13917  0.90714  1.0000
  Fe  Fe14      1.0  0.14140  0.15745  0.88472  1.0000
  S   S27       1.0  0.17181  0.18133  0.89905  1.0000
  Fe  Fe15      1.0  0.11478  0.10923  0.87892  1.0000
  S   S28       1.0  0.11048  0.06862  0.88495  1.0000
  S   S29       1.0  0.11533  0.17658  0.86022  1.0000
  S   S30       1.0  0.08625  0.12550  0.85430  1.0000
  C   C55       1.0  0.16539  0.13221  0.78842  1.0000
  H   H105      1.0  0.19996  0.23301  0.81564  1.0000
  H   H106      1.0  0.20276  0.21557  0.84330  1.0000
  H   H107      1.0  0.20269  0.12141  0.78274  1.0000
  H   H108      1.0  0.16557  0.12799  0.80768  1.0000
  H   H109      1.0  0.29093  0.11953  0.75612  1.0000
  C   C56       1.0  0.17532  0.17787  0.82887  1.0000
  C   C57       1.0  0.15692  0.06244  0.90308  1.0000
  C   C58       1.0  0.13510  0.05144  0.89584  1.0000
  H   H110      1.0  0.17873  0.17816  0.84889  1.0000
  H   H111      1.0  0.15890  0.08202  0.90209  1.0000
  C   C59       1.0  0.15584  0.21709  0.82994  1.0000
  C   C60       1.0  0.14396  0.25421  0.92825  1.0000
  C   C61       1.0  0.12765  0.23525  0.92294  1.0000
  C   C62       1.0  0.13614  0.21293  0.91400  1.0000
  C   C63       1.0  0.16107  0.20930  0.91047  1.0000
  C   C64       1.0  0.17748  0.22820  0.91593  1.0000
  C   C65       1.0  0.16894  0.25069  0.92474  1.0000
  H   H112      1.0  0.10834  0.23775  0.92574  1.0000
  H   H113      1.0  0.12334  0.19841  0.91013  1.0000
  H   H114      1.0  0.19679  0.22547  0.91327  1.0000
  H   H115      1.0  0.04195  0.13187  0.90394  1.0000
  C   C66       1.0  0.27390  0.15678  0.70968  1.0000
  C   C67       1.0  0.17107  0.20107  0.79178  1.0000
  C   C68       1.0  0.19918  0.21426  0.82326  1.0000
  N   N7        1.0  0.17537  0.20261  0.81843  1.0000
  H   H116      1.0  0.15746  0.16876  0.82594  1.0000
  H   H117      1.0  0.21431  0.20366  0.81499  1.0000
  C   C69       1.0  0.28197  0.13537  0.74729  1.0000
  H   H118      1.0  0.18956  0.16625  0.82043  1.0000
  H   H119      1.0  0.16042  0.03745  0.82166  1.0000
  H   H120      1.0  0.17139  0.21934  0.78309  1.0000
  C   C70       1.0  0.14442  0.14178  0.77765  1.0000
  H   H121      1.0  0.14729  0.04368  0.98875  1.0000
  H   H122      1.0  0.15765  0.21730  0.85027  1.0000
  C   C71       1.0  0.31286  0.13764  0.71594  1.0000
  C   C72       1.0  0.06392  0.27873  0.92337  1.0000
  H   H123      1.0  0.15608  0.23626  0.82347  1.0000
  H   H124      1.0  0.32302  0.12225  0.72424  1.0000
  C   C73       1.0  0.17612  0.04809  0.91194  1.0000
  H   H125      1.0  0.19286  0.05672  0.91788  1.0000
  H   H126      1.0  0.28895  0.15222  0.75618  1.0000
  H   H127      1.0  0.10718  0.03660  0.80589  1.0000
  C   C74       1.0  0.27694  0.11296  0.70969  1.0000
  H   H128      1.0  0.14954  0.22603  0.00409  1.0000
  C   C75       1.0  0.05434  0.24851  0.89277  1.0000
  N   N8        1.0  0.15303  0.26413  0.01253  1.0000
  N   N9        1.0  0.04452  0.26892  0.90734  1.0000
  H   H129      1.0  0.06130  0.23365  0.90470  1.0000
  H   H130      1.0  0.32060  0.15493  0.72325  1.0000
  H   H131      1.0  0.06970  0.25447  0.88092  1.0000
  H   H132      1.0  0.18165  0.26523  0.92878  1.0000
  H   H133      1.0  0.07070  0.26471  0.93633  1.0000
  H   H134      1.0  0.13480  0.04274  0.84129  1.0000
  S   S31       1.0  0.33940  0.33671  0.15020  1.0000
  H   H135      1.0  0.20289  0.34683  0.07809  1.0000
  H   H136      1.0  0.17929  0.50113  0.12511  1.0000
  H   H137      1.0  0.17760  0.48884  0.06971  1.0000
  H   H138      1.0  0.16768  0.37497  0.27493  1.0000
  H   H139      1.0  0.12486  0.48913  0.12721  1.0000
  H   H140      1.0  0.15589  0.46434  0.07268  1.0000
  C   C76       1.0  0.12815  0.42136  0.28554  1.0000
  H   H141      1.0  0.14974  0.46804  0.12820  1.0000
  H   H142      1.0  0.09857  0.52691  0.24714  1.0000
  C   C77       1.0  0.06049  0.39598  0.28422  1.0000
  H   H143      1.0  0.26524  0.41620  0.25365  1.0000
  H   H144      1.0  0.28721  0.34117  0.15122  1.0000
  C   C78       1.0  0.04354  0.42077  0.31639  1.0000
  S   S32       1.0  0.10722  0.43233  0.30730  1.0000
  H   H145      1.0  0.24767  0.39734  0.19095  1.0000
  H   H146      1.0  0.13260  0.49712  0.24793  1.0000
  H   H147      1.0  0.10034  0.51510  0.16904  1.0000
  H   H148      1.0  0.12228  0.49465  0.07224  1.0000
  H   H149      1.0  0.06851  0.41224  0.27506  1.0000
  C   C79       1.0  0.26028  0.36884  0.24431  1.0000
  C   C80       1.0  0.29492  0.35931  0.15112  1.0000
  C   C81       1.0  0.24683  0.38264  0.20484  1.0000
  C   C82       1.0  0.16332  0.37875  0.04284  1.0000
  C   C83       1.0  0.28806  0.39066  0.21775  1.0000
  C   C84       1.0  0.16153  0.52268  0.17622  1.0000
  H   H150      1.0  0.25243  0.36542  0.19579  1.0000
  H   H151      1.0  0.12626  0.46422  0.10592  1.0000
  C   C85       1.0  0.13738  0.47813  0.11574  1.0000
  Fe  Fe16      1.0  0.23021  0.42876  0.16086  1.0000
  S   S33       1.0  0.20335  0.39783  0.15952  1.0000
  S   S34       1.0  0.27117  0.42915  0.15643  1.0000
  Fe  Fe17      1.0  0.19080  0.46636  0.17285  1.0000
  S   S35       1.0  0.16077  0.43863  0.17296  1.0000
  S   S36       1.0  0.18875  0.50661  0.18020  1.0000
  Fe  Fe18      1.0  0.18730  0.41509  0.19333  1.0000
  S   S37       1.0  0.18102  0.39279  0.22750  1.0000
  Fe  Fe19      1.0  0.17934  0.42406  0.13922  1.0000
  S   S38       1.0  0.15724  0.41895  0.10472  1.0000
  S   S39       1.0  0.21583  0.44412  0.19592  1.0000
  S   S40       1.0  0.20753  0.45365  0.13790  1.0000
  H   H152      1.0  0.24109  0.36692  0.25074  1.0000
  H   H153      1.0  0.25718  0.42708  0.22387  1.0000
  H   H154      1.0  0.23493  0.41118  0.24199  1.0000
  H   H155      1.0  0.25993  0.37716  0.15223  1.0000
  N   N10       1.0  0.26249  0.38846  0.22599  1.0000
  H   H156      1.0  0.19143  0.37875  0.10802  1.0000
  C   C86       1.0  0.17992  0.36066  0.04938  1.0000
  C   C87       1.0  0.15757  0.39151  0.27171  1.0000
  H   H157      1.0  0.26586  0.35100  0.23654  1.0000
  H   H158      1.0  0.12215  0.51911  0.09407  1.0000
  N   N11       1.0  0.15132  0.49353  0.09854  1.0000
  C   C88       1.0  0.28938  0.40313  0.15221  1.0000
  C   C89       1.0  0.27946  0.37965  0.15187  1.0000
  H   H159      1.0  0.14712  0.51323  0.22345  1.0000
  C   C90       1.0  0.33011  0.38585  0.14917  1.0000
  C   C91       1.0  0.31471  0.40613  0.15067  1.0000
  Fe  Fe20      1.0  0.10521  0.41368  0.34410  1.0000
  H   H160      1.0  0.34963  0.38841  0.14819  1.0000
  H   H161      1.0  0.32250  0.42425  0.15084  1.0000
  H   H162      1.0  0.34675  0.31352  0.20026  1.0000
  H   H163      1.0  0.30056  0.39465  0.23324  1.0000
  C   C92       1.0  0.13924  0.51074  0.17287  1.0000
  C   C93       1.0  0.11766  0.52432  0.17114  1.0000
  H   H164      1.0  0.13857  0.49109  0.17224  1.0000
  C   C94       1.0  0.16067  0.40417  0.24965  1.0000
  C   C95       1.0  0.14749  0.42552  0.24561  1.0000
  H   H165      1.0  0.14976  0.43538  0.22867  1.0000
  H   H166      1.0  0.13917  0.39023  0.30662  1.0000
  C   C96       1.0  0.18358  0.37886  0.08991  1.0000
  C   C97       1.0  0.16663  0.39668  0.08353  1.0000
  C   C98       1.0  0.13420  0.50719  0.08292  1.0000
  H   H167      1.0  0.05723  0.41395  0.32957  1.0000
  C   C99       1.0  0.32029  0.36238  0.14973  1.0000
  C   C100      1.0  0.13117  0.43400  0.26345  1.0000
  H   H168      1.0  0.22744  0.38051  0.21029  1.0000
  C   C101      1.0  0.14141  0.40011  0.28966  1.0000
  C   C102      1.0  0.16671  0.51080  0.11246  1.0000
  H   H169      1.0  0.27185  0.37255  0.26060  1.0000
  H   H170      1.0  0.12088  0.45039  0.26014  1.0000
  H   H171      1.0  0.14335  0.41025  0.05493  1.0000
  H   H172      1.0  0.29022  0.40566  0.20420  1.0000
  C   C103      1.0  0.15653  0.39657  0.05996  1.0000
  C   C104      1.0  0.19002  0.36076  0.07294  1.0000
  C   C105      1.0  0.16689  0.47796  0.08306  1.0000
  S   S41       1.0  0.08911  0.37658  0.34949  1.0000
  H   H173      1.0  0.29439  0.37372  0.20858  1.0000
  C   C106      1.0  0.14522  0.51242  0.24364  1.0000
  C   C107      1.0  0.25462  0.41173  0.23692  1.0000
  H   H174      1.0  0.04153  0.37235  0.32277  1.0000
  H   H175      1.0  0.07478  0.38887  0.29675  1.0000
  H   H176      1.0  0.05130  0.43762  0.30815  1.0000
  H   H177      1.0  0.18002  0.46738  0.09427  1.0000
  H   H178      1.0  0.34315  0.28491  0.16645  1.0000
  H   H179      1.0  0.16345  0.50771  0.25112  1.0000
  H   H180      1.0  0.12122  0.51901  0.28579  1.0000
  H   H181      1.0  0.17808  0.52224  0.10015  1.0000
  H   H182      1.0  0.15548  0.52328  0.12381  1.0000
  H   H183      1.0  0.05712  0.38191  0.26999  1.0000
  H   H184      1.0  0.14408  0.51904  0.06971  1.0000
  N   N12       1.0  0.03798  0.40219  0.29766  1.0000
  H   H185      1.0  0.15196  0.52986  0.28912  1.0000
  S   S42       1.0  0.14052  0.33783  0.38169  1.0000
  H   H186      1.0  0.10473  0.33261  0.42092  1.0000
  C   C108      1.0  0.13460  0.31457  0.40312  1.0000
  H   H187      1.0  0.14069  0.36787  0.46154  1.0000
  H   H188      1.0  0.10546  0.52067  0.38455  1.0000
  C   C109      1.0  0.11622  0.31670  0.42067  1.0000
  H   H189      1.0  0.17970  0.34575  0.45947  1.0000
  H   H190      1.0  0.17020  0.37902  0.40145  1.0000
  H   H191      1.0  0.20355  0.35626  0.43949  1.0000
  Fe  Fe21      1.0  0.11706  0.37146  0.37885  1.0000
  H   H192      1.0  0.20168  0.39751  0.45862  1.0000
  H   H193      1.0  0.19699  0.39316  0.41383  1.0000
  H   H194      1.0  0.09888  0.30012  0.45196  1.0000
  S   S43       1.0  0.09349  0.38617  0.40880  1.0000
  C   C110      1.0  0.14924  0.29371  0.40292  1.0000
  Fe  Fe22      1.0  0.11058  0.42230  0.39885  1.0000
  S   S44       1.0  0.12914  0.44585  0.42735  1.0000
  C   C111      1.0  0.14537  0.37650  0.44376  1.0000
  H   H195      1.0  0.13604  0.39446  0.44303  1.0000
  C   C112      1.0  0.13021  0.47752  0.42149  1.0000
  C   C113      1.0  0.11633  0.48771  0.40271  1.0000
  C   C114      1.0  0.11662  0.51298  0.39885  1.0000
  H   H196      1.0  0.16354  0.29197  0.38944  1.0000
  C   C115      1.0  0.14542  0.51815  0.43191  1.0000
  C   C116      1.0  0.14480  0.49282  0.43605  1.0000
  H   H197      1.0  0.17793  0.38706  0.47872  1.0000
  Fe  Fe23      1.0  0.06665  0.39423  0.37887  1.0000
  H   H198      1.0  0.15556  0.48510  0.45064  1.0000
  C   C117      1.0  0.17711  0.39054  0.41674  1.0000
  H   H199      1.0  0.17638  0.34283  0.42699  1.0000
  H   H200      1.0  0.16832  0.40873  0.41516  1.0000
  H   H201      1.0  0.13753  0.36487  0.42908  1.0000
  C   C118      1.0  0.18165  0.39494  0.46036  1.0000
  H   H202      1.0  0.17314  0.41335  0.45982  1.0000
  N   N13       1.0  0.17194  0.37923  0.44068  1.0000
  C   C119      1.0  0.18346  0.35498  0.44176  1.0000
  H   H203      1.0  0.10503  0.47619  0.39140  1.0000
  C   C120      1.0  0.11289  0.29826  0.43820  1.0000
  S   S45       1.0  0.08127  0.43184  0.37192  1.0000
  H   H204      1.0  0.15653  0.52982  0.44332  1.0000
  C   C121      1.0  0.13110  0.52831  0.41341  1.0000
  S   S46       1.0  0.13561  0.40702  0.37044  1.0000
  H   H205      1.0  0.03336  0.39963  0.42574  1.0000
  H   H206      1.0  0.20403  0.43788  0.91755  1.0000
  S   S47       1.0  0.19394  0.31596  0.96320  1.0000
  Fe  Fe24      1.0  0.15647  0.31435  0.94696  1.0000
  H   H207      1.0  0.13226  0.28982  0.99170  1.0000
  H   H208      1.0  0.28410  0.36335  0.90158  1.0000
  H   H209      1.0  0.11027  0.35081  0.92622  1.0000
  C   C122      1.0  0.20312  0.43671  0.89724  1.0000
  H   H210      1.0  0.28732  0.36419  0.98693  1.0000
  Fe  Fe25      1.0  0.17812  0.34329  0.98919  1.0000
  H   H211      1.0  0.21955  0.42655  0.89109  1.0000
  S   S48       1.0  0.23565  0.35225  0.91757  1.0000
  S   S49       1.0  0.14022  0.33986  0.97450  1.0000
  C   C123      1.0  0.17953  0.39971  0.89939  1.0000
  H   H212      1.0  0.19550  0.38860  0.89366  1.0000
  H   H213      1.0  0.31714  0.50059  0.91550  1.0000
  H   H214      1.0  0.31664  0.42485  0.99533  1.0000
  C   C124      1.0  0.09619  0.36328  0.92061  1.0000
  S   S50       1.0  0.16455  0.34361  0.91961  1.0000
  H   H215      1.0  0.07258  0.33486  0.90728  1.0000
  C   C125      1.0  0.07477  0.35422  0.90993  1.0000
  Fe  Fe26      1.0  0.20054  0.34813  0.93876  1.0000
  H   H216      1.0  0.04493  0.40751  0.90060  1.0000
  H   H217      1.0  0.05737  0.29451  0.93427  1.0000
  H   H218      1.0  0.05092  0.29579  0.87939  1.0000
  S   S51       1.0  0.18777  0.33729  0.02877  1.0000
  H   H219      1.0  0.20450  0.45552  0.88990  1.0000
  S   S52       1.0  0.18759  0.37564  0.96601  1.0000
  Fe  Fe27      1.0  0.33947  0.44605  0.91636  1.0000
  H   H220      1.0  0.28281  0.39476  0.99768  1.0000
  S   S53       1.0  0.29900  0.44888  0.92344  1.0000
  H   H221      1.0  0.34536  0.41619  0.98241  1.0000
  C   C126      1.0  0.33131  0.37196  0.96675  1.0000
  H   H222      1.0  0.36382  0.52884  0.92551  1.0000
  N   N14       1.0  0.31925  0.38701  0.98555  1.0000
  C   C127      1.0  0.32779  0.37962  0.01007  1.0000
  H   H223      1.0  0.32521  0.37702  0.94802  1.0000
  H   H224      1.0  0.28560  0.38880  0.96557  1.0000
  H   H225      1.0  0.16305  0.41396  0.85560  1.0000
  C   C128      1.0  0.08081  0.40427  0.91665  1.0000
  C   C129      1.0  0.09931  0.38832  0.92395  1.0000
  C   C130      1.0  0.27690  0.37948  0.91029  1.0000
  H   H226      1.0  0.15887  0.43966  0.91821  1.0000
  C   C131      1.0  0.24411  0.39997  0.93126  1.0000
  C   C132      1.0  0.25826  0.42134  0.93212  1.0000
  C   C133      1.0  0.28181  0.42178  0.92220  1.0000
  C   C134      1.0  0.29121  0.40072  0.91150  1.0000
  C   C135      1.0  0.17998  0.42309  0.86219  1.0000
  H   H227      1.0  0.30931  0.40092  0.90368  1.0000
  H   H228      1.0  0.18071  0.44150  0.85377  1.0000
  H   H229      1.0  0.08307  0.42365  0.91927  1.0000
  Fe  Fe28      1.0  0.15108  0.36923  0.94839  1.0000
  H   H230      1.0  0.34776  0.38238  0.01199  1.0000
  C   C136      1.0  0.13817  0.28641  0.01083  1.0000
  H   H231      1.0  0.31909  0.41914  0.96315  1.0000
  S   S54       1.0  0.12643  0.39973  0.93695  1.0000
  H   H232      1.0  0.34069  0.50674  0.89366  1.0000
  H   H233      1.0  0.19572  0.41249  0.85509  1.0000
  C   C137      1.0  0.32533  0.41292  0.98145  1.0000
  H   H234      1.0  0.25100  0.43754  0.94061  1.0000
  H   H235      1.0  0.16265  0.38998  0.89359  1.0000
  H   H236      1.0  0.22603  0.39982  0.93896  1.0000
  N   N15       1.0  0.18046  0.42452  0.88915  1.0000
  H   H237      1.0  0.34018  0.52363  0.94743  1.0000
  H   H238      1.0  0.14170  0.42935  0.89250  1.0000
  H   H239      1.0  0.15538  0.37876  0.02474  1.0000
  H   H240      1.0  0.35953  0.37784  0.72762  1.0000
  C   C138      1.0  0.05921  0.39517  0.90612  1.0000
  C   C139      1.0  0.15913  0.43839  0.89787  1.0000
  C   C140      1.0  0.25330  0.37902  0.92012  1.0000
  H   H241      1.0  0.07994  0.28514  0.91259  1.0000
  H   H242      1.0  0.17937  0.40016  0.91969  1.0000
  C   C141      1.0  0.05621  0.37009  0.90270  1.0000
  H   H243      1.0  0.35146  0.37420  0.96738  1.0000
  C   C142      1.0  0.29258  0.38354  0.98390  1.0000
  H   H244      1.0  0.15895  0.45720  0.89044  1.0000
  C   C143      1.0  0.32371  0.51413  0.90184  1.0000
  H   H245      1.0  0.30993  0.51498  0.88696  1.0000
  H   H246      1.0  0.14856  0.30275  0.01706  1.0000
  H   H247      1.0  0.31887  0.39039  0.02476  1.0000
  H   H248      1.0  0.32723  0.35227  0.96933  1.0000
  H   H249      1.0  0.34711  0.36823  0.77027  1.0000
  S   S55       1.0  0.35853  0.45305  0.88084  1.0000
  H   H250      1.0  0.32401  0.36003  0.01367  1.0000
  H   H251      1.0  0.36367  0.34008  0.76859  1.0000
  H   H252      1.0  0.12146  0.28511  0.02223  1.0000
  C   C144      1.0  0.03587  0.28837  0.89084  1.0000
  S   S56       1.0  0.36177  0.47370  0.93656  1.0000
  S   S57       1.0  0.36311  0.41459  0.92683  1.0000
  H   H253      1.0  0.18645  0.28279  0.00419  1.0000
  S   S58       1.0  0.13227  0.28163  0.93993  1.0000
  Fe  Fe29      1.0  0.09244  0.60156  0.19489  1.0000
  S   S59       1.0  0.06882  0.60343  0.22827  1.0000
  S   S60       1.0  0.09106  0.56635  0.17350  1.0000
  Fe  Fe30      1.0  0.11319  0.65222  0.20354  1.0000
  S   S61       1.0  0.09210  0.65771  0.23823  1.0000
  Fe  Fe31      1.0  0.10186  0.61898  0.24676  1.0000
  Fe  Fe32      1.0  0.06101  0.64167  0.21668  1.0000
  S   S62       1.0  0.12604  0.61478  0.21408  1.0000
  S   S63       1.0  0.08151  0.63864  0.18138  1.0000
  H   H254      1.0  0.09822  0.62920  0.34029  1.0000
  C   C145      1.0  0.12550  0.70803  0.17872  1.0000
  C   C146      1.0  0.09577  0.62655  0.36032  1.0000
  H   H255      1.0  0.14328  0.76430  0.24961  1.0000
  C   C147      1.0  0.10192  0.71422  0.18601  1.0000
  C   C148      1.0  0.09374  0.58289  0.35575  1.0000
  C   C149      1.0  0.16223  0.54811  0.17747  1.0000
  C   C150      1.0  0.14070  0.56162  0.17600  1.0000
  C   C151      1.0  0.11834  0.54978  0.17316  1.0000
  H   H256      1.0  0.17948  0.55742  0.17989  1.0000
  H   H257      1.0  0.14146  0.58124  0.17690  1.0000
  C   C152      1.0  0.15991  0.77548  0.24624  1.0000
  H   H258      1.0  0.04519  0.67732  0.13668  1.0000
  C   C153      1.0  0.12955  0.74738  0.15851  1.0000
  H   H259      1.0  0.18549  0.74264  0.22055  1.0000
  H   H260      1.0  0.17486  0.75168  0.19093  1.0000
  H   H261      1.0  0.17505  0.76732  0.25697  1.0000
  C   C154      1.0  0.09226  0.73699  0.17969  1.0000
  H   H262      1.0  0.14022  0.76002  0.14775  1.0000
  H   H263      1.0  0.10495  0.55888  0.24998  1.0000
  S   S64       1.0  0.13886  0.68054  0.18812  1.0000
  S   S65       1.0  0.11204  0.60054  0.28224  1.0000
  H   H264      1.0  0.09137  0.70164  0.19697  1.0000
  H   H265      1.0  0.08404  0.56576  0.36064  1.0000
  N   N16       1.0  0.24990  0.63712  0.36137  1.0000
  H   H266      1.0  0.05693  0.69418  0.16231  1.0000
  H   H267      1.0  0.12718  0.55104  0.28855  1.0000
  C   C155      1.0  0.13407  0.53380  0.28046  1.0000
  C   C156      1.0  0.26973  0.64551  0.34514  1.0000
  C   C157      1.0  0.23100  0.62455  0.34675  1.0000
  C   C158      1.0  0.13229  0.61540  0.30217  1.0000
  C   C159      1.0  0.14200  0.60229  0.32181  1.0000
  C   C160      1.0  0.15569  0.61415  0.33989  1.0000
  C   C161      1.0  0.16027  0.63910  0.33809  1.0000
  C   C162      1.0  0.15164  0.65203  0.31778  1.0000
  C   C163      1.0  0.13749  0.64021  0.29988  1.0000
  H   H268      1.0  0.13847  0.58300  0.32341  1.0000
  N   N17       1.0  0.13627  0.53574  0.25360  1.0000
  H   H269      1.0  0.15523  0.67134  0.31629  1.0000
  H   H270      1.0  0.23852  0.60864  0.33677  1.0000
  H   H271      1.0  0.05863  0.60891  0.33387  1.0000
  H   H272      1.0  0.11319  0.54305  0.22272  1.0000
  H   H273      1.0  0.16241  0.60399  0.35536  1.0000
  C   C164      1.0  0.11219  0.54133  0.24294  1.0000
  H   H274      1.0  0.15728  0.71966  0.15878  1.0000
  H   H275      1.0  0.13010  0.65043  0.28471  1.0000
  C   C165      1.0  0.10614  0.75372  0.16618  1.0000
  H   H276      1.0  0.22260  0.63701  0.33311  1.0000
  H   H277      1.0  0.14750  0.57328  0.25474  1.0000
  C   C166      1.0  0.13914  0.72453  0.16470  1.0000
  C   C167      1.0  0.15362  0.55542  0.24739  1.0000
  H   H278      1.0  0.07424  0.74189  0.18585  1.0000
  C   C168      1.0  0.04008  0.68628  0.15417  1.0000
  H   H279      1.0  0.04559  0.59029  0.35754  1.0000
  C   C169      1.0  0.17020  0.75156  0.21073  1.0000
  H   H280      1.0  0.09514  0.58373  0.33546  1.0000
  H   H281      1.0  0.28423  0.65517  0.35567  1.0000
  S   S66       1.0  0.17612  0.65434  0.36146  1.0000
  H   H282      1.0  0.17208  0.55178  0.25486  1.0000
  H   H283      1.0  0.27846  0.62998  0.33551  1.0000
  H   H284      1.0  0.26283  0.65834  0.33103  1.0000
  H   H285      1.0  0.15545  0.55756  0.22726  1.0000
  H   H286      1.0  0.15381  0.73975  0.21301  1.0000
  H   H287      1.0  0.21590  0.61783  0.35853  1.0000
  H   H288      1.0  0.04711  0.73292  0.14111  1.0000
  H   H289      1.0  0.04698  0.62280  0.36119  1.0000
  C   C170      1.0  0.05699  0.60672  0.35407  1.0000
  N   N18       1.0  0.16583  0.77646  0.21991  1.0000
  H   H290      1.0  0.23062  0.67114  0.36052  1.0000
  H   H291      1.0  0.11255  0.58137  0.36322  1.0000
  H   H292      1.0  0.12828  0.77642  0.20855  1.0000
  N   N19       1.0  0.08120  0.60450  0.36564  1.0000
  H   H293      1.0  0.03537  0.71602  0.11558  1.0000
  H   H294      1.0  0.03368  0.67173  0.16679  1.0000
  Fe  Fe33      1.0  0.15903  0.63664  0.45104  1.0000
  S   S67       1.0  0.17242  0.59889  0.45900  1.0000
  S   S68       1.0  0.14442  0.66458  0.47744  1.0000
  Fe  Fe34      1.0  0.17481  0.63408  0.39720  1.0000
  S   S69       1.0  0.19016  0.59669  0.40127  1.0000
  N   N20       1.0  0.22267  0.77601  0.67406  1.0000
  Fe  Fe35      1.0  0.15598  0.58869  0.42244  1.0000
  H   H295      1.0  0.34088  0.67813  0.63430  1.0000
  Fe  Fe36      1.0  0.20514  0.61062  0.43688  1.0000
  S   S70       1.0  0.24373  0.60366  0.44947  1.0000
  S   S71       1.0  0.13996  0.62587  0.41645  1.0000
  S   S72       1.0  0.19243  0.64872  0.43097  1.0000
  S   S73       1.0  0.32508  0.68397  0.43154  1.0000
  C   C171      1.0  0.30262  0.66200  0.43819  1.0000
  C   C172      1.0  0.30837  0.63981  0.44925  1.0000
  C   C173      1.0  0.29016  0.62206  0.45276  1.0000
  C   C174      1.0  0.26609  0.62651  0.44549  1.0000
  C   C175      1.0  0.26030  0.64901  0.43518  1.0000
  C   C176      1.0  0.27850  0.66658  0.43137  1.0000
  H   H296      1.0  0.32693  0.63608  0.45458  1.0000
  H   H297      1.0  0.29484  0.60475  0.46087  1.0000
  H   H298      1.0  0.24195  0.65283  0.42969  1.0000
  H   H299      1.0  0.27393  0.68386  0.42312  1.0000
  C   C177      1.0  0.14955  0.63672  0.51897  1.0000
  C   C178      1.0  0.14700  0.66004  0.50920  1.0000
  C   C179      1.0  0.27512  0.67325  0.68018  1.0000
  H   H300      1.0  0.14940  0.62106  0.50699  1.0000
  H   H301      1.0  0.26076  0.66163  0.51138  1.0000
  H   H302      1.0  0.22219  0.60793  0.49769  1.0000
  C   C180      1.0  0.23902  0.65833  0.37380  1.0000
  Fe  Fe37      1.0  0.36095  0.68167  0.45158  1.0000
  H   H303      1.0  0.31189  0.63000  0.58003  1.0000
  H   H304      1.0  0.22277  0.64830  0.55204  1.0000
  C   C181      1.0  0.21608  0.61871  0.51379  1.0000
  H   H305      1.0  0.27481  0.62877  0.39055  1.0000
  H   H306      1.0  0.26000  0.63432  0.52960  1.0000
  H   H307      1.0  0.22381  0.67514  0.48952  1.0000
  C   C182      1.0  0.21736  0.65742  0.53473  1.0000
  H   H308      1.0  0.32879  0.66942  0.56766  1.0000
  C   C183      1.0  0.25272  0.64306  0.51280  1.0000
  C   C184      1.0  0.15184  0.63361  0.54435  1.0000
  H   H309      1.0  0.09627  0.59965  0.40153  1.0000
  H   H310      1.0  0.30831  0.65342  0.68677  1.0000
  H   H311      1.0  0.18506  0.77516  0.68474  1.0000
  H   H312      1.0  0.04479  0.67110  0.64442  1.0000
  C   C185      1.0  0.21707  0.65607  0.49070  1.0000
  H   H313      1.0  0.19681  0.65665  0.49001  1.0000
  N   N21       1.0  0.22581  0.64382  0.51304  1.0000
  H   H314      1.0  0.25956  0.63241  0.49690  1.0000
  Fe  Fe38      1.0  0.34051  0.60817  0.67704  1.0000
  S   S74       1.0  0.18676  0.70985  0.62003  1.0000
  H   H315      1.0  0.13127  0.75994  0.67735  1.0000
  H   H316      1.0  0.28953  0.65904  0.62256  1.0000
  H   H317      1.0  0.33936  0.62265  0.59611  1.0000
  H   H318      1.0  0.08618  0.59411  0.60897  1.0000
  H   H319      1.0  0.15371  0.61549  0.55182  1.0000
  H   H320      1.0  0.19585  0.61855  0.51362  1.0000
  H   H321      1.0  0.22338  0.64639  0.47407  1.0000
  H   H322      1.0  0.22209  0.60892  0.53051  1.0000
  Fe  Fe39      1.0  0.19460  0.69661  0.65793  1.0000
  H   H323      1.0  0.24562  0.61420  0.39303  1.0000
  S   S75       1.0  0.16874  0.66510  0.65581  1.0000
  Fe  Fe40      1.0  0.14010  0.69053  0.66980  1.0000
  S   S76       1.0  0.11454  0.67919  0.70006  1.0000
  C   C186      1.0  0.14914  0.67713  0.55036  1.0000
  C   C187      1.0  0.15173  0.65379  0.56009  1.0000
  H   H324      1.0  0.06742  0.58535  0.39709  1.0000
  H   H325      1.0  0.06931  0.61791  0.40065  1.0000
  S   S77       1.0  0.30226  0.60713  0.66148  1.0000
  S   S78       1.0  0.12843  0.70363  0.63279  1.0000
  C   C188      1.0  0.33796  0.67088  0.58574  1.0000
  H   H326      1.0  0.31085  0.62152  0.61176  1.0000
  C   C189      1.0  0.05131  0.66904  0.66296  1.0000
  H   H327      1.0  0.14895  0.69278  0.56237  1.0000
  C   C190      1.0  0.08380  0.67325  0.69281  1.0000
  C   C191      1.0  0.07502  0.67653  0.66906  1.0000
  S   S79       1.0  0.36150  0.64257  0.68366  1.0000
  S   S80       1.0  0.23329  0.69882  0.67188  1.0000
  H   H328      1.0  0.08722  0.57989  0.63859  1.0000
  C   C192      1.0  0.33821  0.65902  0.62813  1.0000
  C   C193      1.0  0.25180  0.67279  0.66971  1.0000
  S   S81       1.0  0.36409  0.69695  0.48956  1.0000
  C   C194      1.0  0.29049  0.65295  0.67841  1.0000
  C   C195      1.0  0.28272  0.63213  0.66589  1.0000
  C   C196      1.0  0.25938  0.63166  0.65542  1.0000
  C   C197      1.0  0.24392  0.65191  0.65735  1.0000
  H   H329      1.0  0.08119  0.64587  0.62678  1.0000
  H   H330      1.0  0.21557  0.74399  0.69552  1.0000
  H   H331      1.0  0.25326  0.61559  0.64573  1.0000
  H   H332      1.0  0.22596  0.65139  0.64923  1.0000
  H   H333      1.0  0.14447  0.69829  0.51748  1.0000
  C   C198      1.0  0.10117  0.61964  0.66355  1.0000
  C   C199      1.0  0.08499  0.59757  0.62899  1.0000
  H   H334      1.0  0.08253  0.62588  0.66845  1.0000
  H   H335      1.0  0.11306  0.65266  0.62981  1.0000
  N   N22       1.0  0.32445  0.65766  0.60497  1.0000
  H   H336      1.0  0.08659  0.68436  0.65526  1.0000
  N   N23       1.0  0.10353  0.61546  0.63696  1.0000
  H   H337      1.0  0.25282  0.66864  0.38456  1.0000
  H   H338      1.0  0.30179  0.68809  0.61436  1.0000
  C   C200      1.0  0.30024  0.66881  0.60834  1.0000
  C   C201      1.0  0.22998  0.75807  0.69276  1.0000
  H   H339      1.0  0.10473  0.60281  0.67420  1.0000
  H   H340      1.0  0.35659  0.66344  0.58355  1.0000
  H   H341      1.0  0.24679  0.74819  0.68727  1.0000
  C   C202      1.0  0.09979  0.63858  0.62374  1.0000
  H   H342      1.0  0.32853  0.64911  0.64292  1.0000
  H   H343      1.0  0.28944  0.66833  0.59116  1.0000
  H   H344      1.0  0.06622  0.60420  0.63292  1.0000
  C   C203      1.0  0.32146  0.63187  0.59783  1.0000
  H   H345      1.0  0.10234  0.63631  0.60367  1.0000
  H   H346      1.0  0.14247  0.61933  0.63733  1.0000
  H   H347      1.0  0.13071  0.60316  0.61155  1.0000
  H   H348      1.0  0.13170  0.58865  0.64106  1.0000
  Fe  Fe41      1.0  0.15746  0.73217  0.63813  1.0000
  C   C204      1.0  0.12814  0.60613  0.63152  1.0000
  H   H349      1.0  0.22429  0.65264  0.38654  1.0000
  Fe  Fe42      1.0  0.15877  0.67991  0.61882  1.0000
  H   H350      1.0  0.34005  0.69051  0.59029  1.0000
  H   H351      1.0  0.11422  0.63382  0.67007  1.0000
  S   S82       1.0  0.16705  0.72060  0.67607  1.0000
  C   C205      1.0  0.14661  0.68021  0.52496  1.0000
  S   S83       1.0  0.15543  0.64895  0.59166  1.0000
  S   S84       1.0  0.15445  0.77266  0.63131  1.0000
  H   H352      1.0  0.22476  0.67629  0.53500  1.0000
  H   H353      1.0  0.19717  0.65893  0.53491  1.0000
  S   S85       1.0  0.12964  0.56003  0.40828  1.0000
  C   C206      1.0  0.07832  0.60180  0.39237  1.0000
  H   H354      1.0  0.35658  0.65067  0.62637  1.0000
  H   H355      1.0  0.20311  0.74990  0.65244  1.0000
  H   H356      1.0  0.28126  0.68929  0.68989  1.0000
  C   C207      1.0  0.21806  0.76340  0.65063  1.0000
  C   C208      1.0  0.13392  0.77943  0.67680  1.0000
  C   C209      1.0  0.03601  0.65881  0.68070  1.0000
  C   C210      1.0  0.25986  0.62016  0.37978  1.0000
  H   H357      1.0  0.26743  0.60351  0.37114  1.0000
  H   H358      1.0  0.23438  0.75329  0.64422  1.0000
  H   H359      1.0  0.11426  0.62541  0.36854  1.0000
  H   H360      1.0  0.21240  0.77632  0.63603  1.0000
  H   H361      1.0  0.08705  0.64323  0.36775  1.0000
  C   C211      1.0  0.04432  0.65658  0.70475  1.0000
  H   H362      1.0  0.34044  0.57381  0.90212  1.0000
  N   N24       1.0  0.32796  0.53826  0.91308  1.0000
  S   S86       1.0  0.35152  0.59160  0.71270  1.0000
  C   C212      1.0  0.30492  0.54733  0.92357  1.0000
  H   H363      1.0  0.29772  0.53462  0.93770  1.0000
  H   H364      1.0  0.29065  0.54926  0.90925  1.0000
  H   H365      1.0  0.07489  0.66112  0.72919  1.0000
  H   H366      1.0  0.30750  0.56543  0.93237  1.0000
  C   C213      1.0  0.33682  0.55546  0.89427  1.0000
  C   C214      1.0  0.34637  0.53615  0.93268  1.0000
  H   H367      1.0  0.32347  0.55749  0.87912  1.0000
  H   H368      1.0  0.23347  0.76683  0.71074  1.0000
  H   H369      1.0  0.35418  0.54913  0.88600  1.0000
  C   C215      1.0  0.06826  0.66362  0.71074  1.0000
  H   H370      1.0  0.35058  0.55410  0.94113  1.0000
  H   H371      1.0  0.03260  0.64868  0.71855  1.0000
  Fe  Fe43      1.0  0.11471  0.86872  0.14649  1.0000
  S   S87       1.0  0.10524  0.83945  0.11950  1.0000
  S   S88       1.0  0.08708  0.89841  0.15152  1.0000
  Fe  Fe44      1.0  0.16309  0.84569  0.16006  1.0000
  S   S89       1.0  0.15700  0.81412  0.13466  1.0000
  S   S90       1.0  0.19768  0.84458  0.18265  1.0000
  Fe  Fe45      1.0  0.14435  0.84267  0.10811  1.0000
  S   S91       1.0  0.15981  0.84099  0.06997  1.0000
  Fe  Fe46      1.0  0.11852  0.81377  0.14842  1.0000
  H   H372      1.0  0.35721  0.90087  0.32944  1.0000
  S   S92       1.0  0.15293  0.87423  0.13262  1.0000
  S   S93       1.0  0.12550  0.84300  0.17627  1.0000
  Fe  Fe47      1.0  0.31664  0.92703  0.18085  1.0000
  S   S94       1.0  0.34460  0.89750  0.18454  1.0000
  S   S95       1.0  0.27941  0.92440  0.16291  1.0000
  Fe  Fe48      1.0  0.35169  0.96629  0.19966  1.0000
  C   C216      1.0  0.18791  0.79147  0.21617  1.0000
  Fe  Fe49      1.0  0.35409  0.91530  0.22049  1.0000
  H   H373      1.0  0.05101  0.80255  0.13460  1.0000
  S   S96       1.0  0.34237  0.95303  0.16206  1.0000
  S   S97       1.0  0.32380  0.94261  0.21821  1.0000
  C   C217      1.0  0.13254  0.90140  0.03675  1.0000
  H   H374      1.0  0.05849  0.86938  0.23126  1.0000
  H   H375      1.0  0.33741  0.93971  0.31987  1.0000
  H   H376      1.0  0.33831  0.89855  0.07957  1.0000
  H   H377      1.0  0.33961  0.96485  0.34083  1.0000
  C   C218      1.0  0.22786  0.85865  0.06768  1.0000
  H   H378      1.0  0.19981  0.83971  0.10309  1.0000
  H   H379      1.0  0.04647  0.93714  0.19692  1.0000
  H   H380      1.0  0.12659  0.88249  0.07095  1.0000
  H   H381      1.0  0.15652  0.79400  0.25374  1.0000
  C   C219      1.0  0.21997  0.86758  0.17863  1.0000
  C   C220      1.0  0.24362  0.86416  0.18779  1.0000
  C   C221      1.0  0.26196  0.88173  0.18378  1.0000
  C   C222      1.0  0.25670  0.90285  0.17058  1.0000
  C   C223      1.0  0.23293  0.90645  0.16187  1.0000
  C   C224      1.0  0.21464  0.88895  0.16591  1.0000
  H   H382      1.0  0.24788  0.84773  0.19776  1.0000
  H   H383      1.0  0.28022  0.87878  0.19056  1.0000
  H   H384      1.0  0.22868  0.92286  0.15185  1.0000
  H   H385      1.0  0.19639  0.89208  0.15931  1.0000
  C   C225      1.0  0.06486  0.89115  0.17333  1.0000
  C   C226      1.0  0.07139  0.88179  0.19616  1.0000
  C   C227      1.0  0.05334  0.87638  0.21352  1.0000
  H   H386      1.0  0.09039  0.87909  0.20058  1.0000
  H   H387      1.0  0.32198  0.93841  0.34882  1.0000
  H   H388      1.0  0.26397  0.86171  0.10061  1.0000
  H   H389      1.0  0.05156  0.96736  0.18569  1.0000
  C   C228      1.0  0.35907  0.90677  0.34883  1.0000
  H   H390      1.0  0.21008  0.85157  0.06088  1.0000
  H   H391      1.0  0.34311  0.89946  0.35902  1.0000
  S   S98       1.0  0.36347  0.88404  0.03656  1.0000
  C   C229      1.0  0.24992  0.87620  0.10163  1.0000
  C   C230      1.0  0.04267  0.95670  0.20052  1.0000
  H   H392      1.0  0.35220  0.91061  0.12094  1.0000
  C   C231      1.0  0.35758  0.89899  0.08366  1.0000
  H   H393      1.0  0.18963  0.88105  0.08833  1.0000
  H   H394      1.0  0.19280  0.79270  0.19644  1.0000
  C   C232      1.0  0.13692  0.88299  0.05413  1.0000
  C   C233      1.0  0.15418  0.86495  0.04931  1.0000
  H   H395      1.0  0.21335  0.90278  0.08259  1.0000
  C   C234      1.0  0.33896  0.94462  0.33958  1.0000
  H   H396      1.0  0.11882  0.91500  0.04031  1.0000
  C   C235      1.0  0.04181  0.82529  0.17694  1.0000
  H   H397      1.0  0.23093  0.83166  0.10868  1.0000
  S   S99       1.0  0.36077  0.89164  0.25374  1.0000
  H   H398      1.0  0.25639  0.89186  0.09047  1.0000
  N   N25       1.0  0.36076  0.93355  0.35081  1.0000
  H   H399      1.0  0.23355  0.87355  0.05513  1.0000
  N   N26       1.0  0.22590  0.86728  0.09320  1.0000
  C   C236      1.0  0.20798  0.88724  0.09446  1.0000
  H   H400      1.0  0.18522  0.81049  0.22270  1.0000
  H   H401      1.0  0.21581  0.85289  0.12836  1.0000
  H   H402      1.0  0.24128  0.84364  0.06596  1.0000
  H   H403      1.0  0.24921  0.88241  0.12097  1.0000
  H   H404      1.0  0.14137  0.80611  0.21307  1.0000
  H   H405      1.0  0.05182  0.96146  0.21804  1.0000
  C   C237      1.0  0.21780  0.84700  0.10902  1.0000
  H   H406      1.0  0.20605  0.89426  0.11343  1.0000
  H   H407      1.0  0.05745  0.81271  0.17904  1.0000
  H   H408      1.0  0.20390  0.78391  0.22602  1.0000
  S   S100      1.0  0.35360  0.00637  0.20853  1.0000
  H   H409      1.0  0.04945  0.84295  0.17074  1.0000
  H   H410      1.0  0.14917  0.78867  0.18655  1.0000
  H   H411      1.0  0.04107  0.83291  0.12852  1.0000
  C   C238      1.0  0.14525  0.78738  0.20647  1.0000
  C   C239      1.0  0.03477  0.81464  0.13475  1.0000
  C   C240      1.0  0.04025  0.89483  0.16783  1.0000
  S   S101      1.0  0.09384  0.78256  0.15985  1.0000
  H   H412      1.0  0.03515  0.90184  0.15008  1.0000
  H   H413      1.0  0.03373  0.82808  0.19540  1.0000
  H   H414      1.0  0.07388  0.87170  0.68634  1.0000
  S   S102      1.0  0.05679  0.92358  0.67834  1.0000
  H   H415      1.0  0.06532  0.88278  0.64422  1.0000
  H   H416      1.0  0.20387  0.02832  0.67110  1.0000
  H   H417      1.0  0.36273  0.96085  0.37898  1.0000
  C   C241      1.0  0.14019  0.83005  0.67575  1.0000
  C   C242      1.0  0.14657  0.81579  0.65537  1.0000
  S   S103      1.0  0.12076  0.89999  0.68641  1.0000
  C   C243      1.0  0.19183  0.99242  0.68196  1.0000
  H   H418      1.0  0.14286  0.84955  0.67529  1.0000
  H   H419      1.0  0.15424  0.82440  0.63932  1.0000
  H   H420      1.0  0.24625  0.80405  0.68804  1.0000
  C   C244      1.0  0.18850  0.01608  0.67274  1.0000
  C   C245      1.0  0.14561  0.00744  0.66719  1.0000
  C   C246      1.0  0.14886  0.98398  0.67678  1.0000
  H   H421      1.0  0.05088  0.86148  0.62384  1.0000
  C   C247      1.0  0.08309  0.83768  0.65181  1.0000
  H   H422      1.0  0.13353  0.97165  0.67808  1.0000
  H   H423      1.0  0.08268  0.83099  0.63262  1.0000
  S   S104      1.0  0.17662  0.94666  0.69532  1.0000
  H   H424      1.0  0.04548  0.81213  0.67033  1.0000
  H   H425      1.0  0.19404  0.80186  0.66824  1.0000
  H   H426      1.0  0.12771  0.01308  0.66131  1.0000
  C   C248      1.0  0.04069  0.82761  0.65816  1.0000
  C   C249      1.0  0.16538  0.02356  0.66519  1.0000
  H   H427      1.0  0.25949  0.78533  0.66461  1.0000
  N   N27       1.0  0.05917  0.84721  0.65952  1.0000
  C   C250      1.0  0.06087  0.85621  0.68493  1.0000
  C   C251      1.0  0.17201  0.97634  0.68406  1.0000
  H   H428      1.0  0.04296  0.86292  0.69160  1.0000
  C   C252      1.0  0.05203  0.86741  0.64323  1.0000
  H   H429      1.0  0.08892  0.82221  0.66354  1.0000
  C   C253      1.0  0.12743  0.79367  0.69709  1.0000
  C   C254      1.0  0.13063  0.81899  0.69669  1.0000
  C   C255      1.0  0.24232  0.79414  0.67073  1.0000
  C   C256      1.0  0.14381  0.79039  0.65598  1.0000
  H   H430      1.0  0.06727  0.84178  0.69764  1.0000
  H   H431      1.0  0.09748  0.85199  0.65302  1.0000
  H   H432      1.0  0.23727  0.80793  0.65672  1.0000
  H   H433      1.0  0.03397  0.87489  0.64843  1.0000
  H   H434      1.0  0.03897  0.82034  0.63924  1.0000
  C   C257      1.0  0.20022  0.78840  0.68207  1.0000
  H   H435      1.0  0.20978  0.98656  0.68748  1.0000
  H   H436      1.0  0.34621  0.93389  0.38735  1.0000
  C   C258      1.0  0.36218  0.94070  0.37684  1.0000
  H   H437      1.0  0.20287  0.79825  0.69964  1.0000
  Fe  Fe50      1.0  0.11313  0.92048  0.75410  1.0000
  S   S105      1.0  0.14682  0.90223  0.74034  1.0000
  C   C259      1.0  0.09514  0.86749  0.80663  1.0000
  Fe  Fe51      1.0  0.12145  0.87713  0.72022  1.0000
  S   S106      1.0  0.12236  0.83610  0.72264  1.0000
  H   H438      1.0  0.31836  0.97643  0.00234  1.0000
  S   S107      1.0  0.08777  0.89341  0.73656  1.0000
  S   S108      1.0  0.11049  0.94697  0.72292  1.0000
  S   S109      1.0  0.10839  0.93290  0.79338  1.0000
  H   H439      1.0  0.33749  0.95396  0.96732  1.0000
  H   H440      1.0  0.10005  0.01530  0.98150  1.0000
  H   H441      1.0  0.15827  0.98123  0.82493  1.0000
  H   H442      1.0  0.32611  0.89920  0.00395  1.0000
  H   H443      1.0  0.10717  0.87564  0.82086  1.0000
  H   H444      1.0  0.10744  0.99021  0.00119  1.0000
  C   C260      1.0  0.11420  0.99869  0.83609  1.0000
  H   H445      1.0  0.07685  0.86479  0.81495  1.0000
  H   H446      1.0  0.29658  0.91309  0.00449  1.0000
  H   H447      1.0  0.03478  0.90792  0.72435  1.0000
  H   H448      1.0  0.33942  0.92141  0.96860  1.0000
  H   H449      1.0  0.18073  0.85187  0.02353  1.0000
  C   C261      1.0  0.35107  0.94154  0.01240  1.0000
  H   H450      1.0  0.36340  0.92651  0.00692  1.0000
  N   N28       1.0  0.32657  0.93824  0.00169  1.0000
  C   C262      1.0  0.11398  0.00822  0.99445  1.0000
  C   C263      1.0  0.10813  0.82699  0.81743  1.0000
  H   H451      1.0  0.13008  0.97071  0.96761  1.0000
  H   H452      1.0  0.12065  0.83429  0.83172  1.0000
  H   H453      1.0  0.10303  0.98484  0.82620  1.0000
  N   N29       1.0  0.13235  0.01005  0.81969  1.0000
  H   H454      1.0  0.11577  0.80943  0.81087  1.0000
  Fe  Fe52      1.0  0.18419  0.91515  0.90985  1.0000
  S   S110      1.0  0.21823  0.93767  0.91400  1.0000
  S   S111      1.0  0.18053  0.89373  0.87474  1.0000
  Fe  Fe53      1.0  0.16654  0.92680  0.96153  1.0000
  S   S112      1.0  0.19882  0.95048  0.96902  1.0000
  S   S113      1.0  0.13966  0.92490  0.99277  1.0000
  Fe  Fe54      1.0  0.19305  0.96494  0.93120  1.0000
  S   S114      1.0  0.19750  0.00548  0.92607  1.0000
  Fe  Fe55      1.0  0.22052  0.92103  0.95130  1.0000
  S   S115      1.0  0.25249  0.90598  0.97206  1.0000
  S   S116      1.0  0.15879  0.94347  0.92469  1.0000
  S   S117      1.0  0.18849  0.89621  0.94599  1.0000
  H   H455      1.0  0.12287  0.99574  0.94777  1.0000
  H   H456      1.0  0.11991  0.78497  0.71315  1.0000
  C   C264      1.0  0.14671  0.02828  0.83350  1.0000
  H   H457      1.0  0.16283  0.99897  0.79766  1.0000
  H   H458      1.0  0.10159  0.01253  0.84385  1.0000
  C   C265      1.0  0.27826  0.89579  0.95627  1.0000
  C   C266      1.0  0.29308  0.87840  0.96742  1.0000
  C   C267      1.0  0.31515  0.87161  0.95670  1.0000
  C   C268      1.0  0.32236  0.88183  0.93450  1.0000
  C   C269      1.0  0.30722  0.89879  0.92289  1.0000
  C   C270      1.0  0.28520  0.90589  0.93386  1.0000
  H   H459      1.0  0.28774  0.87046  0.98472  1.0000
  H   H460      1.0  0.32655  0.85832  0.96560  1.0000
  H   H461      1.0  0.31290  0.90688  0.90578  1.0000
  H   H462      1.0  0.27408  0.91980  0.92551  1.0000
  C   C271      1.0  0.16743  0.86580  0.02745  1.0000
  S   S118      1.0  0.35031  0.87368  0.92142  1.0000
  C   C272      1.0  0.12943  0.92306  0.81561  1.0000
  C   C273      1.0  0.12643  0.93029  0.84000  1.0000
  C   C274      1.0  0.14238  0.92191  0.85822  1.0000
  C   C275      1.0  0.16117  0.90588  0.85220  1.0000
  C   C276      1.0  0.16415  0.89866  0.82782  1.0000
  C   C277      1.0  0.14853  0.90746  0.80956  1.0000
  H   H463      1.0  0.11147  0.94205  0.84492  1.0000
  H   H464      1.0  0.13967  0.92728  0.87701  1.0000
  H   H465      1.0  0.17874  0.88639  0.82300  1.0000
  C   C278      1.0  0.08848  0.83412  0.77861  1.0000
  C   C279      1.0  0.14571  0.90210  0.01475  1.0000
  C   C280      1.0  0.16340  0.88441  0.01040  1.0000
  H   H466      1.0  0.17372  0.88472  0.99368  1.0000
  C   C281      1.0  0.31576  0.91526  0.01067  1.0000
  C   C282      1.0  0.15595  0.99651  0.00022  1.0000
  H   H467      1.0  0.12768  0.86276  0.77080  1.0000
  C   C283      1.0  0.12918  0.84918  0.78577  1.0000
  H   H468      1.0  0.15121  0.90196  0.79089  1.0000
  C   C284      1.0  0.13270  0.02606  0.89714  1.0000
  C   C285      1.0  0.31084  0.95878  0.00889  1.0000
  C   C286      1.0  0.17369  0.02271  0.91331  1.0000
  H   H469      1.0  0.09317  0.88130  0.79188  1.0000
  N   N30       1.0  0.13802  0.00607  0.98253  1.0000
  H   H470      1.0  0.15402  0.98716  0.95250  1.0000
  Fe  Fe56      1.0  0.14280  0.92707  0.70801  1.0000
  C   C287      1.0  0.14873  0.99107  0.80997  1.0000
  H   H471      1.0  0.13845  0.97721  0.79919  1.0000
  C   C288      1.0  0.14612  0.03019  0.97363  1.0000
  C   C289      1.0  0.11967  0.02212  0.79920  1.0000
  H   H472      1.0  0.15011  0.99217  0.90610  1.0000
  N   N31       1.0  0.24651  0.85954  0.88933  1.0000
  C   C290      1.0  0.25095  0.88350  0.87784  1.0000
  C   C291      1.0  0.23219  0.86283  0.91193  1.0000
  C   C292      1.0  0.27002  0.84796  0.89534  1.0000
  C   C293      1.0  0.23273  0.84392  0.87217  1.0000
  H   H473      1.0  0.26148  0.88175  0.86057  1.0000
  H   H474      1.0  0.26141  0.89577  0.89014  1.0000
  H   H475      1.0  0.23353  0.89286  0.87342  1.0000
  H   H476      1.0  0.22917  0.84529  0.92161  1.0000
  H   H477      1.0  0.24145  0.87539  0.92496  1.0000
  H   H478      1.0  0.21400  0.87063  0.90785  1.0000
  H   H479      1.0  0.28036  0.85877  0.90907  1.0000
  H   H480      1.0  0.28184  0.84613  0.87893  1.0000
  H   H481      1.0  0.26735  0.82951  0.90329  1.0000
  H   H482      1.0  0.22864  0.82583  0.88036  1.0000
  H   H483      1.0  0.24305  0.84089  0.85495  1.0000
  H   H484      1.0  0.21498  0.85238  0.86715  1.0000
  N   N32       1.0  0.10521  0.84444  0.79712  1.0000
  H   H485      1.0  0.14253  0.85636  0.79929  1.0000
  H   H486      1.0  0.10861  0.00887  0.78842  1.0000
  H   H487      1.0  0.29219  0.95674  0.00104  1.0000
  H   H488      1.0  0.07020  0.83017  0.78646  1.0000
  H   H489      1.0  0.09037  0.82299  0.82642  1.0000
  C   C294      1.0  0.32853  0.93736  0.97475  1.0000
  H   H490      1.0  0.11580  0.01751  0.89158  1.0000
  H   H491      1.0  0.17435  0.99499  0.99180  1.0000
  H   H492      1.0  0.12318  0.98935  0.85172  1.0000
  H   H493      1.0  0.08592  0.84686  0.76304  1.0000
  C   C295      1.0  0.15205  0.01170  0.90551  1.0000
  H   H494      1.0  0.13694  0.83239  0.77750  1.0000
  H   H495      1.0  0.09576  0.81693  0.77070  1.0000
  C   C296      1.0  0.13609  0.98917  0.96167  1.0000
  Fe  Fe57      1.0  0.08846  0.91794  0.70397  1.0000
  H   H496      1.0  0.16448  0.02915  0.96499  1.0000
  H   H497      1.0  0.35971  0.95883  0.00633  1.0000
  H   H498      1.0  0.31029  0.93578  0.96609  1.0000
  H   H499      1.0  0.15073  0.97795  0.00668  1.0000
  H   H500      1.0  0.11472  0.02081  0.01037  1.0000
  H   H501      1.0  0.15763  0.00850  0.01651  1.0000
  H   H502      1.0  0.15664  0.01982  0.84905  1.0000
  H   H503      1.0  0.13282  0.03084  0.78638  1.0000
  H   H504      1.0  0.30891  0.95984  0.02912  1.0000
  H   H505      1.0  0.31590  0.91430  0.03098  1.0000
  H   H506      1.0  0.35047  0.94138  0.03274  1.0000
  Fe  Fe58      1.0  0.42504  0.15915  0.19491  1.0000
  S   S119      1.0  0.45232  0.17120  0.22294  1.0000
  S   S120      1.0  0.39746  0.18460  0.17829  1.0000
  Fe  Fe59      1.0  0.44623  0.10830  0.19142  1.0000
  S   S121      1.0  0.47620  0.11709  0.21793  1.0000
  S   S122      1.0  0.44481  0.06972  0.17701  1.0000
  Fe  Fe60      1.0  0.44648  0.13452  0.23988  1.0000
  C   C297      1.0  0.49685  0.17387  0.12241  1.0000
  Fe  Fe61      1.0  0.47941  0.15280  0.19843  1.0000
  S   S123      1.0  0.51225  0.17635  0.19009  1.0000
  S   S124      1.0  0.41629  0.12404  0.21427  1.0000
  S   S125      1.0  0.45230  0.14245  0.16952  1.0000
  C   C298      1.0  0.58314  0.28075  0.16649  1.0000
  C   C299      1.0  0.41961  0.05224  0.18639  1.0000
  C   C300      1.0  0.39700  0.06307  0.19044  1.0000
  H   H507      1.0  0.39485  0.08243  0.18785  1.0000
  C   C301      1.0  0.43180  0.25422  0.14803  1.0000
  C   C302      1.0  0.40886  0.24667  0.13982  1.0000
  C   C303      1.0  0.39834  0.22521  0.14916  1.0000
  C   C304      1.0  0.41079  0.21127  0.16657  1.0000
  C   C305      1.0  0.43373  0.21889  0.17464  1.0000
  C   C306      1.0  0.44412  0.24035  0.16550  1.0000
  H   H508      1.0  0.39939  0.25715  0.12608  1.0000
  H   H509      1.0  0.64968  0.08308  0.13919  1.0000
  H   H510      1.0  0.44345  0.20839  0.18811  1.0000
  H   H511      1.0  0.46170  0.24633  0.17219  1.0000
  H   H512      1.0  0.48743  0.23326  0.13681  1.0000
  C   C307      1.0  0.65268  0.27818  0.15110  1.0000
  H   H513      1.0  0.49069  0.16099  0.10798  1.0000
  H   H514      1.0  0.65311  0.14912  0.15216  1.0000
  H   H515      1.0  0.40627  0.11368  0.35760  1.0000
  C   C308      1.0  0.45919  0.19621  0.11955  1.0000
  C   C309      1.0  0.40557  0.07596  0.25235  1.0000
  C   C310      1.0  0.49412  0.21432  0.13935  1.0000
  H   H516      1.0  0.51712  0.17464  0.12182  1.0000
  H   H517      1.0  0.52297  0.12941  0.16761  1.0000
  H   H518      1.0  0.45258  0.18829  0.13708  1.0000
  H   H519      1.0  0.56139  0.26283  0.20670  1.0000
  H   H520      1.0  0.48842  0.19688  0.08005  1.0000
  H   H521      1.0  0.48718  0.20776  0.15731  1.0000
  N   N33       1.0  0.48604  0.19825  0.11923  1.0000
  H   H522      1.0  0.49176  0.16588  0.14039  1.0000
  H   H523      1.0  0.45235  0.18432  0.10458  1.0000
  H   H524      1.0  0.45042  0.21433  0.11750  1.0000
  H   H525      1.0  0.48601  0.22700  0.09264  1.0000
  C   C311      1.0  0.49403  0.20865  0.09564  1.0000
  H   H526      1.0  0.51433  0.21501  0.14074  1.0000
  H   H527      1.0  0.51421  0.21063  0.09495  1.0000
  C   C312      1.0  0.64765  0.25418  0.04913  1.0000
  H   H528      1.0  0.66248  0.14625  0.18321  1.0000
  H   H529      1.0  0.63057  0.26387  0.05405  1.0000
  N   N34       1.0  0.40616  0.05735  0.27178  1.0000
  C   C313      1.0  0.43083  0.05662  0.28258  1.0000
  H   H530      1.0  0.43212  0.04262  0.29719  1.0000
  H   H531      1.0  0.36944  0.06440  0.28335  1.0000
  C   C314      1.0  0.39764  0.27884  0.19539  1.0000
  C   C315      1.0  0.42262  0.12739  0.29916  1.0000
  C   C316      1.0  0.42444  0.11874  0.32317  1.0000
  C   C317      1.0  0.40445  0.11997  0.33905  1.0000
  C   C318      1.0  0.38251  0.13000  0.33110  1.0000
  C   C319      1.0  0.38062  0.13866  0.30703  1.0000
  C   C320      1.0  0.40062  0.13724  0.29101  1.0000
  H   H532      1.0  0.44146  0.11123  0.32958  1.0000
  C   C321      1.0  0.40007  0.03335  0.26115  1.0000
  H   H533      1.0  0.69476  0.24296  0.05582  1.0000
  H   H534      1.0  0.59138  0.27376  0.21433  1.0000
  C   C322      1.0  0.57262  0.27955  0.20929  1.0000
  H   H535      1.0  0.63182  0.13802  0.17419  1.0000
  H   H536      1.0  0.64540  0.11295  0.12662  1.0000
  H   H537      1.0  0.39912  0.14397  0.27249  1.0000
  S   S126      1.0  0.44805  0.12459  0.27988  1.0000
  Fe  Fe62      1.0  0.66243  0.19048  0.07463  1.0000
  S   S127      1.0  0.66352  0.15887  0.10045  1.0000
  H   H538      1.0  0.68758  0.12427  0.13851  1.0000
  Fe  Fe63      1.0  0.64092  0.22479  0.11191  1.0000
  S   S128      1.0  0.64005  0.19690  0.14174  1.0000
  S   S129      1.0  0.62576  0.26281  0.11126  1.0000
  Fe  Fe64      1.0  0.67702  0.18590  0.12797  1.0000
  Fe  Fe65      1.0  0.62653  0.17131  0.11277  1.0000
  S   S130      1.0  0.59846  0.14251  0.12132  1.0000
  S   S131      1.0  0.67941  0.21663  0.10123  1.0000
  S   S132      1.0  0.62393  0.20008  0.08391  1.0000
  C   C323      1.0  0.57435  0.15188  0.14029  1.0000
  C   C324      1.0  0.55613  0.13519  0.14701  1.0000
  C   C325      1.0  0.55423  0.18288  0.16444  1.0000
  C   C326      1.0  0.57322  0.17579  0.14888  1.0000
  H   H539      1.0  0.55687  0.11668  0.14032  1.0000
  H   H540      1.0  0.58699  0.18885  0.14360  1.0000
  H   H541      1.0  0.66853  0.10514  0.20077  1.0000
  H   H542      1.0  0.40959  0.09437  0.25979  1.0000
  H   H543      1.0  0.65939  0.25975  0.15250  1.0000
  C   C327      1.0  0.68523  0.11311  0.15534  1.0000
  H   H544      1.0  0.41939  0.07224  0.23793  1.0000
  H   H545      1.0  0.63800  0.09691  0.19215  1.0000
  H   H546      1.0  0.60225  0.27523  0.17032  1.0000
  N   N35       1.0  0.65950  0.11252  0.16332  1.0000
  C   C328      1.0  0.53696  0.14235  0.16245  1.0000
  C   C329      1.0  0.64418  0.10200  0.14371  1.0000
  H   H547      1.0  0.57248  0.26389  0.16280  1.0000
  H   H548      1.0  0.64946  0.14904  0.04141  1.0000
  H   H549      1.0  0.69222  0.09458  0.15134  1.0000
  C   C330      1.0  0.53611  0.16620  0.17131  1.0000
  H   H550      1.0  0.38743  0.07678  0.24333  1.0000
  H   H551      1.0  0.43588  0.07446  0.29086  1.0000
  H   H552      1.0  0.55358  0.20136  0.17119  1.0000
  H   H553      1.0  0.44488  0.05251  0.26851  1.0000
  C   C331      1.0  0.65721  0.09758  0.18564  1.0000
  H   H554      1.0  0.66321  0.07855  0.18234  1.0000
  H   H555      1.0  0.39229  0.08173  0.29915  1.0000
  H   H556      1.0  0.38067  0.21924  0.14269  1.0000
  C   C332      1.0  0.65132  0.13753  0.16860  1.0000
  H   H557      1.0  0.40167  0.25950  0.19109  1.0000
  H   H558      1.0  0.67512  0.26970  0.08668  1.0000
  H   H559      1.0  0.65052  0.24005  0.06328  1.0000
  C   C333      1.0  0.38824  0.06361  0.29092  1.0000
  N   N36       1.0  0.66870  0.27096  0.04788  1.0000
  C   C334      1.0  0.69087  0.25706  0.04177  1.0000
  H   H560      1.0  0.62457  0.10170  0.14897  1.0000
  C   C335      1.0  0.37691  0.04875  0.19725  1.0000
  H   H561      1.0  0.38829  0.05006  0.30603  1.0000
  S   S133      1.0  0.67722  0.19391  0.03636  1.0000
  H   H562      1.0  0.38154  0.03329  0.25281  1.0000
  S   S134      1.0  0.44601  0.28037  0.13640  1.0000
  H   H563      1.0  0.69724  0.12145  0.16952  1.0000
  H   H564      1.0  0.46839  0.08112  0.42377  1.0000
  S   S135      1.0  0.39067  0.08765  0.39950  1.0000
  H   H565      1.0  0.62028  0.22052  0.66512  1.0000
  C   C336      1.0  0.68349  0.15291  0.66012  1.0000
  S   S136      1.0  0.40430  0.10493  0.46692  1.0000
  C   C337      1.0  0.39662  0.12685  0.48914  1.0000
  H   H566      1.0  0.54989  0.14836  0.66324  1.0000
  C   C338      1.0  0.41228  0.13098  0.50904  1.0000
  H   H567      1.0  0.52324  0.26519  0.62947  1.0000
  N   N37       1.0  0.44785  0.05111  0.43867  1.0000
  H   H568      1.0  0.36768  0.11988  0.54498  1.0000
  H   H569      1.0  0.42731  0.04636  0.40546  1.0000
  H   H570      1.0  0.45471  0.08696  0.45309  1.0000
  H   H571      1.0  0.43626  0.08634  0.42631  1.0000
  H   H572      1.0  0.48602  0.04270  0.43960  1.0000
  C   C339      1.0  0.66235  0.14593  0.62214  1.0000
  H   H573      1.0  0.47260  0.04865  0.46897  1.0000
  C   C340      1.0  0.66200  0.27620  0.65193  1.0000
  H   H574      1.0  0.40944  0.05476  0.44525  1.0000
  C   C341      1.0  0.67281  0.18691  0.63449  1.0000
  C   C342      1.0  0.50214  0.18245  0.68268  1.0000
  Fe  Fe66      1.0  0.37691  0.09765  0.43688  1.0000
  H   H575      1.0  0.66753  0.12634  0.62244  1.0000
  C   C343      1.0  0.45209  0.07747  0.43526  1.0000
  H   H576      1.0  0.40992  0.26144  0.66247  1.0000
  H   H577      1.0  0.47524  0.23667  0.59103  1.0000
  C   C344      1.0  0.36930  0.15759  0.50508  1.0000
  H   H578      1.0  0.42901  0.12078  0.51056  1.0000
  H   H579      1.0  0.42795  0.05676  0.47207  1.0000
  C   C345      1.0  0.38492  0.16176  0.52495  1.0000
  Fe  Fe67      1.0  0.43570  0.17381  0.62035  1.0000
  S   S137      1.0  0.43488  0.20041  0.58926  1.0000
  S   S138      1.0  0.46939  0.15060  0.62429  1.0000
  Fe  Fe68      1.0  0.38496  0.18716  0.63697  1.0000
  S   S139      1.0  0.38063  0.21563  0.60800  1.0000
  Fe  Fe69      1.0  0.39663  0.18749  0.58300  1.0000
  S   S140      1.0  0.37599  0.18275  0.54748  1.0000
  Fe  Fe70      1.0  0.41911  0.22619  0.61694  1.0000
  S   S141      1.0  0.43597  0.26387  0.61599  1.0000
  S   S142      1.0  0.39866  0.15831  0.61160  1.0000
  S   S143      1.0  0.42214  0.20028  0.64846  1.0000
  H   H580      1.0  0.51880  0.13551  0.63266  1.0000
  C   C346      1.0  0.50855  0.20770  0.61184  1.0000
  C   C347      1.0  0.52575  0.17295  0.68186  1.0000
  H   H581      1.0  0.53985  0.24532  0.60940  1.0000
  H   H582      1.0  0.68666  0.26008  0.67799  1.0000
  C   C348      1.0  0.51410  0.14858  0.64667  1.0000
  C   C349      1.0  0.49056  0.15846  0.64723  1.0000
  C   C350      1.0  0.48463  0.17525  0.66543  1.0000
  Fe  Fe71      1.0  0.62641  0.13331  0.69108  1.0000
  H   H583      1.0  0.65983  0.15145  0.60276  1.0000
  H   H584      1.0  0.46652  0.18264  0.66633  1.0000
  C   C351      1.0  0.40641  0.14835  0.52699  1.0000
  H   H585      1.0  0.49425  0.22591  0.65543  1.0000
  H   H586      1.0  0.41850  0.15142  0.54232  1.0000
  C   C352      1.0  0.49260  0.24563  0.59658  1.0000
  H   H587      1.0  0.46911  0.22476  0.63452  1.0000
  N   N38       1.0  0.50353  0.23339  0.61797  1.0000
  H   H588      1.0  0.48808  0.26494  0.60071  1.0000
  H   H589      1.0  0.53517  0.23690  0.64080  1.0000
  C   C353      1.0  0.48643  0.23444  0.63880  1.0000
  H   H590      1.0  0.49146  0.19759  0.60741  1.0000
  H   H591      1.0  0.51734  0.19809  0.62739  1.0000
  H   H592      1.0  0.52083  0.20609  0.59579  1.0000
  H   H593      1.0  0.65503  0.18911  0.64398  1.0000
  C   C354      1.0  0.53173  0.15587  0.66391  1.0000
  C   C355      1.0  0.52650  0.24578  0.62471  1.0000
  S   S144      1.0  0.61410  0.16877  0.67481  1.0000
  C   C356      1.0  0.63981  0.27376  0.63961  1.0000
  S   S145      1.0  0.63993  0.10367  0.66626  1.0000
  C   C357      1.0  0.65141  0.07860  0.68261  1.0000
  C   C358      1.0  0.66024  0.05819  0.67006  1.0000
  H   H594      1.0  0.64430  0.14710  0.63136  1.0000
  H   H595      1.0  0.65977  0.05779  0.65030  1.0000
  C   C359      1.0  0.65439  0.23805  0.67350  1.0000
  C   C360      1.0  0.66935  0.25825  0.66868  1.0000
  H   H596      1.0  0.48152  0.25353  0.64345  1.0000
  H   H597      1.0  0.50498  0.24537  0.58051  1.0000
  C   C361      1.0  0.62492  0.25351  0.64435  1.0000
  C   C362      1.0  0.63204  0.23586  0.66143  1.0000
  C   C363      1.0  0.37505  0.14011  0.48731  1.0000
  H   H598      1.0  0.60774  0.25152  0.63486  1.0000
  H   H599      1.0  0.49735  0.19551  0.69665  1.0000
  H   H600      1.0  0.68949  0.13359  0.66110  1.0000
  H   H601      1.0  0.66585  0.15389  0.66986  1.0000
  H   H602      1.0  0.68603  0.19892  0.64424  1.0000
  C   C364      1.0  0.44399  0.03938  0.41464  1.0000
  C   C365      1.0  0.66961  0.03820  0.68303  1.0000
  H   H603      1.0  0.67064  0.19399  0.61558  1.0000
  C   C366      1.0  0.41967  0.27857  0.66154  1.0000
  N   N39       1.0  0.68076  0.16123  0.63462  1.0000
  S   S146      1.0  0.66435  0.21549  0.69406  1.0000
  H   H604      1.0  0.45962  0.04264  0.40212  1.0000
  H   H605      1.0  0.37903  0.11089  0.58677  1.0000
  C   C367      1.0  0.42608  0.04735  0.45413  1.0000
  C   C368      1.0  0.46925  0.04020  0.45076  1.0000
  H   H606      1.0  0.69671  0.16436  0.67050  1.0000
  H   H607      1.0  0.53155  0.15234  0.80770  1.0000
  H   H608      1.0  0.55864  0.13761  0.77446  1.0000
  H   H609      1.0  0.52334  0.18394  0.80922  1.0000
  C   C369      1.0  0.52768  0.16878  0.79647  1.0000
  H   H610      1.0  0.51106  0.16489  0.78544  1.0000
  Fe  Fe72      1.0  0.61972  0.15030  0.74329  1.0000
  H   H611      1.0  0.64472  0.24441  0.03152  1.0000
  H   H612      1.0  0.66176  0.05950  0.74080  1.0000
  H   H613      1.0  0.53855  0.21269  0.77764  1.0000
  S   S147      1.0  0.54723  0.18343  0.70331  1.0000
  S   S148      1.0  0.59495  0.13079  0.71705  1.0000
  S   S149      1.0  0.60845  0.18766  0.73153  1.0000
  C   C370      1.0  0.67168  0.07487  0.79942  1.0000
  C   C371      1.0  0.57026  0.17999  0.79588  1.0000
  H   H614      1.0  0.64504  0.09450  0.71800  1.0000
  H   H615      1.0  0.53784  0.15004  0.75211  1.0000
  C   C372      1.0  0.66145  0.05909  0.72107  1.0000
  C   C373      1.0  0.65396  0.13008  0.00711  1.0000
  H   H616      1.0  0.56724  0.19554  0.80851  1.0000
  H   H617      1.0  0.58646  0.18442  0.78442  1.0000
  S   S150      1.0  0.61589  0.13832  0.78255  1.0000
  H   H618      1.0  0.66611  0.15303  0.77384  1.0000
  N   N40       1.0  0.54857  0.17497  0.78062  1.0000
  C   C374      1.0  0.55366  0.15432  0.76413  1.0000
  H   H619      1.0  0.56919  0.15857  0.75193  1.0000
  H   H620      1.0  0.57532  0.16387  0.80710  1.0000
  S   S151      1.0  0.67867  0.08813  0.89558  1.0000
  H   H621      1.0  0.69551  0.04343  0.77022  1.0000
  S   S152      1.0  0.66120  0.10501  0.96450  1.0000
  C   C375      1.0  0.67089  0.16998  0.01596  1.0000
  H   H622      1.0  0.65924  0.06328  0.78829  1.0000
  C   C376      1.0  0.66112  0.12784  0.83998  1.0000
  C   C377      1.0  0.64047  0.12863  0.82485  1.0000
  C   C378      1.0  0.64218  0.13765  0.80094  1.0000
  S   S153      1.0  0.65210  0.14976  0.71841  1.0000
  H   H623      1.0  0.65955  0.12118  0.85848  1.0000
  H   H624      1.0  0.62310  0.12232  0.83175  1.0000
  H   H625      1.0  0.52680  0.19338  0.75372  1.0000
  C   C379      1.0  0.68081  0.17071  0.99236  1.0000
  C   C380      1.0  0.66444  0.13052  0.98373  1.0000
  C   C381      1.0  0.67777  0.15095  0.97636  1.0000
  C   C382      1.0  0.65728  0.14970  0.02327  1.0000
  Fe  Fe73      1.0  0.68828  0.09985  0.93389  1.0000
  H   H626      1.0  0.64349  0.11436  0.01283  1.0000
  C   C383      1.0  0.54273  0.19673  0.76590  1.0000
  C   C384      1.0  0.68527  0.14528  0.80741  1.0000
  C   C385      1.0  0.68358  0.13623  0.83132  1.0000
  H   H627      1.0  0.55822  0.20188  0.75378  1.0000
  C   C386      1.0  0.66465  0.14591  0.79220  1.0000
  H   H628      1.0  0.68883  0.24722  0.02406  1.0000
  H   H629      1.0  0.68550  0.15166  0.95823  1.0000
  C   C387      1.0  0.67027  0.03866  0.70859  1.0000
  H   H630      1.0  0.66196  0.07992  0.81652  1.0000
  H   H631      1.0  0.67484  0.09202  0.78902  1.0000
  H   H632      1.0  0.69123  0.18642  0.98656  1.0000
  N   N41       1.0  0.69483  0.06230  0.80476  1.0000
  H   H633      1.0  0.68059  0.04413  0.83653  1.0000
  C   C388      1.0  0.68984  0.03993  0.81891  1.0000
  C   C389      1.0  0.65198  0.07896  0.70815  1.0000
  Fe  Fe74      1.0  0.63807  0.18525  0.70356  1.0000
  Fe  Fe75      1.0  0.58530  0.16816  0.70387  1.0000
  H   H634      1.0  0.66167  0.28080  0.01056  1.0000
  S   S154      1.0  0.38625  0.31100  0.10546  1.0000
  S   S155      1.0  0.43834  0.33922  0.09875  1.0000
  Fe  Fe76      1.0  0.42242  0.31169  0.12439  1.0000
  C   C390      1.0  0.69059  0.43433  0.25482  1.0000
  Fe  Fe77      1.0  0.40106  0.34140  0.08227  1.0000
  H   H635      1.0  0.50420  0.33918  0.17240  1.0000
  S   S156      1.0  0.41127  0.33921  0.15247  1.0000
  C   C391      1.0  0.66019  0.51863  0.20362  1.0000
  H   H636      1.0  0.46642  0.35159  0.15139  1.0000
  Fe  Fe78      1.0  0.37602  0.34086  0.13162  1.0000
  C   C392      1.0  0.50193  0.35793  0.16696  1.0000
  H   H637      1.0  0.66696  0.49476  0.14652  1.0000
  H   H638      1.0  0.39209  0.39070  0.05778  1.0000
  H   H639      1.0  0.49834  0.38603  0.07004  1.0000
  H   H640      1.0  0.64763  0.38802  0.27518  1.0000
  H   H641      1.0  0.58830  0.32880  0.17512  1.0000
  C   C393      1.0  0.51713  0.39926  0.16496  1.0000
  C   C394      1.0  0.66778  0.39547  0.30842  1.0000
  H   H642      1.0  0.44677  0.37008  0.05224  1.0000
  C   C395      1.0  0.67234  0.47394  0.25889  1.0000
  H   H643      1.0  0.65446  0.46711  0.25203  1.0000
  C   C396      1.0  0.49541  0.40638  0.15331  1.0000
  S   S157      1.0  0.69310  0.40527  0.35079  1.0000
  H   H644      1.0  0.58046  0.32768  0.20679  1.0000
  C   C397      1.0  0.54767  0.30217  0.18100  1.0000
  H   H645      1.0  0.67203  0.47211  0.27914  1.0000
  S   S158      1.0  0.44967  0.39829  0.13425  1.0000
  H   H646      1.0  0.37613  0.32226  0.18943  1.0000
  S   S159      1.0  0.38825  0.37129  0.10703  1.0000
  H   H647      1.0  0.68284  0.52813  0.17290  1.0000
  C   C398      1.0  0.47696  0.38925  0.14851  1.0000
  H   H648      1.0  0.44825  0.42700  0.08795  1.0000
  N   N42       1.0  0.46474  0.40395  0.06082  1.0000
  H   H649      1.0  0.49280  0.42521  0.14828  1.0000
  H   H650      1.0  0.40817  0.29027  0.18227  1.0000
  C   C399      1.0  0.39385  0.39070  0.03814  1.0000
  C   C400      1.0  0.67222  0.41220  0.32734  1.0000
  H   H651      1.0  0.67713  0.37820  0.30831  1.0000
  C   C401      1.0  0.52030  0.37502  0.17203  1.0000
  Fe  Fe79      1.0  0.42468  0.36680  0.12542  1.0000
  C   C402      1.0  0.48044  0.36496  0.15509  1.0000
  H   H652      1.0  0.53119  0.41255  0.16889  1.0000
  S   S160      1.0  0.65788  0.34079  0.19027  1.0000
  H   H653      1.0  0.49345  0.41745  0.03779  1.0000
  H   H654      1.0  0.68773  0.29590  0.07166  1.0000
  C   C403      1.0  0.65043  0.31952  0.16728  1.0000
  H   H655      1.0  0.47297  0.37819  0.08917  1.0000
  C   C404      1.0  0.62815  0.30837  0.13058  1.0000
  C   C405      1.0  0.63493  0.32579  0.14805  1.0000
  C   C406      1.0  0.65106  0.40097  0.28970  1.0000
  H   H656      1.0  0.61587  0.31338  0.11597  1.0000
  H   H657      1.0  0.62819  0.34409  0.14655  1.0000
  S   S161      1.0  0.60454  0.37260  0.22278  1.0000
  H   H658      1.0  0.58335  0.29164  0.14935  1.0000
  H   H659      1.0  0.39246  0.42980  0.03517  1.0000
  H   H660      1.0  0.63370  0.45702  0.30916  1.0000
  C   C407      1.0  0.66008  0.43449  0.32731  1.0000
  H   H661      1.0  0.48292  0.43862  0.06050  1.0000
  C   C408      1.0  0.48168  0.39334  0.07888  1.0000
  H   H662      1.0  0.48745  0.40702  0.09280  1.0000
  C   C409      1.0  0.64321  0.43982  0.30887  1.0000
  H   H663      1.0  0.67167  0.29078  0.18334  1.0000
  C   C410      1.0  0.45710  0.38503  0.04314  1.0000
  H   H664      1.0  0.66361  0.44766  0.34152  1.0000
  H   H665      1.0  0.67352  0.49364  0.25440  1.0000
  H   H666      1.0  0.67431  0.45598  0.21360  1.0000
  H   H667      1.0  0.60703  0.31200  0.19604  1.0000
  C   C411      1.0  0.63869  0.42318  0.28998  1.0000
  C   C412      1.0  0.65957  0.29573  0.16856  1.0000
  S   S162      1.0  0.61820  0.43155  0.26677  1.0000
  Fe  Fe80      1.0  0.58045  0.38793  0.19333  1.0000
  S   S163      1.0  0.60922  0.38755  0.16420  1.0000
  Fe  Fe81      1.0  0.61496  0.41116  0.23103  1.0000
  S   S164      1.0  0.64643  0.41092  0.20507  1.0000
  Fe  Fe82      1.0  0.61926  0.42484  0.17803  1.0000
  S   S165      1.0  0.63169  0.45686  0.15534  1.0000
  S   S166      1.0  0.58798  0.42669  0.20434  1.0000
  H   H668      1.0  0.53930  0.31268  0.19624  1.0000
  C   C413      1.0  0.66880  0.51605  0.17970  1.0000
  C   C414      1.0  0.65994  0.49708  0.16485  1.0000
  C   C415      1.0  0.64245  0.48072  0.17386  1.0000
  C   C416      1.0  0.63363  0.48360  0.19764  1.0000
  C   C417      1.0  0.64236  0.50260  0.21239  1.0000
  S   S167      1.0  0.39696  0.34083  0.04117  1.0000
  H   H669      1.0  0.61615  0.52178  0.15206  1.0000
  H   H670      1.0  0.62002  0.47118  0.20470  1.0000
  H   H671      1.0  0.63535  0.50468  0.23075  1.0000
  Fe  Fe83      1.0  0.63351  0.37369  0.19394  1.0000
  H   H672      1.0  0.67280  0.42659  0.24881  1.0000
  S   S168      1.0  0.54649  0.36512  0.18771  1.0000
  C   C418      1.0  0.63670  0.28448  0.13225  1.0000
  C   C419      1.0  0.44310  0.41353  0.07361  1.0000
  C   C420      1.0  0.58786  0.31670  0.19143  1.0000
  H   H673      1.0  0.69164  0.43184  0.27499  1.0000
  N   N43       1.0  0.37123  0.28373  0.19392  1.0000
  C   C421      1.0  0.47703  0.42400  0.04767  1.0000
  H   H674      1.0  0.43281  0.39873  0.08295  1.0000
  H   H675      1.0  0.43041  0.42266  0.06077  1.0000
  H   H676      1.0  0.60832  0.52827  0.12094  1.0000
  N   N44       1.0  0.69275  0.46025  0.24800  1.0000
  H   H677      1.0  0.40495  0.28251  0.21400  1.0000
  H   H678      1.0  0.37304  0.29191  0.15554  1.0000
  H   H679      1.0  0.54727  0.31425  0.16465  1.0000
  H   H680      1.0  0.56501  0.28969  0.22516  1.0000
  C   C422      1.0  0.36648  0.30909  0.20150  1.0000
  C   C423      1.0  0.69196  0.46261  0.22110  1.0000
  N   N45       1.0  0.57282  0.29477  0.18704  1.0000
  H   H681      1.0  0.69408  0.48190  0.21529  1.0000
  H   H682      1.0  0.37261  0.31255  0.22056  1.0000
  H   H683      1.0  0.65548  0.29365  0.07707  1.0000
  C   C424      1.0  0.67196  0.28313  0.07179  1.0000
  H   H684      1.0  0.53576  0.28619  0.17721  1.0000
  H   H685      1.0  0.46469  0.43241  0.03389  1.0000
  Fe  Fe84      1.0  0.67601  0.36629  0.57910  1.0000
  N   N46       1.0  0.58872  0.32161  0.67789  1.0000
  C   C425      1.0  0.41795  0.29544  0.68084  1.0000
  C   C426      1.0  0.43033  0.31783  0.67972  1.0000
  C   C427      1.0  0.44460  0.32319  0.65925  1.0000
  C   C428      1.0  0.44617  0.30642  0.63989  1.0000
  C   C429      1.0  0.68153  0.38877  0.52061  1.0000
  H   H686      1.0  0.45407  0.34041  0.65811  1.0000
  H   H687      1.0  0.45689  0.31089  0.62393  1.0000
  H   H688      1.0  0.40687  0.29116  0.69661  1.0000
  S   S169      1.0  0.47717  0.38720  0.67654  1.0000
  S   S170      1.0  0.67321  0.52093  0.37408  1.0000
  S   S171      1.0  0.45398  0.45416  0.65752  1.0000
  H   H689      1.0  0.65015  0.49493  0.43507  1.0000
  H   H690      1.0  0.51737  0.49938  0.68095  1.0000
  H   H691      1.0  0.53065  0.39259  0.65979  1.0000
  C   C430      1.0  0.43802  0.47848  0.67112  1.0000
  C   C431      1.0  0.43145  0.49901  0.65736  1.0000
  H   H692      1.0  0.61912  0.46384  0.42353  1.0000
  C   C432      1.0  0.54174  0.48253  0.64177  1.0000
  S   S172      1.0  0.68947  0.33706  0.60433  1.0000
  H   H693      1.0  0.67357  0.29181  0.64845  1.0000
  H   H694      1.0  0.43624  0.49996  0.63821  1.0000
  H   H695      1.0  0.62249  0.33626  0.69153  1.0000
  H   H696      1.0  0.61908  0.40684  0.67290  1.0000
  C   C433      1.0  0.61439  0.31866  0.68548  1.0000
  H   H697      1.0  0.52834  0.43625  0.63661  1.0000
  H   H698      1.0  0.52987  0.49019  0.62720  1.0000
  C   C434      1.0  0.59288  0.51566  0.44473  1.0000
  N   N47       1.0  0.52739  0.46810  0.65947  1.0000
  H   H699      1.0  0.56839  0.34233  0.65147  1.0000
  S   S173      1.0  0.62953  0.29605  0.61896  1.0000
  C   C435      1.0  0.59016  0.40495  0.64639  1.0000
  Fe  Fe85      1.0  0.65038  0.33150  0.61486  1.0000
  H   H700      1.0  0.50485  0.43602  0.65942  1.0000
  C   C436      1.0  0.57852  0.29774  0.67070  1.0000
  C   C437      1.0  0.50891  0.48382  0.67107  1.0000
  C   C438      1.0  0.68195  0.40511  0.47928  1.0000
  Fe  Fe86      1.0  0.64032  0.38569  0.61674  1.0000
  H   H701      1.0  0.58744  0.47171  0.42342  1.0000
  H   H702      1.0  0.55771  0.40187  0.62448  1.0000
  C   C439      1.0  0.58451  0.39869  0.68991  1.0000
  H   H703      1.0  0.65578  0.40524  0.54521  1.0000
  Fe  Fe87      1.0  0.68956  0.36666  0.63255  1.0000
  S   S174      1.0  0.63673  0.35801  0.58679  1.0000
  S   S175      1.0  0.67870  0.39634  0.60669  1.0000
  C   C440      1.0  0.56515  0.40115  0.64279  1.0000
  H   H704      1.0  0.62578  0.31191  0.67013  1.0000
  H   H705      1.0  0.55906  0.29933  0.66529  1.0000
  H   H706      1.0  0.49769  0.47351  0.68448  1.0000
  C   C441      1.0  0.59981  0.40376  0.67000  1.0000
  S   S176      1.0  0.65141  0.35873  0.64540  1.0000
  H   H707      1.0  0.55128  0.49796  0.65090  1.0000
  S   S177      1.0  0.66302  0.45536  0.39368  1.0000
  C   C442      1.0  0.55952  0.39480  0.68633  1.0000
  Fe  Fe88      1.0  0.67818  0.44914  0.43120  1.0000
  S   S178      1.0  0.65430  0.44408  0.46439  1.0000
  H   H708      1.0  0.55866  0.44715  0.67011  1.0000
  C   C443      1.0  0.41824  0.51813  0.66824  1.0000
  Fe  Fe89      1.0  0.68848  0.48734  0.39215  1.0000
  C   C444      1.0  0.66391  0.42185  0.48552  1.0000
  C   C445      1.0  0.41145  0.51658  0.69286  1.0000
  C   C446      1.0  0.65423  0.42159  0.50926  1.0000
  Fe  Fe90      1.0  0.46093  0.42399  0.68464  1.0000
  N   N48       1.0  0.61180  0.50130  0.43213  1.0000
  H   H709      1.0  0.59651  0.50689  0.39632  1.0000
  H   H710      1.0  0.59701  0.33087  0.64055  1.0000
  C   C447      1.0  0.66305  0.40510  0.52682  1.0000
  C   C448      1.0  0.43363  0.28414  0.64091  1.0000
  H   H711      1.0  0.55257  0.47288  0.68930  1.0000
  C   C449      1.0  0.60512  0.47521  0.43272  1.0000
  C   C450      1.0  0.58751  0.33839  0.65684  1.0000
  C   C451      1.0  0.63538  0.50486  0.44465  1.0000
  C   C452      1.0  0.54383  0.45817  0.67838  1.0000
  H   H712      1.0  0.59646  0.35598  0.66111  1.0000
  H   H713      1.0  0.49592  0.49127  0.65735  1.0000
  H   H714      1.0  0.64016  0.43439  0.51424  1.0000
  H   H715      1.0  0.57481  0.51340  0.43577  1.0000
  H   H716      1.0  0.50172  0.45469  0.63288  1.0000
  H   H717      1.0  0.59095  0.50999  0.46417  1.0000
  C   C453      1.0  0.61387  0.50952  0.40649  1.0000
  C   C454      1.0  0.54984  0.39596  0.66272  1.0000
  S   S179      1.0  0.60902  0.41177  0.62141  1.0000
  C   C455      1.0  0.51512  0.44788  0.64651  1.0000
  C   C456      1.0  0.43178  0.47740  0.69583  1.0000
  H   H718      1.0  0.55586  0.47115  0.63267  1.0000
  H   H719      1.0  0.62827  0.49936  0.39649  1.0000
  H   H720      1.0  0.63487  0.49789  0.46375  1.0000
  Fe  Fe91      1.0  0.69502  0.43406  0.38017  1.0000
  H   H721      1.0  0.60369  0.46832  0.45182  1.0000
  H   H722      1.0  0.53389  0.44609  0.69136  1.0000
  H   H723      1.0  0.55522  0.33509  0.69324  1.0000
  H   H724      1.0  0.64065  0.52442  0.44530  1.0000
  C   C457      1.0  0.69071  0.38864  0.49674  1.0000
  H   H725      1.0  0.68909  0.40468  0.46097  1.0000
  C   C458      1.0  0.57452  0.33166  0.69848  1.0000
  S   S180      1.0  0.69474  0.36939  0.54245  1.0000
  H   H726      1.0  0.58860  0.29002  0.65485  1.0000
  H   H727      1.0  0.57974  0.28433  0.68588  1.0000
  H   H728      1.0  0.61877  0.52918  0.40543  1.0000
  H   H729      1.0  0.67974  0.30245  0.02736  1.0000
  Fe  Fe92      1.0  0.38313  0.47821  0.90202  1.0000
  Fe  Fe93      1.0  0.38448  0.42400  0.89288  1.0000
  H   H730      1.0  0.41094  0.52786  0.75665  1.0000
  H   H731      1.0  0.39956  0.39116  0.96735  1.0000
  H   H732      1.0  0.41291  0.36035  0.78166  1.0000
  H   H733      1.0  0.38923  0.40031  0.78419  1.0000
  Fe  Fe94      1.0  0.45863  0.41553  0.73943  1.0000
  H   H734      1.0  0.44595  0.38933  0.79126  1.0000
  S   S181      1.0  0.48671  0.43247  0.71510  1.0000
  S   S182      1.0  0.47505  0.37834  0.73678  1.0000
  C   C459      1.0  0.39771  0.39108  0.98705  1.0000
  C   C460      1.0  0.39403  0.41281  0.02531  1.0000
  S   S183      1.0  0.42727  0.33883  0.70400  1.0000
  C   C461      1.0  0.38568  0.39779  0.76431  1.0000
  Fe  Fe95      1.0  0.50074  0.39476  0.70926  1.0000
  H   H735      1.0  0.40249  0.44423  0.84846  1.0000
  C   C462      1.0  0.40780  0.35994  0.76201  1.0000
  C   C463      1.0  0.39770  0.36894  0.99991  1.0000
  C   C464      1.0  0.37738  0.36926  0.73166  1.0000
  C   C465      1.0  0.39619  0.41306  0.99980  1.0000
  S   S184      1.0  0.44658  0.43851  0.77132  1.0000
  S   S185      1.0  0.43186  0.40923  0.70918  1.0000
  H   H736      1.0  0.37636  0.34980  0.72599  1.0000
  H   H737      1.0  0.39937  0.35196  0.99003  1.0000
  H   H738      1.0  0.42152  0.46074  0.81097  1.0000
  S   S186      1.0  0.41041  0.44954  0.91192  1.0000
  S   S187      1.0  0.39100  0.51420  0.88337  1.0000
  Fe  Fe96      1.0  0.38676  0.44266  0.94487  1.0000
  S   S188      1.0  0.39761  0.44117  0.98462  1.0000
  N   N49       1.0  0.38404  0.37172  0.75774  1.0000
  S   S189      1.0  0.39786  0.39513  0.86682  1.0000
  H   H739      1.0  0.42599  0.37247  0.82862  1.0000
  H   H740      1.0  0.39121  0.37794  0.71963  1.0000
  H   H741      1.0  0.41321  0.49480  0.72557  1.0000
  C   C466      1.0  0.43453  0.42602  0.79834  1.0000
  C   C467      1.0  0.42255  0.44146  0.81475  1.0000
  C   C468      1.0  0.41168  0.43211  0.83597  1.0000
  C   C469      1.0  0.41257  0.40718  0.84087  1.0000
  C   C470      1.0  0.42490  0.39171  0.82465  1.0000
  C   C471      1.0  0.43609  0.40116  0.80351  1.0000
  C   C472      1.0  0.66423  0.28943  0.02881  1.0000
  H   H742      1.0  0.40762  0.34056  0.75603  1.0000
  Fe  Fe97      1.0  0.45033  0.37312  0.70434  1.0000
  C   C473      1.0  0.41840  0.49623  0.70656  1.0000
  S   S190      1.0  0.54116  0.38759  0.71161  1.0000
  H   H743      1.0  0.41333  0.51892  0.93171  1.0000
  H   H744      1.0  0.59207  0.39783  0.70816  1.0000
  H   H745      1.0  0.43699  0.46193  0.70676  1.0000
  C   C474      1.0  0.39605  0.36872  0.02550  1.0000
  C   C475      1.0  0.36529  0.35980  0.77302  1.0000
  H   H746      1.0  0.42257  0.36913  0.75156  1.0000
  H   H747      1.0  0.40075  0.40714  0.75438  1.0000
  H   H748      1.0  0.36983  0.36135  0.79283  1.0000
  H   H749      1.0  0.57445  0.31917  0.71446  1.0000
  H   H750      1.0  0.40539  0.52771  0.78894  1.0000
  H   H751      1.0  0.44504  0.39267  0.02872  1.0000
  H   H752      1.0  0.36856  0.40762  0.75997  1.0000
  H   H753      1.0  0.58215  0.34937  0.70480  1.0000
  H   H754      1.0  0.43608  0.52806  0.77757  1.0000
  H   H755      1.0  0.64755  0.30015  0.03290  1.0000
  H   H756      1.0  0.47300  0.37671  0.03379  1.0000
  H   H757      1.0  0.61619  0.30545  0.70077  1.0000
  C   C476      1.0  0.63061  0.56704  0.16403  1.0000
  H   H758      1.0  0.65470  0.66431  0.06086  1.0000
  H   H759      1.0  0.65404  0.66680  0.33381  1.0000
  S   S191      1.0  0.66336  0.60693  0.20903  1.0000
  H   H760      1.0  0.65436  0.60544  0.31931  1.0000
  Fe  Fe98      1.0  0.67779  0.61611  0.17181  1.0000
  S   S192      1.0  0.65136  0.62845  0.14295  1.0000
  H   H761      1.0  0.57667  0.55732  0.13518  1.0000
  C   C477      1.0  0.58908  0.56237  0.15047  1.0000
  H   H762      1.0  0.61536  0.59519  0.12626  1.0000
  H   H763      1.0  0.64495  0.56323  0.36372  1.0000
  C   C478      1.0  0.66479  0.63371  0.11427  1.0000
  H   H764      1.0  0.63921  0.53187  0.13107  1.0000
  S   S193      1.0  0.67279  0.54027  0.22367  1.0000
  C   C479      1.0  0.64817  0.58881  0.30939  1.0000
  C   C480      1.0  0.66379  0.65290  0.07410  1.0000
  C   C481      1.0  0.65260  0.64765  0.09664  1.0000
  Fe  Fe99      1.0  0.68787  0.57459  0.20682  1.0000
  H   H765      1.0  0.63477  0.65494  0.10065  1.0000
  C   C482      1.0  0.67005  0.65154  0.27558  1.0000
  C   C483      1.0  0.64745  0.64299  0.26737  1.0000
  H   H766      1.0  0.64542  0.63665  0.24882  1.0000
  C   C484      1.0  0.65209  0.66003  0.31541  1.0000
  H   H767      1.0  0.65018  0.56515  0.15932  1.0000
  H   H768      1.0  0.67471  0.55419  0.33246  1.0000
  C   C485      1.0  0.62729  0.64281  0.28323  1.0000
  C   C486      1.0  0.65978  0.55340  0.28612  1.0000
  H   H769      1.0  0.62767  0.58639  0.16931  1.0000
  C   C487      1.0  0.62964  0.65093  0.30743  1.0000
  H   H770      1.0  0.63580  0.59486  0.29451  1.0000
  H   H771      1.0  0.67205  0.59693  0.26731  1.0000
  H   H772      1.0  0.63973  0.57571  0.11722  1.0000
  H   H773      1.0  0.58484  0.58142  0.15592  1.0000
  C   C488      1.0  0.62004  0.57591  0.12217  1.0000
  N   N50       1.0  0.66897  0.57486  0.29963  1.0000
  C   C489      1.0  0.68330  0.59042  0.28291  1.0000
  N   N51       1.0  0.61489  0.55991  0.14328  1.0000
  H   H774      1.0  0.69058  0.60683  0.29243  1.0000
  H   H775      1.0  0.60990  0.63602  0.27683  1.0000
  H   H776      1.0  0.63708  0.57782  0.32234  1.0000
  S   S194      1.0  0.60467  0.64802  0.32753  1.0000
  H   H777      1.0  0.60946  0.57038  0.10573  1.0000
  C   C490      1.0  0.67220  0.66036  0.29953  1.0000
  C   C491      1.0  0.68462  0.56681  0.32004  1.0000
  H   H778      1.0  0.64812  0.55890  0.27040  1.0000
  C   C492      1.0  0.61984  0.53437  0.13653  1.0000
  H   H779      1.0  0.62715  0.55555  0.18044  1.0000
  H   H780      1.0  0.67500  0.54248  0.27848  1.0000
  H   H781      1.0  0.58461  0.55040  0.16629  1.0000
  H   H782      1.0  0.64874  0.54129  0.29811  1.0000
  H   H783      1.0  0.69100  0.58252  0.33124  1.0000
  H   H784      1.0  0.68956  0.66723  0.30594  1.0000
  C   C493      1.0  0.68776  0.62429  0.10899  1.0000
  C   C494      1.0  0.68706  0.64394  0.06912  1.0000
  S   S195      1.0  0.69625  0.65034  0.25693  1.0000
  Fe  Fe100     1.0  0.69607  0.62681  0.22309  1.0000
  Fe  Fe101     1.0  0.60927  0.65995  0.36688  1.0000
  H   H785      1.0  0.69712  0.61324  0.12231  1.0000
  C   C495      1.0  0.50331  0.68431  0.44953  1.0000
  H   H786      1.0  0.68200  0.77311  0.41774  1.0000
  Fe  Fe102     1.0  0.41446  0.66602  0.45048  1.0000
  H   H787      1.0  0.44665  0.57381  0.51772  1.0000
  S   S196      1.0  0.44343  0.64579  0.42955  1.0000
  Fe  Fe103     1.0  0.38548  0.66311  0.49762  1.0000
  H   H788      1.0  0.42406  0.74156  0.40958  1.0000
  S   S197      1.0  0.37976  0.64687  0.46040  1.0000
  C   C496      1.0  0.51539  0.65720  0.41692  1.0000
  C   C497      1.0  0.49150  0.64787  0.41600  1.0000
  C   C498      1.0  0.47341  0.65709  0.43153  1.0000
  C   C499      1.0  0.47943  0.67525  0.44838  1.0000
  H   H789      1.0  0.41292  0.59746  0.49936  1.0000
  H   H790      1.0  0.48694  0.63379  0.40292  1.0000
  H   H791      1.0  0.46570  0.68256  0.46038  1.0000
  H   H792      1.0  0.46342  0.57602  0.48958  1.0000
  H   H793      1.0  0.42971  0.59999  0.47103  1.0000
  H   H794      1.0  0.47709  0.58595  0.51778  1.0000
  C   C500      1.0  0.46776  0.62467  0.48932  1.0000
  H   H795      1.0  0.47126  0.61672  0.47091  1.0000
  H   H796      1.0  0.48550  0.62624  0.49902  1.0000
  C   C501      1.0  0.44526  0.62173  0.52716  1.0000
  C   C502      1.0  0.52125  0.67560  0.43360  1.0000
  H   H797      1.0  0.46098  0.64344  0.48621  1.0000
  C   C503      1.0  0.45974  0.58533  0.50727  1.0000
  H   H798      1.0  0.43751  0.64027  0.52481  1.0000
  C   C504      1.0  0.42695  0.60828  0.48939  1.0000
  N   N52       1.0  0.44996  0.61000  0.50330  1.0000
  H   H799      1.0  0.46218  0.62360  0.53819  1.0000
  H   H800      1.0  0.50789  0.69837  0.46262  1.0000
  H   H801      1.0  0.41909  0.62656  0.48638  1.0000
  S   S198      1.0  0.42147  0.67994  0.48825  1.0000
  H   H802      1.0  0.43183  0.61114  0.53816  1.0000
  H   H803      1.0  0.43999  0.75279  0.38317  1.0000
  H   H804      1.0  0.52916  0.65042  0.40456  1.0000
  C   C505      1.0  0.63206  0.76183  0.46648  1.0000
  S   S199      1.0  0.59711  0.69635  0.38119  1.0000
  H   H805      1.0  0.68864  0.64446  0.46259  1.0000
  C   C506      1.0  0.65256  0.74967  0.42911  1.0000
  Fe  Fe104     1.0  0.39200  0.62305  0.66470  1.0000
  S   S200      1.0  0.41314  0.64511  0.63687  1.0000
  C   C507      1.0  0.39337  0.76922  0.44291  1.0000
  C   C508      1.0  0.41104  0.77200  0.46112  1.0000
  C   C509      1.0  0.39230  0.62115  0.59794  1.0000
  C   C510      1.0  0.40508  0.64170  0.60589  1.0000
  C   C511      1.0  0.41104  0.66001  0.58900  1.0000
  C   C512      1.0  0.40351  0.65814  0.56446  1.0000
  H   H806      1.0  0.38812  0.60670  0.61060  1.0000
  H   H807      1.0  0.42105  0.67592  0.59505  1.0000
  H   H808      1.0  0.61282  0.77167  0.39675  1.0000
  Fe  Fe105     1.0  0.63233  0.69636  0.40185  1.0000
  H   H809      1.0  0.40761  0.67260  0.55168  1.0000
  C   C513      1.0  0.39019  0.63777  0.55680  1.0000
  Fe  Fe106     1.0  0.39970  0.71233  0.47603  1.0000
  S   S201      1.0  0.41558  0.74948  0.48359  1.0000
  H   H810      1.0  0.48540  0.75570  0.38406  1.0000
  S   S202      1.0  0.40783  0.60820  0.69971  1.0000
  S   S203      1.0  0.37026  0.58935  0.65611  1.0000
  H   H811      1.0  0.44697  0.72701  0.44562  1.0000
  H   H812      1.0  0.67770  0.70605  0.48958  1.0000
  H   H813      1.0  0.61798  0.75878  0.47998  1.0000
  C   C514      1.0  0.44062  0.75160  0.40344  1.0000
  H   H814      1.0  0.68462  0.72221  0.46183  1.0000
  C   C515      1.0  0.48451  0.75409  0.40431  1.0000
  H   H815      1.0  0.48392  0.77287  0.41199  1.0000
  C   C516      1.0  0.38502  0.61914  0.57346  1.0000
  C   C517      1.0  0.66653  0.54665  0.39202  1.0000
  H   H816      1.0  0.62226  0.73034  0.44501  1.0000
  S   S204      1.0  0.65669  0.72949  0.40449  1.0000
  N   N53       1.0  0.46309  0.73966  0.41207  1.0000
  H   H817      1.0  0.48191  0.70584  0.40670  1.0000
  C   C518      1.0  0.67505  0.54894  0.41600  1.0000
  C   C519      1.0  0.67710  0.70487  0.46929  1.0000
  H   H818      1.0  0.37497  0.60321  0.56753  1.0000
  H   H819      1.0  0.43924  0.77048  0.41064  1.0000
  C   C520      1.0  0.46457  0.71492  0.40155  1.0000
  S   S205      1.0  0.39521  0.69948  0.43742  1.0000
  Fe  Fe107     1.0  0.62753  0.64286  0.41601  1.0000
  S   S206      1.0  0.59139  0.63852  0.39725  1.0000
  S   S207      1.0  0.64771  0.61405  0.43721  1.0000
  Fe  Fe108     1.0  0.58248  0.67521  0.41317  1.0000
  S   S208      1.0  0.55023  0.68922  0.43456  1.0000
  S   S209      1.0  0.61722  0.67760  0.43471  1.0000
  H   H820      1.0  0.41290  0.53375  0.65753  1.0000
  C   C521      1.0  0.65484  0.58818  0.41972  1.0000
  C   C522      1.0  0.66912  0.56964  0.42986  1.0000
  C   C523      1.0  0.67938  0.66101  0.46970  1.0000
  S   S210      1.0  0.64591  0.66173  0.38481  1.0000
  C   C524      1.0  0.65204  0.56508  0.38203  1.0000
  C   C525      1.0  0.64630  0.58584  0.39577  1.0000
  C   C526      1.0  0.63446  0.74573  0.44667  1.0000
  H   H821      1.0  0.68639  0.53493  0.42378  1.0000
  H   H822      1.0  0.67055  0.68251  0.42652  1.0000
  H   H823      1.0  0.63517  0.60000  0.38785  1.0000
  H   H824      1.0  0.67583  0.57144  0.44837  1.0000
  C   C527      1.0  0.66792  0.76998  0.43124  1.0000
  H   H825      1.0  0.38154  0.75344  0.44296  1.0000
  S   S211      1.0  0.37881  0.63502  0.52694  1.0000
  H   H826      1.0  0.67995  0.66041  0.49000  1.0000
  H   H827      1.0  0.58129  0.77978  0.39418  1.0000
  C   C528      1.0  0.46266  0.73811  0.43903  1.0000
  H   H828      1.0  0.65760  0.70401  0.46383  1.0000
  C   C529      1.0  0.68965  0.68323  0.43309  1.0000
  H   H829      1.0  0.50179  0.74556  0.41061  1.0000
  H   H830      1.0  0.44934  0.70311  0.40805  1.0000
  N   N54       1.0  0.69061  0.68355  0.46007  1.0000
  H   H831      1.0  0.65992  0.65944  0.46414  1.0000
  H   H832      1.0  0.47956  0.72976  0.44629  1.0000
  Fe  Fe109     1.0  0.38350  0.57597  0.69261  1.0000
  H   H833      1.0  0.46381  0.71531  0.38125  1.0000
  H   H834      1.0  0.46097  0.75640  0.44758  1.0000
  H   H835      1.0  0.59742  0.53545  0.44457  1.0000
  H   H836      1.0  0.69795  0.69994  0.42506  1.0000
  H   H837      1.0  0.42570  0.59159  0.79896  1.0000
  C   C530      1.0  0.60266  0.74479  0.88263  1.0000
  H   H838      1.0  0.41369  0.56482  0.81353  1.0000
  H   H839      1.0  0.65754  0.73385  0.90905  1.0000
  H   H840      1.0  0.44335  0.69568  0.81822  1.0000
  C   C531      1.0  0.40068  0.64123  0.77266  1.0000
  C   C532      1.0  0.42361  0.64140  0.76159  1.0000
  H   H841      1.0  0.42507  0.64138  0.74187  1.0000
  C   C533      1.0  0.61782  0.70645  0.89764  1.0000
  H   H842      1.0  0.60754  0.73998  0.86349  1.0000
  S   S212      1.0  0.66734  0.69867  0.94794  1.0000
  S   S213      1.0  0.37385  0.64145  0.75528  1.0000
  H   H843      1.0  0.46244  0.64323  0.76745  1.0000
  C   C534      1.0  0.44472  0.64250  0.77608  1.0000
  H   H844      1.0  0.42144  0.69132  0.79427  1.0000
  C   C535      1.0  0.40830  0.53745  0.89743  1.0000
  H   H845      1.0  0.62390  0.70040  0.87923  1.0000
  C   C536      1.0  0.61223  0.74020  0.92538  1.0000
  C   C537      1.0  0.42562  0.57135  0.79843  1.0000
  C   C538      1.0  0.42227  0.77201  0.95844  1.0000
  H   H846      1.0  0.43576  0.72727  0.85020  1.0000
  C   C539      1.0  0.42002  0.64240  0.81263  1.0000
  Fe  Fe110     1.0  0.45678  0.63395  0.90982  1.0000
  S   S214      1.0  0.49074  0.63793  0.88716  1.0000
  S   S215      1.0  0.45056  0.60042  0.93301  1.0000
  Fe  Fe111     1.0  0.43913  0.68509  0.89734  1.0000
  H   H847      1.0  0.42787  0.56467  0.73672  1.0000
  Fe  Fe112     1.0  0.46549  0.65460  0.85954  1.0000
  S   S216      1.0  0.46951  0.64687  0.81924  1.0000
  Fe  Fe113     1.0  0.49327  0.67546  0.90339  1.0000
  N   N55       1.0  0.61933  0.73320  0.90030  1.0000
  S   S217      1.0  0.43134  0.64826  0.88117  1.0000
  S   S218      1.0  0.46126  0.67024  0.92829  1.0000
  C   C540      1.0  0.41290  0.55890  0.88431  1.0000
  C   C541      1.0  0.42598  0.57817  0.89502  1.0000
  C   C542      1.0  0.43436  0.57625  0.91908  1.0000
  C   C543      1.0  0.42969  0.55482  0.93227  1.0000
  H   H848      1.0  0.58346  0.73893  0.88575  1.0000
  H   H849      1.0  0.37705  0.73613  0.81763  1.0000
  H   H850      1.0  0.42965  0.59445  0.88461  1.0000
  H   H851      1.0  0.43617  0.55317  0.95086  1.0000
  H   H852      1.0  0.54137  0.63750  0.99742  1.0000
  H   H853      1.0  0.41844  0.64258  0.83223  1.0000
  H   H854      1.0  0.53763  0.58906  0.97013  1.0000
  H   H855      1.0  0.51461  0.64203  0.93508  1.0000
  H   H856      1.0  0.38518  0.56417  0.75188  1.0000
  C   C544      1.0  0.51722  0.62322  0.94204  1.0000
  H   H857      1.0  0.49346  0.65281  0.97282  1.0000
  C   C545      1.0  0.53964  0.63748  0.97717  1.0000
  S   S219      1.0  0.47135  0.69253  0.87348  1.0000
  H   H858      1.0  0.53815  0.65677  0.97117  1.0000
  C   C546      1.0  0.39888  0.69756  0.83784  1.0000
  H   H859      1.0  0.50502  0.58629  0.97146  1.0000
  H   H860      1.0  0.40784  0.74377  0.85033  1.0000
  H   H861      1.0  0.52171  0.59667  0.99781  1.0000
  H   H862      1.0  0.55699  0.63030  0.96947  1.0000
  C   C547      1.0  0.44295  0.64337  0.80163  1.0000
  S   S220      1.0  0.52460  0.69680  0.91983  1.0000
  H   H863      1.0  0.47939  0.62332  0.97274  1.0000
  H   H864      1.0  0.59331  0.73440  0.92962  1.0000
  N   N56       1.0  0.51839  0.62299  0.96898  1.0000
  C   C548      1.0  0.52082  0.59762  0.97752  1.0000
  H   H865      1.0  0.53419  0.61594  0.93372  1.0000
  C   C549      1.0  0.49580  0.63364  0.97896  1.0000
  H   H866      1.0  0.39972  0.74182  0.79456  1.0000
  H   H867      1.0  0.50177  0.61195  0.93516  1.0000
  C   C550      1.0  0.39894  0.64147  0.79818  1.0000
  N   N57       1.0  0.41720  0.56220  0.77444  1.0000
  C   C551      1.0  0.42158  0.73521  0.83809  1.0000
  H   H868      1.0  0.43900  0.71883  0.79553  1.0000
  C   C552      1.0  0.40415  0.75969  0.91982  1.0000
  C   C553      1.0  0.41541  0.73688  0.92154  1.0000
  C   C554      1.0  0.42999  0.73169  0.94179  1.0000
  C   C555      1.0  0.43323  0.74910  0.96027  1.0000
  H   H869      1.0  0.38952  0.68345  0.82667  1.0000
  N   N58       1.0  0.41039  0.71637  0.82234  1.0000
  H   H870      1.0  0.44437  0.74486  0.97601  1.0000
  H   H871      1.0  0.39275  0.76381  0.90425  1.0000
  H   H872      1.0  0.65086  0.73593  0.87704  1.0000
  H   H873      1.0  0.43031  0.74986  0.82712  1.0000
  C   C556      1.0  0.39169  0.72754  0.80655  1.0000
  H   H874      1.0  0.68465  0.75466  0.95243  1.0000
  H   H875      1.0  0.43846  0.71412  0.94349  1.0000
  H   H876      1.0  0.45267  0.56534  0.75804  1.0000
  S   S221      1.0  0.41136  0.71525  0.89808  1.0000
  H   H877      1.0  0.38120  0.64099  0.80678  1.0000
  H   H878      1.0  0.59888  0.69971  0.90031  1.0000
  C   C557      1.0  0.43359  0.57135  0.75506  1.0000
  H   H879      1.0  0.40646  0.56057  0.86571  1.0000
  C   C558      1.0  0.42937  0.70510  0.80693  1.0000
  H   H880      1.0  0.62941  0.69698  0.91132  1.0000
  Fe  Fe114     1.0  0.68512  0.67030  0.01034  1.0000
  Fe  Fe115     1.0  0.37512  0.62451  0.71772  1.0000
  S   S222      1.0  0.62323  0.64349  0.94573  1.0000
  H   H881      1.0  0.38292  0.71370  0.79446  1.0000
  C   C559      1.0  0.56791  0.69212  0.94389  1.0000
  H   H882      1.0  0.56306  0.70889  0.95300  1.0000
  C   C560      1.0  0.59604  0.65861  0.93849  1.0000
  C   C561      1.0  0.58014  0.64836  0.92122  1.0000
  C   C562      1.0  0.55829  0.66007  0.91510  1.0000
  H   H883      1.0  0.58493  0.63144  0.91232  1.0000
  Fe  Fe116     1.0  0.65205  0.66528  0.96570  1.0000
  H   H884      1.0  0.49243  0.74735  0.93916  1.0000
  C   C563      1.0  0.55204  0.68188  0.92659  1.0000
  S   S223      1.0  0.64666  0.68219  0.00264  1.0000
  H   H885      1.0  0.60206  0.68853  0.96321  1.0000
  C   C564      1.0  0.58993  0.68058  0.94977  1.0000
  H   H886      1.0  0.54637  0.65228  0.90140  1.0000
  Fe  Fe117     1.0  0.66412  0.71501  0.98518  1.0000
  S   S224      1.0  0.64609  0.75160  0.98866  1.0000
  H   H887      1.0  0.49583  0.63361  0.99929  1.0000
  H   H888      1.0  0.47676  0.77857  0.89489  1.0000
  H   H889      1.0  0.51044  0.75342  0.91258  1.0000
  C   C565      1.0  0.64453  0.74149  0.89551  1.0000
  H   H890      1.0  0.44449  0.56523  0.80252  1.0000
  H   H891      1.0  0.39130  0.59103  0.76927  1.0000
  H   H892      1.0  0.61323  0.76024  0.92798  1.0000
  H   H893      1.0  0.62436  0.73183  0.93933  1.0000
  H   H894      1.0  0.38515  0.70556  0.85046  1.0000
  C   C566      1.0  0.50542  0.76064  0.93090  1.0000
  H   H895      1.0  0.60332  0.76501  0.88422  1.0000
  H   H896      1.0  0.41260  0.68825  0.84947  1.0000
  S   S225      1.0  0.39399  0.53911  0.70755  1.0000
  C   C567      1.0  0.65193  0.77225  0.96484  1.0000
  C   C568      1.0  0.67204  0.76945  0.94943  1.0000
  C   C569      1.0  0.39216  0.57083  0.76979  1.0000
  H   H897      1.0  0.45907  0.77098  0.92129  1.0000
  H   H898      1.0  0.37928  0.56442  0.78409  1.0000
  C   C570      1.0  0.40772  0.77733  0.93815  1.0000
  H   H899      1.0  0.43360  0.59157  0.75430  1.0000
  H   H900      1.0  0.64606  0.76167  0.89663  1.0000
  C   C571      1.0  0.41743  0.53530  0.77445  1.0000
  H   H901      1.0  0.52215  0.76069  0.94238  1.0000
  C   C572      1.0  0.41673  0.53542  0.92147  1.0000
  S   S226      1.0  0.68894  0.65022  0.97479  1.0000
  H   H902      1.0  0.47569  0.78079  0.96336  1.0000
  H   H903      1.0  0.43603  0.83665  0.22878  1.0000
  H   H904      1.0  0.42133  0.87769  0.23871  1.0000
  H   H905      1.0  0.40216  0.89355  0.21776  1.0000
  S   S227      1.0  0.40040  0.91500  0.14188  1.0000
  H   H906      1.0  0.41313  0.02831  0.24645  1.0000
  H   H907      1.0  0.40384  0.99321  0.19828  1.0000
  H   H908      1.0  0.43467  0.98889  0.09989  1.0000
  H   H909      1.0  0.41227  0.01160  0.09278  1.0000
  C   C573      1.0  0.40928  0.88748  0.30952  1.0000
  C   C574      1.0  0.39025  0.90610  0.11266  1.0000
  C   C575      1.0  0.40722  0.89981  0.09457  1.0000
  C   C576      1.0  0.39935  0.89295  0.07105  1.0000
  H   H910      1.0  0.42648  0.90009  0.09873  1.0000
  H   H911      1.0  0.44989  0.84858  0.20153  1.0000
  C   C577      1.0  0.38537  0.89811  0.27347  1.0000
  C   C578      1.0  0.40096  0.91782  0.26921  1.0000
  H   H912      1.0  0.39777  0.92979  0.25394  1.0000
  H   H913      1.0  0.42872  0.96196  0.13633  1.0000
  H   H914      1.0  0.38449  0.96234  0.33875  1.0000
  H   H915      1.0  0.40409  0.84571  0.16945  1.0000
  C   C579      1.0  0.42504  0.90702  0.30503  1.0000
  H   H916      1.0  0.41248  0.88793  0.05720  1.0000
  C   C580      1.0  0.40832  0.86264  0.17980  1.0000
  H   H917      1.0  0.37647  0.96091  0.12030  1.0000
  H   H918      1.0  0.39290  0.87536  0.17687  1.0000
  C   C581      1.0  0.38277  0.94219  0.33787  1.0000
  H   H919      1.0  0.37380  0.85889  0.21395  1.0000
  C   C582      1.0  0.37447  0.89242  0.06561  1.0000
  C   C583      1.0  0.40184  0.01261  0.19585  1.0000
  N   N59       1.0  0.40353  0.98908  0.12370  1.0000
  C   C584      1.0  0.38988  0.97106  0.10894  1.0000
  H   H920      1.0  0.42463  0.87123  0.17125  1.0000
  C   C585      1.0  0.43274  0.84077  0.20913  1.0000
  H   H921      1.0  0.41242  0.87572  0.32506  1.0000
  C   C586      1.0  0.38964  0.88292  0.29362  1.0000
  H   H922      1.0  0.39968  0.93435  0.34588  1.0000
  H   H923      1.0  0.38233  0.93694  0.31822  1.0000
  N   N60       1.0  0.41216  0.85774  0.20609  1.0000
  H   H924      1.0  0.42923  0.82321  0.19958  1.0000
  C   C587      1.0  0.41772  0.88076  0.21891  1.0000
  H   H925      1.0  0.40227  0.95725  0.10079  1.0000
  S   S228      1.0  0.38244  0.94021  0.20469  1.0000
  C   C588      1.0  0.38984  0.84682  0.21659  1.0000
  Fe  Fe118     1.0  0.45204  0.89551  0.36151  1.0000
  C   C589      1.0  0.42088  0.92208  0.28478  1.0000
  C   C590      1.0  0.41652  0.97640  0.14359  1.0000
  H   H926      1.0  0.43392  0.89008  0.21098  1.0000
  H   H927      1.0  0.37560  0.89780  0.35629  1.0000
  C   C591      1.0  0.38641  0.00695  0.13423  1.0000
  S   S229      1.0  0.44979  0.91349  0.32445  1.0000
  H   H928      1.0  0.38540  0.82903  0.20794  1.0000
  H   H929      1.0  0.40046  0.01875  0.27520  1.0000
  H   H930      1.0  0.37974  0.97985  0.09376  1.0000
  H   H931      1.0  0.43298  0.93728  0.28130  1.0000
  H   H932      1.0  0.40355  0.96737  0.15637  1.0000
  H   H933      1.0  0.39165  0.84393  0.23666  1.0000
  H   H934      1.0  0.43963  0.01867  0.18649  1.0000
  C   C592      1.0  0.42140  0.00184  0.10804  1.0000
  Fe  Fe119     1.0  0.37071  0.92465  0.16860  1.0000
  H   H935      1.0  0.37342  0.99820  0.14721  1.0000
  H   H936      1.0  0.37771  0.86755  0.29697  1.0000
  C   C593      1.0  0.42203  0.02701  0.18924  1.0000
  C   C594      1.0  0.37919  0.02350  0.19970  1.0000
  H   H937      1.0  0.42793  0.98918  0.15444  1.0000
  H   H938      1.0  0.39622  0.02148  0.14451  1.0000
  C   C595      1.0  0.36542  0.90579  0.10712  1.0000
  H   H939      1.0  0.43201  0.01559  0.11868  1.0000
  H   H940      1.0  0.37549  0.01609  0.11982  1.0000
  H   H941      1.0  0.40931  0.98504  0.36704  1.0000
  Fe  Fe120     1.0  0.44645  0.91022  0.41436  1.0000
  S   S230      1.0  0.47842  0.91123  0.38894  1.0000
  S   S231      1.0  0.43786  0.94154  0.43958  1.0000
  Fe  Fe121     1.0  0.43087  0.85939  0.39792  1.0000
  S   S232      1.0  0.40307  0.82909  0.40061  1.0000
  Fe  Fe122     1.0  0.48456  0.87251  0.40052  1.0000
  S   S233      1.0  0.51907  0.85344  0.41265  1.0000
  S   S234      1.0  0.45456  0.87280  0.42842  1.0000
  H   H942      1.0  0.42277  0.02774  0.45781  1.0000
  H   H943      1.0  0.46787  0.90980  0.47927  1.0000
  H   H944      1.0  0.48883  0.92793  0.44433  1.0000
  C   C596      1.0  0.40601  0.80765  0.42441  1.0000
  C   C597      1.0  0.66745  0.89721  0.57299  1.0000
  C   C598      1.0  0.42599  0.79274  0.46107  1.0000
  C   C599      1.0  0.42366  0.81038  0.44265  1.0000
  H   H945      1.0  0.43963  0.79503  0.47517  1.0000
  H   H946      1.0  0.43548  0.82609  0.44264  1.0000
  C   C600      1.0  0.42124  0.96426  0.42434  1.0000
  C   C601      1.0  0.42183  0.96576  0.39885  1.0000
  C   C602      1.0  0.62196  0.89121  0.68770  1.0000
  C   C603      1.0  0.39412  0.00022  0.39994  1.0000
  C   C604      1.0  0.39364  0.99892  0.42546  1.0000
  C   C605      1.0  0.40734  0.98105  0.43766  1.0000
  H   H947      1.0  0.37883  0.93334  0.38573  1.0000
  C   C606      1.0  0.66901  0.91688  0.61300  1.0000
  H   H948      1.0  0.40667  0.97981  0.45738  1.0000
  C   C607      1.0  0.50959  0.93488  0.48836  1.0000
  H   H949      1.0  0.53062  0.89238  0.49966  1.0000
  H   H950      1.0  0.49371  0.94699  0.48504  1.0000
  H   H951      1.0  0.60187  0.89197  0.69003  1.0000
  N   N61       1.0  0.50683  0.91160  0.47511  1.0000
  C   C608      1.0  0.60313  0.80988  0.42587  1.0000
  C   C609      1.0  0.48450  0.89899  0.48349  1.0000
  C   C610      1.0  0.50493  0.91648  0.44865  1.0000
  H   H952      1.0  0.51105  0.93193  0.50843  1.0000
  H   H953      1.0  0.52642  0.87816  0.47042  1.0000
  H   H954      1.0  0.52631  0.94478  0.48241  1.0000
  H   H955      1.0  0.48234  0.88100  0.47434  1.0000
  C   C611      1.0  0.52824  0.89606  0.47981  1.0000
  H   H956      1.0  0.54536  0.90468  0.47303  1.0000
  H   H957      1.0  0.48489  0.89565  0.50353  1.0000
  H   H958      1.0  0.52136  0.92613  0.44166  1.0000
  H   H959      1.0  0.50303  0.89927  0.43811  1.0000
  H   H960      1.0  0.44171  0.01933  0.41650  1.0000
  Fe  Fe123     1.0  0.69449  0.86984  0.45486  1.0000
  Fe  Fe124     1.0  0.64354  0.88981  0.46374  1.0000
  S   S235      1.0  0.64141  0.87458  0.50179  1.0000
  S   S236      1.0  0.61331  0.91148  0.44606  1.0000
  Fe  Fe125     1.0  0.68027  0.88735  0.50572  1.0000
  H   H961      1.0  0.46662  0.02029  0.45364  1.0000
  Fe  Fe126     1.0  0.65755  0.84109  0.48448  1.0000
  S   S237      1.0  0.64207  0.80371  0.49176  1.0000
  S   S238      1.0  0.68112  0.90558  0.46893  1.0000
  S   S239      1.0  0.65709  0.85554  0.44624  1.0000
  C   C612      1.0  0.58286  0.87162  0.44505  1.0000
  C   C613      1.0  0.58728  0.89523  0.43666  1.0000
  C   C614      1.0  0.57047  0.90624  0.42087  1.0000
  H   H962      1.0  0.59549  0.86327  0.45768  1.0000
  H   H963      1.0  0.57387  0.92451  0.41430  1.0000
  H   H964      1.0  0.66504  0.86883  0.68506  1.0000
  H   H965      1.0  0.62886  0.91032  0.68753  1.0000
  H   H966      1.0  0.67676  0.80232  0.45191  1.0000
  C   C615      1.0  0.39076  0.78708  0.42470  1.0000
  N   N62       1.0  0.60572  0.81011  0.39901  1.0000
  H   H967      1.0  0.55835  0.84088  0.44433  1.0000
  H   H968      1.0  0.64433  0.80388  0.40061  1.0000
  S   S240      1.0  0.41975  0.89699  0.38639  1.0000
  H   H969      1.0  0.69531  0.94577  0.61662  1.0000
  C   C616      1.0  0.40847  0.98379  0.38673  1.0000
  H   H970      1.0  0.58411  0.80578  0.43155  1.0000
  C   C617      1.0  0.58874  0.82811  0.38853  1.0000
  C   C618      1.0  0.66503  0.78650  0.45061  1.0000
  H   H971      1.0  0.62582  0.88354  0.66926  1.0000
  C   C619      1.0  0.68761  0.93213  0.60458  1.0000
  H   H972      1.0  0.43277  0.95312  0.38843  1.0000
  C   C620      1.0  0.54950  0.89358  0.41321  1.0000
  H   H973      1.0  0.64414  0.88797  0.60338  1.0000
  H   H974      1.0  0.67637  0.02250  0.67327  1.0000
  H   H975      1.0  0.59000  0.82870  0.36825  1.0000
  C   C621      1.0  0.65867  0.89970  0.59703  1.0000
  C   C622      1.0  0.56187  0.85901  0.43749  1.0000
  C   C623      1.0  0.54514  0.86994  0.42157  1.0000
  H   H976      1.0  0.53686  0.90203  0.40068  1.0000
  H   H977      1.0  0.38234  0.01135  0.43574  1.0000
  H   H978      1.0  0.65978  0.88354  0.56097  1.0000
  S   S241      1.0  0.37650  0.02144  0.38373  1.0000
  S   S242      1.0  0.65920  0.91815  0.64364  1.0000
  S   S243      1.0  0.69613  0.85238  0.49185  1.0000
  H   H979      1.0  0.62797  0.84269  0.68892  1.0000
  H   H980      1.0  0.59271  0.84679  0.39546  1.0000
  C   C624      1.0  0.68658  0.91197  0.56484  1.0000
  Fe  Fe127     1.0  0.68353  0.93770  0.67070  1.0000
  C   C625      1.0  0.63101  0.81681  0.39252  1.0000
  H   H981      1.0  0.56947  0.82389  0.39340  1.0000
  H   H982      1.0  0.61489  0.79584  0.43419  1.0000
  H   H983      1.0  0.63581  0.83531  0.39936  1.0000
  H   H984      1.0  0.60853  0.82760  0.43410  1.0000
  C   C626      1.0  0.69638  0.92965  0.58058  1.0000
  H   H985      1.0  0.37700  0.78488  0.41071  1.0000
  S   S244      1.0  0.46121  0.85673  0.37056  1.0000
  C   C627      1.0  0.60010  0.78560  0.38928  1.0000
  C   C628      1.0  0.64711  0.78244  0.46831  1.0000
  H   H986      1.0  0.63381  0.81674  0.37239  1.0000
  H   H987      1.0  0.60173  0.78503  0.36902  1.0000
  Fe  Fe128     1.0  0.42831  0.88320  0.96833  1.0000
  S   S245      1.0  0.42661  0.86059  0.00250  1.0000
  S   S246      1.0  0.45876  0.90887  0.95806  1.0000
  C   C629      1.0  0.67613  0.78611  0.93037  1.0000
  H   H988      1.0  0.62009  0.79363  0.97266  1.0000
  Fe  Fe129     1.0  0.38749  0.87226  0.00495  1.0000
  Fe  Fe130     1.0  0.41263  0.83143  0.97705  1.0000
  H   H989      1.0  0.60248  0.01504  0.85062  1.0000
  S   S247      1.0  0.39045  0.89761  0.97297  1.0000
  S   S248      1.0  0.41694  0.85336  0.94273  1.0000
  C   C630      1.0  0.63614  0.96336  0.84939  1.0000
  C   C631      1.0  0.67301  0.86242  0.96899  1.0000
  H   H990      1.0  0.51496  0.83999  0.95645  1.0000
  C   C632      1.0  0.51166  0.85832  0.95036  1.0000
  C   C633      1.0  0.48995  0.86998  0.95692  1.0000
  C   C634      1.0  0.48600  0.89410  0.94998  1.0000
  C   C635      1.0  0.50394  0.90650  0.93653  1.0000
  H   H991      1.0  0.47641  0.86047  0.96768  1.0000
  H   H992      1.0  0.67796  0.02287  0.92931  1.0000
  C   C636      1.0  0.68868  0.00004  0.89921  1.0000
  C   C637      1.0  0.52921  0.87033  0.93614  1.0000
  C   C638      1.0  0.52547  0.89457  0.92943  1.0000
  S   S249      1.0  0.69706  0.89963  0.75272  1.0000
  S   S250      1.0  0.66838  0.94721  0.70763  1.0000
  C   C639      1.0  0.63578  0.79151  0.96089  1.0000
  H   H993      1.0  0.68136  0.87142  0.92133  1.0000
  C   C640      1.0  0.67421  0.90412  0.77489  1.0000
  H   H994      1.0  0.65006  0.87595  0.82505  1.0000
  H   H995      1.0  0.57646  0.97834  0.85559  1.0000
  C   C641      1.0  0.68754  0.97653  0.88931  1.0000
  C   C642      1.0  0.59240  0.96715  0.85017  1.0000
  H   H996      1.0  0.63505  0.01216  0.85023  1.0000
  H   H997      1.0  0.67644  0.85267  0.98646  1.0000
  H   H998      1.0  0.47865  0.81164  0.95347  1.0000
  C   C643      1.0  0.62413  0.85164  0.70676  1.0000
  H   H999      1.0  0.50098  0.92521  0.93124  1.0000
  H   H1000     1.0  0.66029  0.87769  0.97285  1.0000
  H   H1001     1.0  0.51829  0.79602  0.89974  1.0000
  C   C644      1.0  0.51242  0.80220  0.91815  1.0000
  H   H1002     1.0  0.63261  0.84040  0.72138  1.0000
  C   C645      1.0  0.65779  0.92340  0.77303  1.0000
  C   C646      1.0  0.67146  0.88717  0.79386  1.0000
  H   H1003     1.0  0.66000  0.93683  0.75881  1.0000
  H   H1004     1.0  0.67813  0.02703  0.80845  1.0000
  C   C647      1.0  0.62836  0.88799  0.73120  1.0000
  H   H1005     1.0  0.69645  0.90436  0.97854  1.0000
  H   H1006     1.0  0.50453  0.79593  0.96582  1.0000
  N   N63       1.0  0.63366  0.87681  0.70722  1.0000
  S   S251      1.0  0.68215  0.01428  0.72566  1.0000
  H   H1007     1.0  0.63545  0.95951  0.82944  1.0000
  N   N64       1.0  0.61565  0.97887  0.85719  1.0000
  H   H1008     1.0  0.62486  0.93941  0.78707  1.0000
  C   C648      1.0  0.63796  0.92493  0.78917  1.0000
  Fe  Fe131     1.0  0.61392  0.89291  0.86480  1.0000
  S   S252      1.0  0.65024  0.89345  0.88340  1.0000
  S   S253      1.0  0.60965  0.90983  0.82745  1.0000
  Fe  Fe132     1.0  0.58740  0.87292  0.90957  1.0000
  S   S254      1.0  0.62156  0.87316  0.93203  1.0000
  H   H1009     1.0  0.67776  0.89951  0.93764  1.0000
  Fe  Fe133     1.0  0.62975  0.90931  0.91490  1.0000
  S   S255      1.0  0.64435  0.94046  0.93763  1.0000
  Fe  Fe134     1.0  0.63901  0.85716  0.89885  1.0000
  S   S256      1.0  0.66537  0.82590  0.90231  1.0000
  S   S257      1.0  0.59367  0.91090  0.89565  1.0000
  S   S258      1.0  0.60458  0.85493  0.87693  1.0000
  C   C649      1.0  0.63509  0.90785  0.80798  1.0000
  C   C650      1.0  0.65977  0.80519  0.92622  1.0000
  C   C651      1.0  0.63940  0.80762  0.94132  1.0000
  H   H1010     1.0  0.63767  0.87819  0.74635  1.0000
  H   H1011     1.0  0.39920  0.79498  0.93665  1.0000
  H   H1012     1.0  0.62636  0.82188  0.93801  1.0000
  S   S259      1.0  0.37330  0.84105  0.98239  1.0000
  H   H1013     1.0  0.66337  0.84946  0.95669  1.0000
  H   H1014     1.0  0.68418  0.87227  0.79549  1.0000
  C   C652      1.0  0.65214  0.88921  0.81059  1.0000
  H   H1015     1.0  0.61729  0.00101  0.82490  1.0000
  C   C653      1.0  0.66230  0.96289  0.92312  1.0000
  C   C654      1.0  0.66414  0.98620  0.93349  1.0000
  C   C655      1.0  0.67713  0.00480  0.92148  1.0000
  H   H1016     1.0  0.63339  0.99165  0.88982  1.0000
  H   H1017     1.0  0.63584  0.94546  0.85892  1.0000
  C   C656      1.0  0.67424  0.95806  0.90109  1.0000
  H   H1018     1.0  0.65502  0.99006  0.95058  1.0000
  H   H1019     1.0  0.65398  0.97212  0.85323  1.0000
  H   H1020     1.0  0.67330  0.94013  0.89311  1.0000
  N   N65       1.0  0.49465  0.78521  0.92924  1.0000
  C   C657      1.0  0.61643  0.98212  0.88401  1.0000
  H   H1021     1.0  0.59140  0.96391  0.83010  1.0000
  H   H1022     1.0  0.59031  0.94906  0.85902  1.0000
  Fe  Fe135     1.0  0.37871  0.86584  0.95028  1.0000
  H   H1023     1.0  0.60080  0.99305  0.89072  1.0000
  H   H1024     1.0  0.60851  0.88807  0.73523  1.0000
  H   H1025     1.0  0.52909  0.80418  0.92962  1.0000
  H   H1026     1.0  0.53895  0.90401  0.91857  1.0000
  S   S260      1.0  0.55480  0.85380  0.92616  1.0000
  C   C658      1.0  0.48816  0.79377  0.95402  1.0000
  H   H1027     1.0  0.50460  0.82075  0.91598  1.0000
  H   H1028     1.0  0.61589  0.96432  0.89374  1.0000
  C   C659      1.0  0.61769  0.00285  0.84516  1.0000
  H   H1029     1.0  0.66980  0.86567  0.71760  1.0000
  S   S261      1.0  0.42827  0.79378  0.98123  1.0000
  H   H1030     1.0  0.63478  0.90721  0.73179  1.0000
  C   C660      1.0  0.47250  0.78422  0.91391  1.0000
  H   H1031     1.0  0.46328  0.80224  0.91318  1.0000
  H   H1032     1.0  0.69675  0.97266  0.87227  1.0000
  H   H1033     1.0  0.60407  0.85123  0.70963  1.0000
  C   C661      1.0  0.69028  0.88390  0.93462  1.0000
  H   H1034     1.0  0.69192  0.78407  0.91872  1.0000
  H   H1035     1.0  0.66806  0.89508  0.70409  1.0000
  Fe  Fe136     1.0  0.69337  0.97963  0.70636  1.0000
  C   C662      1.0  0.66027  0.87645  0.70328  1.0000
  N   N66       1.0  0.69586  0.87121  0.95774  1.0000
  Fe  Fe137     1.0  0.85966  0.07480  0.16012  1.0000
  S   S262      1.0  0.89131  0.09907  0.16933  1.0000
  H   H1036     1.0  0.93771  0.21072  0.28502  1.0000
  Fe  Fe138     1.0  0.83080  0.11607  0.13582  1.0000
  S   S263      1.0  0.85967  0.14393  0.14413  1.0000
  S   S264      1.0  0.79918  0.12401  0.11043  1.0000
  Fe  Fe139     1.0  0.88578  0.11507  0.13187  1.0000
  S   S265      1.0  0.91586  0.12059  0.10430  1.0000
  Fe  Fe140     1.0  0.86257  0.12557  0.18083  1.0000
  S   S266      1.0  0.86223  0.14308  0.21815  1.0000
  S   S267      1.0  0.85680  0.08812  0.12155  1.0000
  S   S268      1.0  0.83103  0.10044  0.17362  1.0000
  N   N67       1.0  0.84560  0.12160  0.05037  1.0000
  H   H1037     1.0  0.92433  0.18198  0.29258  1.0000
  H   H1038     1.0  0.94958  0.13734  0.23691  1.0000
  C   C663      1.0  0.77344  0.13823  0.12313  1.0000
  C   C664      1.0  0.75428  0.14520  0.10770  1.0000
  C   C665      1.0  0.73352  0.15658  0.11731  1.0000
  C   C666      1.0  0.73175  0.16089  0.14245  1.0000
  C   C667      1.0  0.75083  0.15379  0.15789  1.0000
  C   C668      1.0  0.77169  0.14257  0.14825  1.0000
  H   H1039     1.0  0.75559  0.14197  0.08826  1.0000
  H   H1040     1.0  0.71897  0.16214  0.10527  1.0000
  H   H1041     1.0  0.74958  0.15713  0.17734  1.0000
  H   H1042     1.0  0.78641  0.13729  0.16026  1.0000
  C   C669      1.0  0.91126  0.13786  0.22798  1.0000
  C   C670      1.0  0.88754  0.13861  0.23726  1.0000
  H   H1043     1.0  0.91426  0.13903  0.20847  1.0000
  H   H1044     1.0  0.90066  0.08402  0.22733  1.0000
  C   C671      1.0  0.84461  0.14184  0.06813  1.0000
  H   H1045     1.0  0.87360  0.06229  0.28563  1.0000
  C   C672      1.0  0.92435  0.14523  0.06166  1.0000
  C   C673      1.0  0.91326  0.14585  0.08474  1.0000
  C   C674      1.0  0.89935  0.16604  0.09137  1.0000
  C   C675      1.0  0.89585  0.18512  0.07471  1.0000
  H   H1046     1.0  0.86552  0.13746  0.26979  1.0000
  H   H1047     1.0  0.93541  0.12979  0.05656  1.0000
  H   H1048     1.0  0.89132  0.16701  0.10933  1.0000
  H   H1049     1.0  0.88487  0.20058  0.07988  1.0000
  H   H1050     1.0  0.85738  0.15670  0.06303  1.0000
  C   C676      1.0  0.93122  0.13692  0.24410  1.0000
  S   S269      1.0  0.85387  0.03589  0.17217  1.0000
  C   C677      1.0  0.88258  0.07494  0.22554  1.0000
  N   N68       1.0  0.89860  0.21096  0.28814  1.0000
  C   C678      1.0  0.90373  0.13548  0.27850  1.0000
  H   H1051     1.0  0.88169  0.20117  0.32222  1.0000
  S   S270      1.0  0.90771  0.15649  0.34131  1.0000
  H   H1052     1.0  0.87992  0.17822  0.29888  1.0000
  C   C679      1.0  0.89600  0.03982  0.24811  1.0000
  H   H1053     1.0  0.84821  0.03564  0.25878  1.0000
  H   H1054     1.0  0.86358  0.08833  0.26857  1.0000
  C   C680      1.0  0.87749  0.07365  0.26925  1.0000
  H   H1055     1.0  0.80841  0.11116  0.05706  1.0000
  H   H1056     1.0  0.89551  0.08260  0.27214  1.0000
  C   C681      1.0  0.92018  0.16394  0.04467  1.0000
  H   H1057     1.0  0.89972  0.24118  0.31303  1.0000
  H   H1058     1.0  0.91152  0.24757  0.28309  1.0000
  H   H1059     1.0  0.87108  0.09416  0.03893  1.0000
  C   C682      1.0  0.89719  0.23733  0.29316  1.0000
  H   H1060     1.0  0.90057  0.13369  0.29782  1.0000
  H   H1061     1.0  0.90636  0.04407  0.17195  1.0000
  H   H1062     1.0  0.86866  0.08949  0.22358  1.0000
  S   S271      1.0  0.94898  0.11692  0.35839  1.0000
  S   S272      1.0  0.96366  0.17469  0.35163  1.0000
  C   C683      1.0  0.82699  0.10318  0.05675  1.0000
  H   H1063     1.0  0.82606  0.14984  0.06931  1.0000
  N   N69       1.0  0.87728  0.05901  0.24658  1.0000
  H   H1064     1.0  0.88261  0.06442  0.20819  1.0000
  H   H1065     1.0  0.84955  0.13570  0.08688  1.0000
  S   S273      1.0  0.70563  0.17454  0.15504  1.0000
  H   H1066     1.0  0.90885  0.21609  0.25051  1.0000
  C   C684      1.0  0.92752  0.13629  0.26947  1.0000
  H   H1067     1.0  0.86094  0.20459  0.29709  1.0000
  C   C685      1.0  0.88385  0.13716  0.26253  1.0000
  H   H1068     1.0  0.87664  0.21234  0.25553  1.0000
  H   H1069     1.0  0.70716  0.26907  0.04047  1.0000
  H   H1070     1.0  0.92635  0.20526  0.31529  1.0000
  C   C686      1.0  0.92280  0.20190  0.29556  1.0000
  S   S274      1.0  0.95270  0.13813  0.28949  1.0000
  H   H1071     1.0  0.02068  0.15109  0.36562  1.0000
  C   C687      1.0  0.87944  0.19818  0.30218  1.0000
  H   H1072     1.0  0.91458  0.04777  0.25006  1.0000
  H   H1073     1.0  0.89655  0.18671  0.25735  1.0000
  H   H1074     1.0  0.87918  0.24482  0.28776  1.0000
  C   C688      1.0  0.89498  0.20641  0.26174  1.0000
  Fe  Fe141     1.0  0.94491  0.14551  0.32949  1.0000
  C   C689      1.0  0.90567  0.18378  0.05112  1.0000
  C   C690      1.0  0.86998  0.11035  0.05106  1.0000
  H   H1075     1.0  0.88424  0.12339  0.04501  1.0000
  H   H1076     1.0  0.87495  0.10441  0.06989  1.0000
  H   H1077     1.0  0.82701  0.08768  0.04367  1.0000
  C   C691      1.0  0.85303  0.04770  0.24320  1.0000
  H   H1078     1.0  0.83026  0.09563  0.07534  1.0000
  H   H1079     1.0  0.73480  0.14701  0.04048  1.0000
  H   H1080     1.0  0.83856  0.06173  0.24145  1.0000
  H   H1081     1.0  0.72154  0.09334  0.03842  1.0000
  H   H1082     1.0  0.74993  0.10560  0.04934  1.0000
  H   H1083     1.0  0.85238  0.03650  0.22620  1.0000
  S   S275      1.0  0.91268  0.22235  0.36245  1.0000
  Fe  Fe142     1.0  0.92625  0.18360  0.36554  1.0000
  H   H1084     1.0  0.93657  0.25842  0.03412  1.0000
  C   C692      1.0  0.88527  0.04048  0.43044  1.0000
  H   H1085     1.0  0.00373  0.08667  0.41579  1.0000
  H   H1086     1.0  0.98510  0.09029  0.38932  1.0000
  H   H1087     1.0  0.71085  0.13992  0.62176  1.0000
  Fe  Fe143     1.0  0.91252  0.12952  0.37147  1.0000
  H   H1088     1.0  0.93518  0.04967  0.41191  1.0000
  Fe  Fe144     1.0  0.96387  0.14709  0.38190  1.0000
  S   S276      1.0  0.99320  0.14092  0.41024  1.0000
  S   S277      1.0  0.92730  0.15772  0.39734  1.0000
  C   C693      1.0  0.89449  0.06360  0.43638  1.0000
  C   C694      1.0  0.90492  0.26778  0.43221  1.0000
  H   H1089     1.0  0.71865  0.17036  0.63100  1.0000
  C   C695      1.0  0.90044  0.26323  0.38828  1.0000
  C   C696      1.0  0.90968  0.23949  0.38952  1.0000
  C   C697      1.0  0.91659  0.22996  0.41214  1.0000
  C   C698      1.0  0.91420  0.24407  0.43341  1.0000
  C   C699      1.0  0.70438  0.15911  0.62189  1.0000
  H   H1090     1.0  0.92370  0.21168  0.41328  1.0000
  H   H1091     1.0  0.91952  0.23655  0.45088  1.0000
  C   C700      1.0  0.87377  0.05576  0.39046  1.0000
  C   C701      1.0  0.88371  0.07861  0.39607  1.0000
  C   C702      1.0  0.89396  0.08259  0.41913  1.0000
  H   H1092     1.0  0.95589  0.27592  0.44949  1.0000
  H   H1093     1.0  0.90088  0.10043  0.42382  1.0000
  H   H1094     1.0  0.86540  0.05274  0.37281  1.0000
  C   C703      1.0  0.95088  0.05734  0.40160  1.0000
  C   C704      1.0  0.87472  0.03671  0.40750  1.0000
  N   N70       1.0  0.96856  0.06938  0.41809  1.0000
  H   H1095     1.0  0.90210  0.06675  0.45434  1.0000
  C   C705      1.0  0.97605  0.05209  0.43734  1.0000
  C   C706      1.0  0.02417  0.14743  0.40464  1.0000
  H   H1096     1.0  0.99940  0.06152  0.39513  1.0000
  H   H1097     1.0  0.94154  0.08565  0.44130  1.0000
  H   H1098     1.0  0.98090  0.27257  0.42880  1.0000
  H   H1099     1.0  0.98934  0.06058  0.45017  1.0000
  C   C707      1.0  0.99016  0.07719  0.40395  1.0000
  H   H1100     1.0  0.96009  0.04584  0.44833  1.0000
  H   H1101     1.0  0.94333  0.07027  0.38793  1.0000
  H   H1102     1.0  0.98638  0.28014  0.46040  1.0000
  S   S278      1.0  0.88218  0.10194  0.37415  1.0000
  H   H1103     1.0  0.95044  0.10393  0.41558  1.0000
  H   H1104     1.0  0.97041  0.10104  0.44122  1.0000
  C   C708      1.0  0.95721  0.09088  0.42956  1.0000
  C   C709      1.0  0.89800  0.27735  0.40958  1.0000
  H   H1105     1.0  0.98466  0.03560  0.42937  1.0000
  H   H1106     1.0  0.89500  0.27068  0.37084  1.0000
  H   H1107     1.0  0.70301  0.16524  0.60257  1.0000
  H   H1108     1.0  0.95930  0.04198  0.39147  1.0000
  H   H1109     1.0  0.90604  0.26940  0.92249  1.0000
  H   H1110     1.0  0.96112  0.26111  0.98518  1.0000
  Fe  Fe145     1.0  0.74259  0.09639  0.92566  1.0000
  S   S279      1.0  0.71633  0.12729  0.92222  1.0000
  S   S280      1.0  0.77701  0.10046  0.94822  1.0000
  H   H1111     1.0  0.70215  0.08360  0.83695  1.0000
  C   C710      1.0  0.72592  0.10896  0.99217  1.0000
  H   H1112     1.0  0.90413  0.08132  0.89830  1.0000
  S   S281      1.0  0.73819  0.08420  0.88675  1.0000
  Fe  Fe146     1.0  0.88714  0.18942  0.94113  1.0000
  S   S282      1.0  0.89335  0.22397  0.96241  1.0000
  S   S283      1.0  0.85420  0.18122  0.91767  1.0000
  Fe  Fe147     1.0  0.93689  0.16961  0.95320  1.0000
  S   S284      1.0  0.94721  0.20154  0.97653  1.0000
  S   S285      1.0  0.96164  0.13879  0.94312  1.0000
  Fe  Fe148     1.0  0.90908  0.19900  0.99083  1.0000
  Fe  Fe149     1.0  0.93106  0.22399  0.94640  1.0000
  S   S286      1.0  0.95569  0.25486  0.93451  1.0000
  S   S287      1.0  0.90023  0.16451  0.97073  1.0000
  S   S288      1.0  0.92329  0.19215  0.92218  1.0000
  S   S289      1.0  0.89873  0.20667  0.02987  1.0000
  H   H1113     1.0  0.89809  0.15823  0.88933  1.0000
  H   H1114     1.0  0.91912  0.26992  0.96961  1.0000
  H   H1115     1.0  0.72501  0.15466  0.01017  1.0000
  C   C711      1.0  0.98810  0.15036  0.92902  1.0000
  C   C712      1.0  0.99064  0.17541  0.92527  1.0000
  C   C713      1.0  0.01149  0.18471  0.91378  1.0000
  H   H1116     1.0  0.91220  0.12451  0.93210  1.0000
  H   H1117     1.0  0.97657  0.18771  0.93119  1.0000
  C   C714      1.0  0.79798  0.12331  0.93973  1.0000
  C   C715      1.0  0.79497  0.13681  0.91831  1.0000
  C   C716      1.0  0.81224  0.15466  0.91188  1.0000
  C   C717      1.0  0.83243  0.15933  0.92693  1.0000
  C   C718      1.0  0.83525  0.14600  0.94852  1.0000
  C   C719      1.0  0.81816  0.12793  0.95478  1.0000
  H   H1118     1.0  0.77943  0.13340  0.90659  1.0000
  H   H1119     1.0  0.80988  0.16493  0.89518  1.0000
  H   H1120     1.0  0.85058  0.14954  0.96035  1.0000
  H   H1121     1.0  0.82056  0.11746  0.97129  1.0000
  H   H1122     1.0  0.77451  0.10993  0.99997  1.0000
  H   H1123     1.0  0.70711  0.10283  0.99675  1.0000
  N   N71       1.0  0.73896  0.11839  0.01386  1.0000
  C   C720      1.0  0.00664  0.13465  0.92128  1.0000
  H   H1124     1.0  0.71478  0.09584  0.80938  1.0000
  H   H1125     1.0  0.82271  0.13984  0.02435  1.0000
  H   H1126     1.0  0.72847  0.06978  0.82366  1.0000
  H   H1127     1.0  0.88491  0.10637  0.93086  1.0000
  C   C721      1.0  0.87314  0.11677  0.88454  1.0000
  H   H1128     1.0  0.72430  0.12307  0.97769  1.0000
  H   H1129     1.0  0.84166  0.11634  0.01163  1.0000
  H   H1130     1.0  0.70259  0.15189  0.80065  1.0000
  C   C722      1.0  0.91258  0.09824  0.89095  1.0000
  N   N72       1.0  0.89734  0.11974  0.89606  1.0000
  H   H1131     1.0  0.71078  0.07233  0.77026  1.0000
  H   H1132     1.0  0.92748  0.14483  0.89493  1.0000
  C   C723      1.0  0.84089  0.13109  0.02554  1.0000
  H   H1133     1.0  0.76356  0.13930  0.99158  1.0000
  Fe  Fe150     1.0  0.70787  0.06018  0.90032  1.0000
  H   H1134     1.0  0.86135  0.13288  0.88816  1.0000
  Fe  Fe151     1.0  0.70927  0.11286  0.88430  1.0000
  H   H1135     1.0  0.93094  0.10018  0.89954  1.0000
  C   C724      1.0  0.89431  0.12239  0.92273  1.0000
  C   C725      1.0  0.02766  0.14401  0.90986  1.0000
  H   H1136     1.0  0.73562  0.09323  0.98392  1.0000
  H   H1137     1.0  0.85470  0.14509  0.02028  1.0000
  H   H1138     1.0  0.87463  0.11475  0.86437  1.0000
  S   S290      1.0  0.71491  0.06952  0.93956  1.0000
  C   C726      1.0  0.92537  0.26166  0.01750  1.0000
  C   C727      1.0  0.95957  0.27848  0.99554  1.0000
  H   H1139     1.0  0.91538  0.09569  0.87097  1.0000
  H   H1140     1.0  0.86334  0.10054  0.89178  1.0000
  C   C728      1.0  0.90938  0.14172  0.88616  1.0000
  H   H1141     1.0  0.72461  0.04651  0.78480  1.0000
  C   C729      1.0  0.76388  0.12576  0.00675  1.0000
  H   H1142     1.0  0.97211  0.27715  0.01145  1.0000
  H   H1143     1.0  0.00880  0.25292  0.91082  1.0000
  H   H1144     1.0  0.88328  0.13870  0.92714  1.0000
  C   C730      1.0  0.74013  0.09917  0.03269  1.0000
  H   H1145     1.0  0.01319  0.20407  0.91083  1.0000
  H   H1146     1.0  0.91241  0.14023  0.86612  1.0000
  C   C731      1.0  0.03005  0.16910  0.90608  1.0000
  H   H1147     1.0  0.92605  0.24471  0.00640  1.0000
  H   H1148     1.0  0.01627  0.27478  0.93394  1.0000
  C   C732      1.0  0.72586  0.13964  0.02377  1.0000
  H   H1149     1.0  0.92812  0.16295  0.02661  1.0000
  H   H1150     1.0  0.00480  0.11527  0.92417  1.0000
  H   H1151     1.0  0.90612  0.26391  0.02346  1.0000
  H   H1152     1.0  0.77391  0.13400  0.02236  1.0000
  C   C733      1.0  0.02397  0.26003  0.92240  1.0000
  H   H1153     1.0  0.74968  0.08275  0.02569  1.0000
  H   H1154     1.0  0.02965  0.24493  0.93467  1.0000
  C   C734      1.0  0.70699  0.05588  0.78153  1.0000
  H   H1155     1.0  0.70680  0.13482  0.02876  1.0000
  C   C735      1.0  0.71078  0.07855  0.81924  1.0000
  S   S291      1.0  0.70991  0.13526  0.84969  1.0000
  C   C736      1.0  0.01975  0.41193  0.28042  1.0000
  H   H1156     1.0  0.74210  0.38076  0.35001  1.0000
  H   H1157     1.0  0.71716  0.46871  0.27753  1.0000
  C   C737      1.0  0.71605  0.47015  0.25725  1.0000
  H   H1158     1.0  0.70662  0.45192  0.21215  1.0000
  H   H1159     1.0  0.02711  0.42574  0.32720  1.0000
  H   H1160     1.0  0.94464  0.30298  0.03540  1.0000
  H   H1161     1.0  0.73183  0.46018  0.24943  1.0000
  H   H1162     1.0  0.71819  0.48972  0.25234  1.0000
  H   H1163     1.0  0.00257  0.41681  0.29003  1.0000
  H   H1164     1.0  0.02665  0.42862  0.27115  1.0000
  H   H1165     1.0  0.01148  0.38433  0.32049  1.0000
  C   C738      1.0  0.02815  0.38017  0.30968  1.0000
  H   H1166     1.0  0.77056  0.38757  0.36472  1.0000
  H   H1167     1.0  0.02349  0.36576  0.29618  1.0000
  H   H1168     1.0  0.01513  0.39840  0.26598  1.0000
  H   H1169     1.0  0.70517  0.42316  0.24636  1.0000
  H   H1170     1.0  0.75075  0.33673  0.35728  1.0000
  Fe  Fe152     1.0  0.89205  0.32469  0.45763  1.0000
  H   H1171     1.0  0.77786  0.37210  0.40786  1.0000
  S   S292      1.0  0.71979  0.46637  0.37610  1.0000
  C   C739      1.0  0.77077  0.34682  0.60458  1.0000
  S   S293      1.0  0.85399  0.33930  0.46040  1.0000
  C   C740      1.0  0.99711  0.31908  0.43233  1.0000
  H   H1172     1.0  0.74646  0.48966  0.50583  1.0000
  H   H1173     1.0  0.73711  0.47875  0.47628  1.0000
  H   H1174     1.0  0.77353  0.36780  0.66566  1.0000
  S   S294      1.0  0.02677  0.38441  0.37498  1.0000
  H   H1175     1.0  0.73458  0.41359  0.49437  1.0000
  H   H1176     1.0  0.80535  0.39873  0.65813  1.0000
  C   C741      1.0  0.75772  0.37003  0.40919  1.0000
  C   C742      1.0  0.89377  0.36361  0.57675  1.0000
  Fe  Fe153     1.0  0.87303  0.42925  0.69738  1.0000
  S   S295      1.0  0.90383  0.35038  0.42806  1.0000
  C   C743      1.0  0.74068  0.43117  0.48637  1.0000
  C   C744      1.0  0.95619  0.31293  0.41744  1.0000
  N   N73       1.0  0.74685  0.36397  0.38520  1.0000
  S   S296      1.0  0.90620  0.34795  0.48838  1.0000
  C   C745      1.0  0.71282  0.45429  0.51124  1.0000
  H   H1177     1.0  0.88160  0.51028  0.69217  1.0000
  H   H1178     1.0  0.01010  0.31666  0.44775  1.0000
  H   H1179     1.0  0.76674  0.32752  0.59989  1.0000
  H   H1180     1.0  0.73797  0.36933  0.57612  1.0000
  H   H1181     1.0  0.80118  0.36164  0.55239  1.0000
  H   H1182     1.0  0.79295  0.33193  0.56325  1.0000
  C   C746      1.0  0.75404  0.36140  0.56660  1.0000
  H   H1183     1.0  0.75705  0.37209  0.54961  1.0000
  H   H1184     1.0  0.81347  0.35073  0.58064  1.0000
  C   C747      1.0  0.79672  0.35096  0.56913  1.0000
  H   H1185     1.0  0.77279  0.44294  0.52132  1.0000
  Fe  Fe154     1.0  0.72996  0.45878  0.41511  1.0000
  H   H1186     1.0  0.76707  0.47232  0.48719  1.0000
  S   S297      1.0  0.76608  0.45891  0.43430  1.0000
  H   H1187     1.0  0.80844  0.40733  0.37464  1.0000
  Fe  Fe155     1.0  0.86684  0.36727  0.43344  1.0000
  C   C748      1.0  0.98188  0.38140  0.39628  1.0000
  S   S298      1.0  0.87984  0.39393  0.46167  1.0000
  C   C749      1.0  0.78675  0.43638  0.42513  1.0000
  C   C750      1.0  0.80192  0.42574  0.44265  1.0000
  C   C751      1.0  0.81868  0.40780  0.43585  1.0000
  C   C752      1.0  0.82115  0.40117  0.41131  1.0000
  C   C753      1.0  0.80622  0.41209  0.39369  1.0000
  C   C754      1.0  0.78866  0.42932  0.40064  1.0000
  H   H1188     1.0  0.80075  0.43127  0.46158  1.0000
  H   H1189     1.0  0.82973  0.39918  0.44963  1.0000
  H   H1190     1.0  0.77728  0.43782  0.38697  1.0000
  C   C755      1.0  0.78174  0.38672  0.58971  1.0000
  C   C756      1.0  0.00652  0.38727  0.39981  1.0000
  C   C757      1.0  0.01440  0.39501  0.42286  1.0000
  H   H1191     1.0  0.96082  0.34264  0.45569  1.0000
  H   H1192     1.0  0.75225  0.46040  0.53989  1.0000
  C   C758      1.0  0.97296  0.39112  0.43864  1.0000
  C   C759      1.0  0.99762  0.39696  0.44222  1.0000
  S   S299      1.0  0.72236  0.36736  0.65728  1.0000
  H   H1193     1.0  0.00379  0.40304  0.45999  1.0000
  H   H1194     1.0  0.95469  0.46321  0.69700  1.0000
  S   S300      1.0  0.84225  0.37883  0.40251  1.0000
  H   H1195     1.0  0.97562  0.37558  0.37845  1.0000
  H   H1196     1.0  0.93738  0.30687  0.42190  1.0000
  H   H1197     1.0  0.94614  0.37934  0.41249  1.0000
  C   C760      1.0  0.96515  0.38337  0.41559  1.0000
  H   H1198     1.0  0.89072  0.29557  0.40850  1.0000
  C   C761      1.0  0.75325  0.44554  0.52609  1.0000
  H   H1199     1.0  0.79787  0.38745  0.60207  1.0000
  S   S301      1.0  0.95236  0.39316  0.46331  1.0000
  Fe  Fe156     1.0  0.91567  0.37465  0.45890  1.0000
  H   H1200     1.0  0.71654  0.34440  0.40080  1.0000
  H   H1201     1.0  0.75580  0.32602  0.38792  1.0000
  H   H1202     1.0  0.95513  0.33236  0.41191  1.0000
  S   S302      1.0  0.84655  0.37612  0.52116  1.0000
  S   S303      1.0  0.70789  0.42466  0.41797  1.0000
  H   H1203     1.0  0.96224  0.30227  0.40128  1.0000
  Fe  Fe157     1.0  0.86922  0.36492  0.48854  1.0000
  C   C762      1.0  0.72040  0.35970  0.38806  1.0000
  N   N74       1.0  0.73861  0.45128  0.50418  1.0000
  H   H1204     1.0  0.00474  0.30975  0.41602  1.0000
  H   H1205     1.0  0.91029  0.35338  0.57980  1.0000
  H   H1206     1.0  0.70545  0.43748  0.51989  1.0000
  H   H1207     1.0  0.75979  0.42883  0.48008  1.0000
  C   C763      1.0  0.74769  0.47404  0.49298  1.0000
  H   H1208     1.0  0.71046  0.46942  0.52453  1.0000
  C   C764      1.0  0.88187  0.36226  0.55404  1.0000
  Fe  Fe158     1.0  0.84097  0.44181  0.65391  1.0000
  S   S304      1.0  0.85352  0.40634  0.66956  1.0000
  S   S305      1.0  0.80246  0.44878  0.64111  1.0000
  Fe  Fe159     1.0  0.89111  0.46572  0.65995  1.0000
  S   S306      1.0  0.90756  0.43180  0.67560  1.0000
  S   S307      1.0  0.91605  0.49788  0.65385  1.0000
  Fe  Fe160     1.0  0.88643  0.41246  0.64612  1.0000
  S   S308      1.0  0.90153  0.38274  0.62233  1.0000
  S   S309      1.0  0.87281  0.44662  0.62865  1.0000
  H   H1209     1.0  0.88902  0.35074  0.53976  1.0000
  C   C765      1.0  0.86083  0.37588  0.54989  1.0000
  C   C766      1.0  0.86306  0.39142  0.59146  1.0000
  C   C767      1.0  0.88470  0.37864  0.59530  1.0000
  H   H1210     1.0  0.85563  0.40264  0.60583  1.0000
  H   H1211     1.0  0.75465  0.35387  0.61469  1.0000
  C   C768      1.0  0.85119  0.39007  0.56879  1.0000
  H   H1212     1.0  0.75407  0.35556  0.42293  1.0000
  H   H1213     1.0  0.75046  0.38744  0.41653  1.0000
  C   C769      1.0  0.74439  0.38990  0.65176  1.0000
  C   C770      1.0  0.76866  0.38521  0.65789  1.0000
  C   C771      1.0  0.78673  0.40281  0.65376  1.0000
  C   C772      1.0  0.78053  0.42557  0.64431  1.0000
  C   C773      1.0  0.75623  0.43026  0.63809  1.0000
  C   C774      1.0  0.73820  0.41238  0.64158  1.0000
  N   N75       1.0  0.97265  0.30959  0.43853  1.0000
  H   H1214     1.0  0.74877  0.34261  0.56101  1.0000
  H   H1215     1.0  0.76627  0.39528  0.59958  1.0000
  H   H1216     1.0  0.75128  0.44785  0.63079  1.0000
  S   S310      1.0  0.85787  0.46448  0.68360  1.0000
  N   N76       1.0  0.92932  0.41849  0.53314  1.0000
  C   C775      1.0  0.91985  0.42553  0.55742  1.0000
  C   C776      1.0  0.90906  0.41769  0.51537  1.0000
  C   C777      1.0  0.94073  0.39423  0.53465  1.0000
  C   C778      1.0  0.94766  0.43647  0.52495  1.0000
  H   H1217     1.0  0.93439  0.42537  0.57161  1.0000
  H   H1218     1.0  0.90533  0.41281  0.56364  1.0000
  H   H1219     1.0  0.91176  0.44405  0.55716  1.0000
  H   H1220     1.0  0.91574  0.41304  0.49675  1.0000
  H   H1221     1.0  0.89517  0.40379  0.52050  1.0000
  H   H1222     1.0  0.89959  0.43549  0.51411  1.0000
  H   H1223     1.0  0.94811  0.38843  0.51661  1.0000
  H   H1224     1.0  0.92739  0.38013  0.54046  1.0000
  H   H1225     1.0  0.95597  0.39405  0.54805  1.0000
  H   H1226     1.0  0.95519  0.43152  0.50667  1.0000
  H   H1227     1.0  0.96320  0.43763  0.53797  1.0000
  H   H1228     1.0  0.93965  0.45497  0.52333  1.0000
  N   N77       1.0  0.77584  0.36146  0.58248  1.0000
  H   H1229     1.0  0.83488  0.40059  0.56570  1.0000
  H   H1230     1.0  0.78599  0.39823  0.57355  1.0000
  H   H1231     1.0  0.71945  0.41622  0.63706  1.0000
  H   H1232     1.0  0.78647  0.34706  0.61746  1.0000
  H   H1233     1.0  0.74668  0.42853  0.53503  1.0000
  H   H1234     1.0  0.72944  0.43467  0.46981  1.0000
  H   H1235     1.0  0.99652  0.33892  0.42814  1.0000
  H   H1236     1.0  0.81107  0.43142  0.69130  1.0000
  H   H1237     1.0  0.71106  0.37612  0.39527  1.0000
  S   S311      1.0  0.90353  0.28531  0.45916  1.0000
  H   H1238     1.0  0.77353  0.45627  0.68643  1.0000
  H   H1239     1.0  0.94486  0.31590  0.46539  1.0000
  H   H1240     1.0  0.70119  0.45831  0.49505  1.0000
  C   C779      1.0  0.96303  0.32299  0.45983  1.0000
  H   H1241     1.0  0.70472  0.37578  0.49176  1.0000
  C   C780      1.0  0.89495  0.52464  0.69076  1.0000
  C   C781      1.0  0.75845  0.34179  0.37542  1.0000
  H   H1242     1.0  0.97526  0.32146  0.47595  1.0000
  S   S312      1.0  0.70110  0.48291  0.43084  1.0000
  C   C782      1.0  0.91295  0.52365  0.67273  1.0000
  H   H1243     1.0  0.74294  0.40159  0.37512  1.0000
  H   H1244     1.0  0.71158  0.35540  0.37021  1.0000
  C   C783      1.0  0.97413  0.28342  0.44455  1.0000
  H   H1245     1.0  0.77847  0.34442  0.37309  1.0000
  H   H1246     1.0  0.75669  0.43186  0.70012  1.0000
  C   C784      1.0  0.75086  0.38435  0.36803  1.0000
  H   H1247     1.0  0.97150  0.50739  0.72807  1.0000
  S   S313      1.0  0.91328  0.35385  0.89416  1.0000
  C   C785      1.0  0.95910  0.30112  0.91716  1.0000
  C   C786      1.0  0.94991  0.32323  0.90844  1.0000
  C   C787      1.0  0.92487  0.32609  0.90496  1.0000
  C   C788      1.0  0.90906  0.30663  0.91006  1.0000
  H   H1248     1.0  0.96980  0.51785  0.91149  1.0000
  H   H1249     1.0  0.96226  0.33814  0.90466  1.0000
  H   H1250     1.0  0.88967  0.30876  0.90732  1.0000
  C   C789      1.0  0.91065  0.34677  0.78882  1.0000
  H   H1251     1.0  0.81978  0.42046  0.72085  1.0000
  H   H1252     1.0  0.97847  0.29921  0.92000  1.0000
  H   H1253     1.0  0.90472  0.36823  0.84668  1.0000
  H   H1254     1.0  0.92642  0.37719  0.82398  1.0000
  C   C790      1.0  0.92566  0.32878  0.82615  1.0000
  H   H1255     1.0  0.87916  0.33205  0.84036  1.0000
  H   H1256     1.0  0.89688  0.35889  0.78021  1.0000
  H   H1257     1.0  0.89437  0.50278  0.95462  1.0000
  C   C791      1.0  0.88243  0.33390  0.82031  1.0000
  C   C792      1.0  0.77928  0.43441  0.74429  1.0000
  H   H1258     1.0  0.92889  0.35482  0.78476  1.0000
  C   C793      1.0  0.80256  0.46605  0.72432  1.0000
  C   C794      1.0  0.90811  0.36894  0.82669  1.0000
  S   S314      1.0  0.97051  0.36558  0.85648  1.0000
  N   N78       1.0  0.90670  0.34456  0.81547  1.0000
  H   H1259     1.0  0.02133  0.28165  0.87835  1.0000
  H   H1260     1.0  0.90967  0.32876  0.77959  1.0000
  H   H1261     1.0  0.92408  0.32789  0.84646  1.0000
  H   H1262     1.0  0.93989  0.45897  0.76320  1.0000
  H   H1263     1.0  0.90960  0.46007  0.73010  1.0000
  H   H1264     1.0  0.76842  0.41740  0.74198  1.0000
  S   S315      1.0  0.86909  0.42446  0.73816  1.0000
  C   C795      1.0  0.91611  0.40796  0.74245  1.0000
  C   C796      1.0  0.89595  0.41789  0.75434  1.0000
  H   H1265     1.0  0.91514  0.40370  0.72317  1.0000
  H   H1266     1.0  0.94127  0.51942  0.73153  1.0000
  N   N79       1.0  0.78822  0.44354  0.72052  1.0000
  C   C797      1.0  0.93748  0.40308  0.75562  1.0000
  C   C798      1.0  0.76734  0.44868  0.70427  1.0000
  H   H1267     1.0  0.79162  0.48034  0.73358  1.0000
  H   H1268     1.0  0.81906  0.46258  0.73567  1.0000
  C   C799      1.0  0.93320  0.30493  0.01872  1.0000
  H   H1269     1.0  0.88060  0.31549  0.81205  1.0000
  H   H1270     1.0  0.95295  0.39511  0.74639  1.0000
  C   C800      1.0  0.95208  0.50458  0.72296  1.0000
  H   H1271     1.0  0.02820  0.30400  0.90128  1.0000
  H   H1272     1.0  0.91965  0.50690  0.93449  1.0000
  H   H1273     1.0  0.89125  0.52630  0.99258  1.0000
  N   N80       1.0  0.92026  0.52993  0.96634  1.0000
  C   C801      1.0  0.91707  0.47797  0.72436  1.0000
  C   C802      1.0  0.91870  0.52695  0.87741  1.0000
  H   H1274     1.0  0.92440  0.30987  0.81902  1.0000
  H   H1275     1.0  0.79368  0.40771  0.70570  1.0000
  C   C803      1.0  0.95698  0.46135  0.71717  1.0000
  C   C804      1.0  0.91883  0.41854  0.79249  1.0000
  Fe  Fe161     1.0  0.99859  0.38314  0.88039  1.0000
  S   S316      1.0  0.97153  0.39512  0.90862  1.0000
  Fe  Fe162     1.0  0.96695  0.40164  0.83792  1.0000
  S   S317      1.0  0.93732  0.41468  0.86287  1.0000
  S   S318      1.0  0.96582  0.40129  0.79653  1.0000
  Fe  Fe163     1.0  0.96823  0.42912  0.88577  1.0000
  S   S319      1.0  0.96944  0.46642  0.90353  1.0000
  S   S320      1.0  0.99779  0.41826  0.85935  1.0000
  H   H1276     1.0  0.86768  0.34550  0.81273  1.0000
  H   H1277     1.0  0.89442  0.38151  0.81874  1.0000
  C   C805      1.0  0.91537  0.50310  0.86892  1.0000
  C   C806      1.0  0.93114  0.48446  0.87637  1.0000
  C   C807      1.0  0.95057  0.48964  0.89208  1.0000
  C   C808      1.0  0.95445  0.51370  0.89980  1.0000
  C   C809      1.0  0.89731  0.42311  0.77939  1.0000
  H   H1278     1.0  0.90024  0.49890  0.85695  1.0000
  H   H1279     1.0  0.92801  0.46604  0.87027  1.0000
  H   H1280     1.0  0.96631  0.29322  0.98330  1.0000
  H   H1281     1.0  0.96610  0.47845  0.76230  1.0000
  H   H1282     1.0  0.75473  0.46215  0.71254  1.0000
  H   H1283     1.0  0.97679  0.46247  0.72129  1.0000
  Fe  Fe164     1.0  0.94341  0.37969  0.88324  1.0000
  H   H1284     1.0  0.95065  0.44277  0.72225  1.0000
  H   H1285     1.0  0.92590  0.49775  0.98787  1.0000
  H   H1286     1.0  0.91991  0.42308  0.81169  1.0000
  H   H1287     1.0  0.94993  0.50453  0.96669  1.0000
  C   C810      1.0  0.80386  0.42493  0.70912  1.0000
  H   H1288     1.0  0.94424  0.33569  0.82182  1.0000
  N   N81       1.0  0.94319  0.48027  0.73041  1.0000
  H   H1289     1.0  0.88184  0.43105  0.78862  1.0000
  C   C811      1.0  0.90698  0.51666  0.94690  1.0000
  C   C812      1.0  0.93644  0.51288  0.97939  1.0000
  C   C813      1.0  0.94655  0.47712  0.75703  1.0000
  C   C814      1.0  0.93886  0.40823  0.78068  1.0000
  H   H1290     1.0  0.93640  0.49113  0.76756  1.0000
  H   H1291     1.0  0.91403  0.47954  0.70435  1.0000
  H   H1292     1.0  0.79469  0.43027  0.75686  1.0000
  H   H1293     1.0  0.76745  0.44801  0.75351  1.0000
  H   H1294     1.0  0.92471  0.30197  0.97038  1.0000
  H   H1295     1.0  0.90608  0.49232  0.73346  1.0000
  C   C815      1.0  0.94335  0.28170  0.92235  1.0000
  H   H1296     1.0  0.94683  0.52230  0.99412  1.0000
  S   S321      1.0  0.02969  0.35781  0.88939  1.0000
  H   H1297     1.0  0.93986  0.32118  0.00852  1.0000
  H   H1298     1.0  0.89600  0.52917  0.93535  1.0000
  H   H1299     1.0  0.80893  0.47375  0.70659  1.0000
  C   C816      1.0  0.91829  0.28438  0.91865  1.0000
  H   H1300     1.0  0.91425  0.30874  0.02479  1.0000
  C   C817      1.0  0.91860  0.28620  0.98163  1.0000
  H   H1301     1.0  0.89923  0.28921  0.98672  1.0000
  N   N82       1.0  0.93419  0.28284  0.00337  1.0000
  H   H1302     1.0  0.95072  0.50704  0.70280  1.0000
  Fe  Fe165     1.0  0.91759  0.66387  0.13632  1.0000
  S   S322      1.0  0.93776  0.63094  0.15003  1.0000
  Fe  Fe166     1.0  0.87041  0.69216  0.13885  1.0000
  S   S323      1.0  0.83358  0.69451  0.15729  1.0000
  N   N83       1.0  0.74344  0.68160  0.11717  1.0000
  C   C818      1.0  0.86874  0.59990  0.20860  1.0000
  S   S324      1.0  0.88288  0.66180  0.11449  1.0000
  Fe  Fe167     1.0  0.72974  0.60431  0.18520  1.0000
  H   H1303     1.0  0.73217  0.64486  0.12484  1.0000
  S   S325      1.0  0.76757  0.60048  0.16936  1.0000
  H   H1304     1.0  0.90177  0.77152  0.13357  1.0000
  H   H1305     1.0  0.77163  0.68869  0.09085  1.0000
  H   H1306     1.0  0.83926  0.63596  0.19543  1.0000
  S   S326      1.0  0.89484  0.69417  0.05093  1.0000
  H   H1307     1.0  0.75103  0.68536  0.15552  1.0000
  C   C819      1.0  0.90641  0.64612  0.04127  1.0000
  H   H1308     1.0  0.90095  0.63381  0.22340  1.0000
  H   H1309     1.0  0.75141  0.64810  0.09847  1.0000
  C   C820      1.0  0.81546  0.66822  0.16044  1.0000
  C   C821      1.0  0.82091  0.64679  0.14785  1.0000
  C   C822      1.0  0.80630  0.62598  0.15106  1.0000
  C   C823      1.0  0.78597  0.62659  0.16656  1.0000
  C   C824      1.0  0.78044  0.64806  0.17906  1.0000
  C   C825      1.0  0.79521  0.66878  0.17604  1.0000
  H   H1310     1.0  0.83624  0.64626  0.13553  1.0000
  H   H1311     1.0  0.81048  0.60947  0.14115  1.0000
  H   H1312     1.0  0.76488  0.64863  0.19117  1.0000
  H   H1313     1.0  0.79098  0.68529  0.18593  1.0000
  C   C826      1.0  0.74794  0.65511  0.11724  1.0000
  C   C827      1.0  0.00251  0.63072  0.18598  1.0000
  C   C828      1.0  0.98297  0.62427  0.17058  1.0000
  C   C829      1.0  0.96175  0.63839  0.17009  1.0000
  C   C830      1.0  0.95987  0.65849  0.18563  1.0000
  H   H1314     1.0  0.98453  0.60865  0.15864  1.0000
  H   H1315     1.0  0.94372  0.66952  0.18553  1.0000
  N   N84       1.0  0.87589  0.62222  0.19535  1.0000
  H   H1316     1.0  0.85037  0.59342  0.20275  1.0000
  S   S327      1.0  0.69965  0.58195  0.16829  1.0000
  H   H1317     1.0  0.76401  0.65044  0.12859  1.0000
  C   C831      1.0  0.00052  0.65092  0.20143  1.0000
  H   H1318     1.0  0.91444  0.61620  0.19919  1.0000
  H   H1319     1.0  0.78130  0.69075  0.12217  1.0000
  C   C832      1.0  0.97899  0.66447  0.20151  1.0000
  H   H1320     1.0  0.88164  0.63368  0.15836  1.0000
  C   C833      1.0  0.87640  0.61717  0.16883  1.0000
  H   H1321     1.0  0.70621  0.67793  0.10543  1.0000
  C   C834      1.0  0.72345  0.68719  0.09998  1.0000
  H   H1322     1.0  0.97731  0.68003  0.21350  1.0000
  H   H1323     1.0  0.85788  0.64672  0.22012  1.0000
  H   H1324     1.0  0.90609  0.64708  0.19390  1.0000
  C   C835      1.0  0.90037  0.63014  0.20343  1.0000
  H   H1325     1.0  0.85832  0.61099  0.16199  1.0000
  H   H1326     1.0  0.89003  0.60293  0.16419  1.0000
  H   H1327     1.0  0.86229  0.65851  0.18984  1.0000
  S   S328      1.0  0.02495  0.66089  0.21969  1.0000
  H   H1328     1.0  0.86805  0.60308  0.22868  1.0000
  C   C836      1.0  0.85809  0.64169  0.20044  1.0000
  H   H1329     1.0  0.90772  0.64360  0.06083  1.0000
  H   H1330     1.0  0.71956  0.68028  0.14827  1.0000
  H   H1331     1.0  0.88186  0.58489  0.20515  1.0000
  H   H1332     1.0  0.01908  0.62014  0.18585  1.0000
  C   C837      1.0  0.76586  0.69447  0.10947  1.0000
  Fe  Fe168     1.0  0.89967  0.69149  0.09190  1.0000
  S   S329      1.0  0.71991  0.59374  0.22359  1.0000
  H   H1333     1.0  0.73320  0.70951  0.14270  1.0000
  C   C838      1.0  0.01495  0.71624  0.17419  1.0000
  H   H1334     1.0  0.00001  0.72977  0.17225  1.0000
  S   S330      1.0  0.93568  0.69079  0.11146  1.0000
  S   S331      1.0  0.90373  0.69179  0.16251  1.0000
  H   H1335     1.0  0.71970  0.70704  0.09915  1.0000
  Fe  Fe169     1.0  0.91963  0.71900  0.13640  1.0000
  S   S332      1.0  0.94524  0.74764  0.15205  1.0000
  C   C839      1.0  0.73652  0.68957  0.14201  1.0000
  C   C840      1.0  0.03045  0.72393  0.13366  1.0000
  S   S333      1.0  0.88489  0.72214  0.11489  1.0000
  H   H1336     1.0  0.76318  0.71452  0.10907  1.0000
  H   H1337     1.0  0.71660  0.62198  0.08244  1.0000
  C   C841      1.0  0.69877  0.62926  0.08641  1.0000
  S   S334      1.0  0.70861  0.63917  0.18588  1.0000
  H   H1338     1.0  0.72778  0.68105  0.08106  1.0000
  N   N85       1.0  0.02117  0.70500  0.15046  1.0000
  H   H1339     1.0  0.98414  0.70703  0.13755  1.0000
  C   C842      1.0  0.99913  0.69360  0.13983  1.0000
  H   H1340     1.0  0.03099  0.72543  0.18256  1.0000
  H   H1341     1.0  0.70098  0.55701  0.31331  1.0000
  S   S335      1.0  0.70332  0.65247  0.04282  1.0000
  C   C843      1.0  0.93338  0.77714  0.15617  1.0000
  H   H1342     1.0  0.00287  0.68542  0.12161  1.0000
  H   H1343     1.0  0.01651  0.73820  0.13036  1.0000
  H   H1344     1.0  0.99207  0.67877  0.15170  1.0000
  H   H1345     1.0  0.00867  0.70234  0.18753  1.0000
  H   H1346     1.0  0.69904  0.58048  0.27500  1.0000
  H   H1347     1.0  0.03148  0.77847  0.16731  1.0000
  S   S336      1.0  0.00749  0.64717  0.67177  1.0000
  C   C844      1.0  0.92986  0.54275  0.67079  1.0000
  H   H1348     1.0  0.95822  0.74468  0.64438  1.0000
  H   H1349     1.0  0.72695  0.66931  0.46133  1.0000
  Fe  Fe170     1.0  0.97789  0.64720  0.70032  1.0000
  C   C845      1.0  0.90877  0.77065  0.67094  1.0000
  S   S337      1.0  0.93888  0.64346  0.68774  1.0000
  C   C846      1.0  0.94261  0.74671  0.65626  1.0000
  H   H1350     1.0  0.94680  0.71120  0.67272  1.0000
  C   C847      1.0  0.92911  0.56249  0.68712  1.0000
  C   C848      1.0  0.92893  0.76821  0.65555  1.0000
  C   C849      1.0  0.93619  0.72774  0.67231  1.0000
  H   H1351     1.0  0.94232  0.57708  0.68566  1.0000
  H   H1352     1.0  0.94379  0.54215  0.65682  1.0000
  C   C850      1.0  0.91575  0.73005  0.68736  1.0000
  C   C851      1.0  0.90212  0.75156  0.68667  1.0000
  H   H1353     1.0  0.71768  0.68539  0.48839  1.0000
  C   C852      1.0  0.71626  0.68510  0.46809  1.0000
  H   H1354     1.0  0.72516  0.70196  0.46108  1.0000
  H   H1355     1.0  0.88624  0.75340  0.69821  1.0000
  H   H1356     1.0  0.69915  0.66713  0.42534  1.0000
  H   H1357     1.0  0.78918  0.67706  0.99576  1.0000
  Fe  Fe171     1.0  0.96380  0.65365  0.75347  1.0000
  S   S338      1.0  0.92420  0.65078  0.74500  1.0000
  C   C853      1.0  0.91602  0.59866  0.83117  1.0000
  S   S339      1.0  0.91093  0.58647  0.72739  1.0000
  H   H1358     1.0  0.78962  0.65289  0.97394  1.0000
  H   H1359     1.0  0.89972  0.73107  0.75826  1.0000
  H   H1360     1.0  0.87747  0.60765  0.80247  1.0000
  H   H1361     1.0  0.90143  0.62878  0.79548  1.0000
  C   C854      1.0  0.93746  0.59602  0.79279  1.0000
  H   H1362     1.0  0.88736  0.56452  0.81129  1.0000
  H   H1363     1.0  0.90311  0.56255  0.78244  1.0000
  C   C855      1.0  0.91000  0.62631  0.02534  1.0000
  S   S340      1.0  0.97674  0.65804  0.79237  1.0000
  H   H1364     1.0  0.89338  0.60564  0.77380  1.0000
  H   H1365     1.0  0.94412  0.61510  0.79428  1.0000
  N   N86       1.0  0.91360  0.59290  0.80491  1.0000
  H   H1366     1.0  0.93638  0.59163  0.77297  1.0000
  H   H1367     1.0  0.91827  0.55453  0.81060  1.0000
  C   C856      1.0  0.90523  0.56747  0.80209  1.0000
  C   C857      1.0  0.89566  0.60945  0.79367  1.0000
  H   H1368     1.0  0.95156  0.58414  0.80109  1.0000
  H   H1369     1.0  0.92688  0.67452  0.78983  1.0000
  Fe  Fe172     1.0  0.93235  0.67493  0.71301  1.0000
  H   H1370     1.0  0.96051  0.70556  0.77144  1.0000
  C   C858      1.0  0.79626  0.65843  0.99230  1.0000
  Fe  Fe173     1.0  0.88832  0.63612  0.89545  1.0000
  S   S341      1.0  0.86293  0.60803  0.87994  1.0000
  S   S342      1.0  0.89481  0.66958  0.87275  1.0000
  Fe  Fe174     1.0  0.89647  0.60826  0.94217  1.0000
  S   S343      1.0  0.87245  0.57747  0.92995  1.0000
  S   S344      1.0  0.91183  0.60414  0.98030  1.0000
  Fe  Fe175     1.0  0.89057  0.58131  0.89354  1.0000
  Fe  Fe176     1.0  0.93454  0.61961  0.72087  1.0000
  Fe  Fe177     1.0  0.84706  0.60666  0.91755  1.0000
  S   S345      1.0  0.80795  0.60003  0.92766  1.0000
  S   S346      1.0  0.91727  0.60953  0.90660  1.0000
  S   S347      1.0  0.86975  0.63730  0.93211  1.0000
  C   C859      1.0  0.91461  0.72157  0.76820  1.0000
  C   C860      1.0  0.95651  0.72268  0.78154  1.0000
  Fe  Fe178     1.0  0.70386  0.68540  0.96043  1.0000
  H   H1371     1.0  0.89015  0.55345  0.97440  1.0000
  H   H1372     1.0  0.89547  0.68998  0.99897  1.0000
  H   H1373     1.0  0.94154  0.55085  0.89856  1.0000
  C   C861      1.0  0.91290  0.67264  0.82643  1.0000
  C   C862      1.0  0.91775  0.66632  0.85072  1.0000
  C   C863      1.0  0.94084  0.65771  0.85709  1.0000
  C   C864      1.0  0.95903  0.65554  0.83915  1.0000
  H   H1374     1.0  0.89506  0.67935  0.82149  1.0000
  H   H1375     1.0  0.94476  0.65304  0.87589  1.0000
  C   C865      1.0  0.75686  0.66518  0.93379  1.0000
  C   C866      1.0  0.74940  0.64205  0.94135  1.0000
  C   C867      1.0  0.76508  0.62212  0.93887  1.0000
  C   C868      1.0  0.78838  0.62520  0.92895  1.0000
  C   C869      1.0  0.79589  0.64827  0.92115  1.0000
  C   C870      1.0  0.78010  0.66822  0.92351  1.0000
  H   H1376     1.0  0.73152  0.63940  0.94898  1.0000
  H   H1377     1.0  0.75916  0.60429  0.94484  1.0000
  H   H1378     1.0  0.81378  0.65071  0.91323  1.0000
  H   H1379     1.0  0.92593  0.75430  0.80278  1.0000
  C   C871      1.0  0.90101  0.66911  0.03180  1.0000
  H   H1380     1.0  0.85382  0.67451  0.97589  1.0000
  H   H1381     1.0  0.96135  0.75499  0.74476  1.0000
  C   C872      1.0  0.90276  0.65238  0.99054  1.0000
  C   C873      1.0  0.90798  0.62935  0.99994  1.0000
  S   S348      1.0  0.97401  0.62075  0.73146  1.0000
  H   H1382     1.0  0.90182  0.65510  0.97101  1.0000
  N   N87       1.0  0.93691  0.73666  0.76954  1.0000
  S   S349      1.0  0.97150  0.68033  0.72340  1.0000
  C   C874      1.0  0.89938  0.67218  0.00640  1.0000
  H   H1383     1.0  0.94430  0.56082  0.96972  1.0000
  N   N88       1.0  0.82314  0.65764  0.99359  1.0000
  H   H1384     1.0  0.93011  0.75373  0.73479  1.0000
  S   S350      1.0  0.89819  0.54968  0.86821  1.0000
  C   C875      1.0  0.93086  0.66983  0.80846  1.0000
  H   H1385     1.0  0.88058  0.54469  0.72135  1.0000
  H   H1386     1.0  0.95145  0.71736  0.80051  1.0000
  C   C876      1.0  0.94463  0.74352  0.74458  1.0000
  H   H1387     1.0  0.89833  0.59664  0.84084  1.0000
  H   H1388     1.0  0.97694  0.64908  0.84416  1.0000
  H   H1389     1.0  0.82756  0.69370  0.97891  1.0000
  H   H1390     1.0  0.82390  0.61925  0.00125  1.0000
  H   H1391     1.0  0.91799  0.70434  0.75811  1.0000
  H   H1392     1.0  0.91417  0.60858  0.03275  1.0000
  H   H1393     1.0  0.92368  0.56233  0.94452  1.0000
  C   C877      1.0  0.95399  0.66141  0.81475  1.0000
  H   H1394     1.0  0.92925  0.58642  0.84039  1.0000
  H   H1395     1.0  0.90777  0.71662  0.78669  1.0000
  S   S351      1.0  0.70202  0.70492  0.99638  1.0000
  H   H1396     1.0  0.78766  0.64587  0.00573  1.0000
  H   H1397     1.0  0.78590  0.68606  0.91745  1.0000
  H   H1398     1.0  0.97379  0.73325  0.78251  1.0000
  H   H1399     1.0  0.85180  0.63141  0.98900  1.0000
  S   S352      1.0  0.73779  0.69060  0.93758  1.0000
  C   C878      1.0  0.83118  0.66473  0.01839  1.0000
  H   H1400     1.0  0.92233  0.61763  0.83398  1.0000
  H   H1401     1.0  0.82781  0.66982  0.95656  1.0000
  C   C879      1.0  0.93182  0.75887  0.78384  1.0000
  H   H1402     1.0  0.94860  0.72719  0.73328  1.0000
  C   C880      1.0  0.83355  0.67469  0.97547  1.0000
  C   C881      1.0  0.83157  0.63270  0.98816  1.0000
  H   H1403     1.0  0.82590  0.62686  0.96950  1.0000
  C   C882      1.0  0.91147  0.56307  0.70553  1.0000
  C   C883      1.0  0.90264  0.54054  0.98372  1.0000
  C   C884      1.0  0.93508  0.54965  0.95543  1.0000
  H   H1404     1.0  0.94942  0.54235  0.94320  1.0000
  H   H1405     1.0  0.82564  0.68366  0.02290  1.0000
  H   H1406     1.0  0.91203  0.55111  0.99837  1.0000
  H   H1407     1.0  0.85134  0.66396  0.02013  1.0000
  H   H1408     1.0  0.94823  0.77073  0.78519  1.0000
  H   H1409     1.0  0.91703  0.76972  0.77525  1.0000
  C   C885      1.0  0.89438  0.54416  0.70726  1.0000
  H   H1410     1.0  0.82345  0.65242  0.03255  1.0000
  S   S353      1.0  0.90690  0.70667  0.70753  1.0000
  C   C886      1.0  0.93845  0.53232  0.89262  1.0000
  Fe  Fe179     1.0  0.96800  0.88626  0.22457  1.0000
  S   S354      1.0  0.95480  0.90137  0.18900  1.0000
  C   C887      1.0  0.87820  0.82350  0.25590  1.0000
  Fe  Fe180     1.0  0.91798  0.89149  0.24900  1.0000
  S   S355      1.0  0.90138  0.90738  0.21509  1.0000
  H   H1411     1.0  0.00333  0.89135  0.18042  1.0000
  Fe  Fe181     1.0  0.92194  0.87791  0.19550  1.0000
  S   S356      1.0  0.90321  0.85387  0.16780  1.0000
  Fe  Fe182     1.0  0.93591  0.92921  0.21233  1.0000
  S   S357      1.0  0.94209  0.96908  0.20389  1.0000
  S   S358      1.0  0.93645  0.86075  0.22947  1.0000
  S   S359      1.0  0.95122  0.91544  0.24786  1.0000
  C   C888      1.0  0.91748  0.98720  0.19443  1.0000
  C   C889      1.0  0.92201  0.01092  0.18605  1.0000
  H   H1412     1.0  0.98537  0.94971  0.22280  1.0000
  C   C890      1.0  0.84639  0.93444  0.31735  1.0000
  C   C891      1.0  0.87421  0.99367  0.18844  1.0000
  C   C892      1.0  0.89353  0.97859  0.19559  1.0000
  H   H1413     1.0  0.86647  0.83428  0.26845  1.0000
  C   C893      1.0  0.02222  0.88905  0.18506  1.0000
  H   H1414     1.0  0.88987  0.96036  0.20203  1.0000
  H   H1415     1.0  0.88419  0.85711  0.22081  1.0000
  C   C894      1.0  0.93729  0.81764  0.17407  1.0000
  C   C895      1.0  0.91560  0.82475  0.16278  1.0000
  C   C896      1.0  0.90287  0.80801  0.14818  1.0000
  H   H1416     1.0  0.01362  0.94983  0.23918  1.0000
  H   H1417     1.0  0.94715  0.83037  0.18546  1.0000
  H   H1418     1.0  0.88608  0.81339  0.13939  1.0000
  H   H1419     1.0  0.87773  0.80832  0.19565  1.0000
  C   C897      1.0  0.00519  0.94621  0.22104  1.0000
  N   N89       1.0  0.01620  0.96139  0.20164  1.0000
  N   N90       1.0  0.86818  0.82293  0.23082  1.0000
  C   C898      1.0  0.90269  0.02592  0.17866  1.0000
  C   C899      1.0  0.83970  0.92513  0.35984  1.0000
  H   H1420     1.0  0.85357  0.97093  0.34904  1.0000
  H   H1421     1.0  0.79862  0.94553  0.31836  1.0000
  H   H1422     1.0  0.84461  0.91496  0.31199  1.0000
  C   C900      1.0  0.80555  0.93466  0.33400  1.0000
  H   H1423     1.0  0.82356  0.97089  0.36200  1.0000
  C   C901      1.0  0.84383  0.81139  0.23106  1.0000
  H   H1424     1.0  0.85883  0.92953  0.36495  1.0000
  H   H1425     1.0  0.85425  0.85944  0.23325  1.0000
  H   H1426     1.0  0.90311  0.81709  0.21423  1.0000
  H   H1427     1.0  0.99201  0.99137  0.20800  1.0000
  H   H1428     1.0  0.89656  0.83220  0.25634  1.0000
  C   C902      1.0  0.02871  0.88010  0.20805  1.0000
  C   C903      1.0  0.87873  0.01733  0.17994  1.0000
  H   H1429     1.0  0.01984  0.99253  0.22521  1.0000
  H   H1430     1.0  0.00768  0.93598  0.17297  1.0000
  H   H1431     1.0  0.83584  0.81072  0.21235  1.0000
  S   S360      1.0  0.00650  0.87306  0.23013  1.0000
  H   H1432     1.0  0.79391  0.93891  0.35016  1.0000
  H   H1433     1.0  0.02001  0.99939  0.19305  1.0000
  H   H1434     1.0  0.01278  0.96656  0.16280  1.0000
  H   H1435     1.0  0.89278  0.02758  0.26397  1.0000
  H   H1436     1.0  0.00176  0.78370  0.15433  1.0000
  C   C904      1.0  0.88917  0.89276  0.35276  1.0000
  C   C905      1.0  0.00495  0.95537  0.17782  1.0000
  C   C906      1.0  0.83419  0.96615  0.34532  1.0000
  H   H1437     1.0  0.85570  0.98694  0.18941  1.0000
  H   H1438     1.0  0.98496  0.95858  0.17803  1.0000
  C   C907      1.0  0.88458  0.80884  0.21481  1.0000
  H   H1439     1.0  0.02161  0.80762  0.12093  1.0000
  H   H1440     1.0  0.83100  0.82162  0.24295  1.0000
  H   H1441     1.0  0.87073  0.87041  0.32606  1.0000
  C   C908      1.0  0.00241  0.83227  0.15876  1.0000
  N   N91       1.0  0.83145  0.94010  0.33908  1.0000
  S   S361      1.0  0.89190  0.88179  0.27955  1.0000
  H   H1442     1.0  0.00735  0.92649  0.21718  1.0000
  H   H1443     1.0  0.84471  0.79237  0.23798  1.0000
  C   C909      1.0  0.94613  0.79390  0.17077  1.0000
  H   H1444     1.0  0.93550  0.93188  0.34000  1.0000
  H   H1445     1.0  0.92752  0.91653  0.29807  1.0000
  H   H1446     1.0  0.86612  0.93783  0.32094  1.0000
  C   C910      1.0  0.86612  0.84804  0.22145  1.0000
  H   H1447     1.0  0.94051  0.01766  0.18506  1.0000
  C   C911      1.0  0.90721  0.91035  0.35674  1.0000
  H   H1448     1.0  0.96264  0.78836  0.17987  1.0000
  C   C912      1.0  0.01581  0.79127  0.16697  1.0000
  H   H1449     1.0  0.80276  0.91506  0.32965  1.0000
  H   H1450     1.0  0.83860  0.90537  0.35560  1.0000
  C   C913      1.0  0.89846  0.89259  0.30917  1.0000
  C   C914      1.0  0.88468  0.88404  0.32901  1.0000
  H   H1451     1.0  0.00763  0.85077  0.15233  1.0000
  H   H1452     1.0  0.82768  0.97805  0.33028  1.0000
  C   C915      1.0  0.92118  0.91864  0.33694  1.0000
  C   C916      1.0  0.91675  0.90989  0.31320  1.0000
  H   H1453     1.0  0.84104  0.94565  0.30134  1.0000
  C   C917      1.0  0.01190  0.98733  0.20723  1.0000
  N   N92       1.0  0.02367  0.81585  0.15934  1.0000
  H   H1454     1.0  0.88004  0.80490  0.26365  1.0000
  H   H1455     1.0  0.98790  0.82531  0.14631  1.0000
  H   H1456     1.0  0.99418  0.83441  0.17726  1.0000
  H   H1457     1.0  0.85879  0.84840  0.20246  1.0000
  H   H1458     1.0  0.00778  0.79160  0.18565  1.0000
  H   H1459     1.0  0.89606  0.02827  0.23137  1.0000
  H   H1460     1.0  0.88656  0.78972  0.22113  1.0000
  C   C918      1.0  0.91167  0.78424  0.14496  1.0000
  Fe  Fe183     1.0  0.83181  0.94958  0.41917  1.0000
  S   S362      1.0  0.85061  0.91394  0.42527  1.0000
  S   S363      1.0  0.79419  0.95318  0.40287  1.0000
  Fe  Fe184     1.0  0.87326  0.97933  0.44148  1.0000
  S   S364      1.0  0.89502  0.94585  0.45019  1.0000
  H   H1461     1.0  0.93668  0.84173  0.59096  1.0000
  Fe  Fe185     1.0  0.88424  0.93356  0.41240  1.0000
  H   H1462     1.0  0.76925  0.92602  0.61978  1.0000
  Fe  Fe186     1.0  0.85951  0.92933  0.46240  1.0000
  S   S365      1.0  0.84930  0.90678  0.49566  1.0000
  S   S366      1.0  0.86466  0.96803  0.40311  1.0000
  S   S367      1.0  0.83859  0.96390  0.45688  1.0000
  S   S368      1.0  0.72716  0.86355  0.43072  1.0000
  H   H1463     1.0  0.80330  0.92829  0.47881  1.0000
  H   H1464     1.0  0.80283  0.88377  0.48373  1.0000
  C   C919      1.0  0.77501  0.92818  0.40882  1.0000
  C   C920      1.0  0.75039  0.93195  0.41440  1.0000
  C   C921      1.0  0.73535  0.91223  0.42096  1.0000
  C   C922      1.0  0.74477  0.88862  0.42122  1.0000
  C   C923      1.0  0.76908  0.88479  0.41453  1.0000
  C   C924      1.0  0.78428  0.90454  0.40879  1.0000
  H   H1465     1.0  0.74310  0.95021  0.41437  1.0000
  H   H1466     1.0  0.71651  0.91529  0.42578  1.0000
  H   H1467     1.0  0.77638  0.86654  0.41453  1.0000
  H   H1468     1.0  0.80312  0.90136  0.40426  1.0000
  C   C925      1.0  0.87029  0.90442  0.51994  1.0000
  C   C926      1.0  0.89404  0.91337  0.51776  1.0000
  H   H1469     1.0  0.87899  0.88560  0.36810  1.0000
  H   H1470     1.0  0.89974  0.92224  0.50108  1.0000
  H   H1471     1.0  0.73793  0.89218  0.50113  1.0000
  H   H1472     1.0  0.89795  0.78702  0.67035  1.0000
  H   H1473     1.0  0.91061  0.80505  0.58728  1.0000
  S   S369      1.0  0.88803  0.01655  0.45170  1.0000
  H   H1474     1.0  0.80049  0.91075  0.52013  1.0000
  H   H1475     1.0  0.77549  0.86847  0.49364  1.0000
  C   C927      1.0  0.74613  0.90740  0.49052  1.0000
  H   H1476     1.0  0.79485  0.87003  0.69391  1.0000
  H   H1477     1.0  0.77715  0.88122  0.46365  1.0000
  S   S370      1.0  0.70028  0.90746  0.53605  1.0000
  H   H1478     1.0  0.73811  0.92462  0.49754  1.0000
  H   H1479     1.0  0.74002  0.90517  0.47128  1.0000
  H   H1480     1.0  0.77806  0.92602  0.45827  1.0000
  C   C928      1.0  0.78306  0.92779  0.47783  1.0000
  H   H1481     1.0  0.86712  0.01921  0.40291  1.0000
  H   H1482     1.0  0.96252  0.82349  0.58359  1.0000
  H   H1483     1.0  0.93645  0.78733  0.57903  1.0000
  H   H1484     1.0  0.77349  0.85897  0.61616  1.0000
  C   C929      1.0  0.97942  0.89865  0.69722  1.0000
  C   C930      1.0  0.86311  0.89294  0.54173  1.0000
  H   H1485     1.0  0.77331  0.92800  0.52578  1.0000
  S   S371      1.0  0.93703  0.79159  0.63499  1.0000
  C   C931      1.0  0.78026  0.91056  0.51820  1.0000
  H   H1486     1.0  0.95563  0.82769  0.52771  1.0000
  H   H1487     1.0  0.77621  0.94570  0.48427  1.0000
  H   H1488     1.0  0.78994  0.88684  0.62124  1.0000
  C   C932      1.0  0.92196  0.79930  0.57145  1.0000
  N   N93       1.0  0.77299  0.90749  0.49239  1.0000
  C   C933      1.0  0.78257  0.88420  0.48300  1.0000
  C   C934      1.0  0.90343  0.89926  0.55895  1.0000
  H   H1489     1.0  0.91986  0.85250  0.53970  1.0000
  C   C935      1.0  0.94750  0.81205  0.53782  1.0000
  H   H1490     1.0  0.96270  0.80036  0.54427  1.0000
  C   C936      1.0  0.77198  0.87769  0.62373  1.0000
  H   H1491     1.0  0.84476  0.88598  0.54351  1.0000
  H   H1492     1.0  0.76888  0.87596  0.64375  1.0000
  H   H1493     1.0  0.73736  0.92770  0.61327  1.0000
  H   H1494     1.0  0.77297  0.89553  0.52968  1.0000
  H   H1495     1.0  0.86384  0.92694  0.68558  1.0000
  H   H1496     1.0  0.95605  0.85088  0.56650  1.0000
  C   C937      1.0  0.91057  0.91068  0.53717  1.0000
  H   H1497     1.0  0.93651  0.80126  0.52455  1.0000
  Fe  Fe187     1.0  0.73530  0.95028  0.68538  1.0000
  S   S372      1.0  0.71411  0.91539  0.68567  1.0000
  S   S373      1.0  0.77342  0.95329  0.67000  1.0000
  C   C938      1.0  0.75648  0.89279  0.58531  1.0000
  Fe  Fe188     1.0  0.87765  0.86104  0.65512  1.0000
  S   S374      1.0  0.89056  0.84428  0.61997  1.0000
  S   S375      1.0  0.83882  0.85886  0.66848  1.0000
  Fe  Fe189     1.0  0.92844  0.87499  0.67182  1.0000
  S   S376      1.0  0.94580  0.85993  0.63824  1.0000
  C   C939      1.0  0.87958  0.89050  0.56127  1.0000
  Fe  Fe190     1.0  0.91481  0.87713  0.61783  1.0000
  S   S377      1.0  0.92519  0.89504  0.58224  1.0000
  Fe  Fe191     1.0  0.92046  0.82824  0.64276  1.0000
  H   H1498     1.0  0.01354  0.91968  0.64975  1.0000
  S   S378      1.0  0.89956  0.89547  0.65127  1.0000
  S   S379      1.0  0.90544  0.84184  0.67820  1.0000
  H   H1499     1.0  0.75696  0.87432  0.57698  1.0000
  C   C940      1.0  0.94772  0.83471  0.57556  1.0000
  C   C941      1.0  0.72864  0.87917  0.61665  1.0000
  H   H1500     1.0  0.74749  0.91618  0.64205  1.0000
  C   C942      1.0  0.91257  0.83608  0.54919  1.0000
  C   C943      1.0  0.79181  0.92721  0.67029  1.0000
  C   C944      1.0  0.81311  0.92680  0.65613  1.0000
  C   C945      1.0  0.82773  0.90590  0.65543  1.0000
  C   C946      1.0  0.82118  0.88541  0.66907  1.0000
  C   C947      1.0  0.79998  0.88587  0.68333  1.0000
  C   C948      1.0  0.78528  0.90671  0.68392  1.0000
  H   H1501     1.0  0.81816  0.94262  0.64548  1.0000
  H   H1502     1.0  0.84393  0.90559  0.64419  1.0000
  H   H1503     1.0  0.74175  0.90307  0.57588  1.0000
  H   H1504     1.0  0.76898  0.90695  0.69501  1.0000
  H   H1505     1.0  0.92899  0.91750  0.53528  1.0000
  C   C949      1.0  0.98547  0.90570  0.67345  1.0000
  H   H1506     1.0  0.91026  0.78808  0.55922  1.0000
  H   H1507     1.0  0.90064  0.82616  0.53610  1.0000
  H   H1508     1.0  0.97177  0.90541  0.65924  1.0000
  H   H1509     1.0  0.87390  0.88174  0.57802  1.0000
  H   H1510     1.0  0.72873  0.86007  0.60990  1.0000
  C   C950      1.0  0.75152  0.91639  0.62214  1.0000
  H   H1511     1.0  0.90089  0.84277  0.56437  1.0000
  H   H1512     1.0  0.71338  0.88856  0.60731  1.0000
  N   N94       1.0  0.75215  0.89150  0.61194  1.0000
  N   N95       1.0  0.93242  0.82051  0.55848  1.0000
  H   H1513     1.0  0.72427  0.87883  0.63652  1.0000
  S   S380      1.0  0.91374  0.92122  0.38634  1.0000
  H   H1514     1.0  0.77405  0.90208  0.58119  1.0000
  C   C951      1.0  0.00912  0.91387  0.66812  1.0000
  H   H1515     1.0  0.71093  0.94138  0.57425  1.0000
  H   H1516     1.0  0.82841  0.92826  0.37631  1.0000
  S   S381      1.0  0.70552  0.97222  0.66770  1.0000
  H   H1517     1.0  0.02239  0.83429  0.66379  1.0000
  C   C952      1.0  0.02707  0.91444  0.68634  1.0000
  H   H1518     1.0  0.87560  0.88530  0.69780  1.0000
  H   H1519     1.0  0.85008  0.88333  0.71789  1.0000
  S   S382      1.0  0.72489  0.96019  0.72376  1.0000
  H   H1520     1.0  0.90960  0.91204  0.73304  1.0000
  H   H1521     1.0  0.99260  0.89431  0.73406  1.0000
  H   H1522     1.0  0.88043  0.87802  0.72923  1.0000
  C   C953      1.0  0.85755  0.92997  0.70468  1.0000
  H   H1523     1.0  0.87379  0.90976  0.76101  1.0000
  C   C954      1.0  0.86324  0.92034  0.74731  1.0000
  C   C955      1.0  0.99725  0.89959  0.71560  1.0000
  H   H1524     1.0  0.86493  0.93995  0.75216  1.0000
  H   H1525     1.0  0.90079  0.94236  0.72454  1.0000
  C   C956      1.0  0.86941  0.88945  0.71665  1.0000
  H   H1526     1.0  0.90519  0.91952  0.70159  1.0000
  H   H1527     1.0  0.84370  0.91514  0.74928  1.0000
  C   C957      1.0  0.70816  0.88829  0.97463  1.0000
  H   H1528     1.0  0.71630  0.84005  0.96963  1.0000
  C   C958      1.0  0.71189  0.85025  0.95265  1.0000
  H   H1529     1.0  0.85893  0.94983  0.70839  1.0000
  C   C959      1.0  0.89797  0.92276  0.72033  1.0000
  N   N96       1.0  0.87205  0.91564  0.72225  1.0000
  H   H1530     1.0  0.70701  0.89113  0.92573  1.0000
  H   H1531     1.0  0.72552  0.89524  0.96673  1.0000
  H   H1532     1.0  0.72930  0.85613  0.94406  1.0000
  H   H1533     1.0  0.83789  0.92490  0.70543  1.0000
  H   H1534     1.0  0.71247  0.87941  0.99238  1.0000
  H   H1535     1.0  0.70302  0.83713  0.93984  1.0000
  S   S383      1.0  0.94962  0.88898  0.70428  1.0000
  Fe  Fe192     1.0  0.70058  0.92737  0.72249  1.0000
  S   S384      1.0  0.70361  0.02318  0.88262  1.0000
  C   C960      1.0  0.02113  0.90724  0.71013  1.0000
  H   H1536     1.0  0.70699  0.03024  0.82365  1.0000
