data_image0
_chemical_formula_structural       H4CFeSFeS2FeSFeS3FeS2FeS2FeSFeS3FeS2FeS2FeSFeS3FeS2FeS2FeSFeS4FeS2FeS2FeSFeS4HCH2SCHC6H4C6H4C6H3C6H4C3H2CH2C7H4C6H4C6H4C6H4C6H4C6H4C6H4CH3CHCH3C2H4FeHCHC2HCH5NH3CH4FeHNH9CH3C2H4CH3NC4H12C2H6CH2CNC4H12NCH2NH2C3HCH3C2NC4H15NH5C2H5NH5SN2CH4CHCHNC4H5CH4CH2CH3FeH2SH7CNCH10SH2CNH5CH2FeS2FeSFeS3HFeS2FeS2FeSFeS3FeS2FeS2FeSFeS3FeS2FeS2FeSFeS3FeS2FeS2FeSFeS3HSC6H2CHC6H4C6H4C6H4C6H4C6H4C6H6NCHC6H3C6H5C3H4CH4N2HC3H4CH2CH3C2H2CH9CHCHNH5CHC3SHCHC2H4C2H5CHCH2N2H2CH3CNC4H14FeH2SH5CHCH3NC4H14CHCH4CHNC4H2CHNSH3CHC2H4C2HC2HCH7NH3CH9CHNC2HNSHFeSCFeS2FeSFeS3H2FeNSFeHSFeSHSFeHSFeCSFeSFeS2FeS2FeS2FeSFeS3FeS2FeS2FeSFeS3C6H4C6H4C6H4C6H4C6H4C6H4C2H2NH2CH2C3H6C6H7C2HC2H2C6H3NC4H12NC4H12NC4H17CH5S2C2H4CS2HC2NSNC4H21CHFeHCH4CHCH4CHCSHCHS2C2HFeH2CH3C2H4CH3FeS2FeS2FeSFeS3FeS2FeS2FeSFeS3FeS2FeS2FeSFeS3FeS2FeS2FeSFeS3HSFeSCFe2SH2FeS2HSHFeCFeS3FeS2FeS2FeSFeS3HFeS2H2CH3C7H4CHC7H4CHC3HC2H2C6H4C6H4C6H4C6H4C6H4C6H4C6H4C6H4C6H4C6H4C5H3CH8NC4H12CH5NC4H13S2CH2NCSC2SH2SFeH7NC4H10CNHCNCHCHC2NH5CHCH2CH4CH8NCH4C2H6CNCH8CH4CH3CHCH3CH2C2HNSH5CH5NHCH5CHCHCH3C2H3C2H2CH3NH2CHNC2H7FeNH3CS2FeS2FeS2FeSFeS3FeS2FeS2FeSFeS3FeS2FeS2FeSFeS3FeS2FeS2FeSFeS3H2FeS2CFeSFeH3FeHSFeS2HFeS3CSFeS2FeSFeS3FeS2HCFeHFeS2FeS2FeSFeS3C6H4C6H4C6H2CHC6H4C6H4C6H2CH3C2H2CH2C4HNCH4C5H2C6H4C6H4C6H4C6H4C6H4C6H4C6H4C6H4NC4H14C2HCHCH2SH2NSCH2CNC4H12CH3NC4H12NC4H12CH2NFeH5C2H2CH2NC4H18NHCHSH3SH3FeH6C2HC2SCH4CH2SHSCNHC2H2CH2NH5SHNC4H13CH4CH3CHNCHCHCHCHSHFeHSCNHC2FeH16FeS2FeS2FeSFeS4HS2H2SH2CHSH2FeSFeSFeHSFeS2FeCS2HC6H4C6H4C2HC3HCH7FeNC7HCH2CNHC4HCHC6H4C6H4NC4H6CHCH7CH3CHCHNCH7CH2SH2CSC2H4NCH3CHCSH2CH3SH2FeSH3C2HCNHS2HSH5CH7FeHSH5CHSFeSFeSFeS3FeS2FeS2Fe2S3FeS2FeSFeSFeS3H2SFeS2FeS2FeSFeS3HC3HC4H3C6H4C6H4C6H4C6H2C6H5C6H4C6H7SH2CH2C2SH2CHC2H8CH11C2H2CHNH2CFeNH4SCNC4H12NH3C2HCHCH5CHNC4H5CHC2HCHSNHCH8SNC3H5NFeCH3CSHCHCNH5CNCH3SHSH2CSHCNH5CH2CH6CH2CH3CSH3CH4FeS2FeS2FeSFeS3HCHCNFeS2FeS2FeSFeS3HSFeS2FeSFeSH2FeS2FeS2FeSFeS3FeS2FeS2FeSFeS3HFeSHFeS2FeSFeS3CNC3H4SC4HCH2C2H2C2H4C6H4C6H4C6H4C6H4C6H4C6H4C6H4C6H4C6H2SHC6H4C6H4NCH4C3H3SH2NC4H12NC4H11CH2CHNH4CH7C2H2CH7CH2NC4H12NC4H7NHCH2CH3CHCHNH2C2HCH8C2HCH2NCHCHC2SHSH2SH3CNH2CHC2H3CH5CHNH5NH11CH2SCH9SHCH3C4H2C2H7C2H2NCH4CH4CH3SCH5C2H2CH2CH2NCH2NH5C2H2CHC5H7CHSHFeH6CH2FeS2FeS2Fe2S3FeSFeS2FeS3FeS2FeS2FeSFeS3FeS2FeS2FeSFeS3FeSHFeS2FeS2FeSFeS3HSHCHSC6H4C6H4C6H5C7H4C6H4C6H4C6H4C6H4C6H4C6H6SCHCH3FeH2CHC2SHNH5CHCHCH3SHCHNSCHNC4H20CNH7NC3H9NC4H12NC4H12NHC3Fe2H6CHNHCH3CHC3SH2CH2CH2C3H4CHCHCH4NH2NHC4HC2HC2H3SH2CH2C2NH6SH3SFeSHFeS2FeSHSHFeNSHFeHFeSCSFeS2FeS2FeSFeS3FeS2FeS2FeSFeS3FeS2FeS2FeSFeS4C7H4CH2CNCH3C6H4C6H4C6H4C6H4C6H4C6H4C6H4CHC2HC2HCH8CH5CH2C2HCH4NC4H20SCH3CHSHFeH3NC4H13CH4C2N2C4H12CH3NH2NCHCH2NC2H2CH4CHCHNSH2C2HNC4H3CH2CHC4H2FeH3CHCHSH4CHS2FeS2FeS2FeSFeS3FeS2FeSHFeSFeS3FeS2FeS2FeSFeS3FeS2FeSCFeSFeS3H2FeS2FeS2FeSFeS3FeCFe2SCFeS3FeS2FeS2FeSFeS5FeS2FeS2FeSFeS3C6H4C6H4CH2C4H2C6H4C6H5C2H5NHCH7C2H2C7H4C6H4C6H4C2HC3H4C6H4NHC6H4C6H4C6H4C6H4C6H4NSH5NC3HNC4H13C2NC4H12FeCHC2H6NH2CH3CHCSH6NC4H12NC4H12CNCHC2H4CHC2HCHNC4H12C2H5NHCHCH2CH4CHCHC2HCH3SH3C2H3CHNH4CSNHNH7CH2CHCH2C2H7C2HC2H2NHCHCH2C3H5CH2FeHNHCHCH2CH3C3H4SCHFeCH4SHC2H2SHSCHCH7CHCH2SHCH3SCH6SH2FeSH2FeSHSFeHSFeHSFeSCS2FeS2FeS2HFeSHSC6H4C2SC4FeH2SC6HSH4C5H3C6H3NC4H15CSH2C2HNH2CHCHCH2C2H2CNHSCSHCHCH2CHNH9SFeH5SH2FeH2S2FeS2FeS2CFeS4FeS2FeS2FeSFeS3HCSFeS2FeH3CHFeS2CSCHFeS2FeS2FeS2FeSFeS3FeS2FeS2FeSFeS2FeS2FeS2FeSFeS3FeS2FeS2FeSFeS3C6H4C6H4C6H5C6H4C6H4C6H4C2H2NCHSHC6H5CHFeH12C6H4C6H4C6H4C6H4C6H4C6H4C6H4CH3C2NC4HCH4FeHCH2CNC4H12NC4H12NH3FeHCH6CHNCHC2H6C2H2NC4H12NC4H15FeCNC3HCH4S2HCH5CHSH3CH2SCSH3CH3C2HN2C4H14CH6SCNCSH2NC4H12NC4H10CH2FeCH4SCHFeHCH4C2HCHFeCSH3NH6CH5CH8FeHSCHSFeSHSFeSFeSHSFeS2FeS2FeSFeS2FeS2FeS2FeS3C6H4C6H4C6H5C6H4CSC4H5NC4H12NC4H13NHSH3CH4CH3CFeC2H3CH2CHNH2C2FeHSC2H2CNH3CHSH2SH2CHCHC2NCH2CH2Fe2SFeS2FeSFeS3FeS2FeS2FeSFeS3HFeS2FeS2FeS2FeSFeS3HFeSFeS2FeSFeS2HFeS2FeSHFeSFeS2FeS2FeHFeSFeHS2FeSHSFeSFeS5FeS2FeS2FeCFeS3HC6H6CH2SHC6H6CH4CNC7HCH2C6H4C6FeH3C6H6C2NH4C6H4C6H4C6H4C2NCSCH2FeC6H4C6H4C6H4CH3CHCH6SCH8NC4H12NH4CH2CSH5CHNC4H9FeC3NH6CH4NCHCH10SNC4H11SCHSC2HCHC4SH4NC4HSCHC2H6NC4H12NC4H12NC4HSH6CH5CH2CSCH6CH4CSCN2H3CH3CH2C2FeCHCH4CH3CH3CHCH2C2H6CHCHCHC2H5FeCH2NCH5NH2CHCHCH2FeSHCSH2FeSHFeSCSNH2CH2CSC2HC2HSHFeS2FeS2FeSFeS3FeSHFeS2FeSFeS3FeS2FeSFeSFeS3FeSFeS2FeSFeS4C6H4C6HCHC7H4C6H5C6H5C4HSH3C6H8C6H4CHNH5C2H8C6H5NC3HFeH2CH3NC2SCH3C2HC2H2SH2C2FeHC2HCHCHCHCNSH2CH3C2H5SHCH2NH2CHNHFeHFeH2CHCH2NC4H2NH4CSHCH2CHCH2CNH5NHCHNH2CH5SHCHNCHCHNC2SH4CHC2H6CFeCH10SH7C3H2CH2CSCH5CH4CFeH2CHCSHSH2CH5SH4CSH2C2HCFeH3SH3CH5CFeCSFeS2HCFeSHSFeS2HSFeSFeS2HFeS2FeS2HFeS3CFeSFeS2FeSFeHS2FeSHFeS2FeSFeS3H2SFeS2FeS2FeSFeS3HSFeSHFeSHSFeS2FeS2FeSFeCS3HC8H6CHC7H4C6H4C6H7C6H4C6H4C6H4CH4C2NHC2HCNCH3C3H2C5HCH2FeC7H7CHCSH3C4HCH3NC4H15C2HFeH4SH2CH2CSCNH4CFeCH3CFeH5CHCH4N2H3CH2SH3CH3C2H4CH2SHC2H3CH5NCHCNC4H12NCHC4HCHCHC2SH5N2C4H14CSH4CH2CFeN2SCH2FeSH2CHCH4CSC2HSHNHCH6C2H2C2H2C2NH5CHC2HCH3CH6FeHCH3CH3C3H4SH2S2HCHSHNHSFeCSFeSFeSH2FeSFeS2FeSFeS3HN2SHFeSNHFeS2FeS2FeSFeHS2FeS2FeS2FeSFeS3H2CFeHSNS2HFeNSHFeHSFeCHFeSHSHC6H4FeH2C4SH2CS2HC3H3C6H5C8H4C6H4C6H3SC6H4C7H2C6H4C6H4C3H7C6H3FeC6H4CH3C2FeHCH8CNHCHSH8CH4CH2CH2SHCH3CNC5H4CH3CFeH2CH2NHSHNC4H13Fe2HCH2CFe2H3C2H12SH2SNH2CSH2SH2CH6NC5H14C2H2CSCH2C2H3CH2SC3H2CSH2SH2CHCSHCH3FeSFeSHSFeS2FeSFeS3FeSFeSFeHS3HC6HFeH2C6H4C6H4C5H4NC6H7CHCH3SH5SH6CH4SH8CHNH2NCHC2H2CNH2S2H2CFeH2C4HCHC2H3C2SHSHCH4NHCHCHSNH3FeCHSFeHCFeS2FeS2FeSFeS3CSFeS2FeSFeS2HFeS2FeS2FeSFeS3FeS2FeS2FeSFeS3H6FeSCS2HFeS2FeS2Fe2S3FeSFeS2FeSFeS4FeS2FeS2FeSFeS3HNSCSH2CFeS2FeS2FeSFeHS2C6H8CHC6H4C6H4C6H4C4H4C6H4C6H4C6H6C4SH2C6H4C6H4C6H4C6H4C6H4C6H4C6H4C6H4C6H5C3H3SCHSHCHC2HSCH7CHNC4H13CNH2FeH2CH2CFeHC2H4CH9SC2SH3NHFeCH4CHNH3NC4H12NC4H15NC4H13SHCHCHNC4H12NHC2H10C2H5NCH5CH2CH2CHSH2C3H2C4FeH3CH3CNH4NC2H5CHCHSHC2SHCH6CNHCH2CHNH2CHCHCHS2CH2CH2FeCH4NCSH4SCHCSHCNCNH4C2HCHC2H2CH3CH7SHNH3CHFe2SCH4CNC2FeHSH2FeC2SH3CHFeHSHSHNSHFeSFeS2FeSFeS3FeS2FeSFeSFeS4C6H4C6H4C6H4C6H4CH3C3NCH2CHCHNHCHCHSCNH7CH3CH3C2HCFeCH4CH10C2H2CNCHCH4C2FeH5CHNSHCH2CH5CHCHCH8CHNH3C2NH4CFeS2FeS2FeSFeS3FeS2FeSH2FeS4FeS2FeS2FeSFeS3CFeS2FeS2FeSFeHS2FeS2FeS2FeSFeS5FeS2FeS2FeSFeS3FeS2FeS2FeS4FeS2FeS2FeSFeS3FeS2FeS2FeSFeS3CHCH3CH3C6H4C6H4C6H4C6H4C6H4C6H4C6H4C6H4C6Fe2HC6H4C2H7C3SHCHC7H4C6H4C6H4C6H4C6H4CH4C6H5NC4H12CH5NC4H12NC4H11NC4H12NC4H12NC4H12NC4H12NC4H12CHSNC2HC2H4SHCHCH2NC4H3CHCH6NC4H12CH5NHCH2CHFeC2HNC4H12S2CH2FeH2C2N2HCHCH2CHCH3CH2FeH2CH7CH4CH2NCH15C4H2NH5SC3H7CHC3H2FeH6NCFeHCHCH5FeS2FeS2FeSFeS3FeS2FeSHFeSFeS3FeS2FeS2FeSFeS3FeS2FeS2FeSFeS3CSH2CHSCH3FeSH2CH2CH2C2NC4H2C6H4C6H4C6H4C6H4NCH3C6H4C6H4C6H4C6H3NC4H9NC4H15CHC2HCH5CH9CHCNH4CHNC4H12NC4H18SHNH4CHC2H4SCH2NH3FeHSH2SFeS3FeSFeSFeSFeS2FeSFeS3FeS2FeS2FeSFeS3FeS2FeS2FeSFeS3FeS2FeS2FeSFeS3C2HC3HCH2C2H2C2HC5H4C6H4C6H4C6H4C6H4C6H4C6H4C6H4C6H4C2H4SH6CH2SFeH3CNCH4C2HC4NCH3CH11NC4H16C2H5SHSH2CNC4H15NH3C2HFeH2CNHCHCNH4CH6NC4H12NC5HCH9NCH6CH4CH5CNHSH2CHCH2CHC2H4CH2CHCH2NH3CH2CHSFe2S2FeSHFeSFeS3FeS2FeS2FeSFeS3FeS2FeS2FeSFeS3FeS2FeS2FeSFeS4FeS2FeS2FeSFeS3H4C6H2CHC3HNCH4CHCHC2HCH2C6H4C6H4C6H4C6H4C6H4C6H4C6H4C6H8C7H7C2HNC4H15SHCSCHNH4CH2NC3H8CHCH2C2H2CNC4H12NC4H15NC4H12NC2H6NC4H12NC4H15NHCHNH6CH3C2H4CH2SH3CH2CHNCH4C3H2CHFeS2FeS2FeSFeS4H2NHCHSHFeS2HFeSFeHCFeSFeS3C8Fe2H2C2H2C5HNHC7H3C6H4C3HC2H4CHFeNH4C8H4C2SH2CSC2HCH4CH4NC4H2NHSH7CH2CH2FeHC2H10CH2CH2C2H2SH3SH2C3S3H3SHSHFeSHFeSFeS3FeS2FeS2FeSFeS3FeS2FeS2FeHFeS3FeS2FeS2FeSFeS3H2C6H3C3HC2HCH2C2H2C2HCH2C6H4C6H6CHC6H4C6H4C6H11NHCH4NH2CH4CH5NH3CH2NC4H12C2HC2HC2NHNH2CSCFeHNH3CH2CH2C3H3CH2C2H4C2H2C2H6NC4H16C3HNCHCH2CSH5CH5SFeS2FeS2FeSFeS3FeS2FeS2FeSFeS3FeS2FeS2FeSFeS3FeS2FeS2FeSFeS3FeS2FeSCFeSFeHS2FeSFeS2FeSFeS3FeS2FeS2FeSFeS3H2FeS2CHFe2H2CHC3H5C7H3C6H4CH2C8H4C6H5CH2C6H3C6H4C6H4C6H4C6H4C6H4C6H4C6H4C6H4C6H8CH4CH4N2C4H12NC4H12NC3H2CH7CSNH2C2HCHSHCH2CH9CH2NC4H12NC4H13CH2SHNCHSCH3NH2CSH3N2HCH2CH3CHNHNHC2HCHCHCH2N2H2CH3C2H9C2HCHSHC2H5CH2CH4CHCH4NH2SH3NH5CH4CH2C2HSH2CHSCHSCH2CH2C2HCH10Fe2H4CNCH2C3HC2H2CH3C2HSFeS2FeSFeS2CFeS2FeS2Fe2S3FeS2FeS2FeSFeS3HC2FeS2FeS2FeS2FeSFeS3FeS2FeS2FeHFeS3FeS2FeS2FeSFeHS2FeS2FeS2FeSFeS3H2CHSHSNC4HCH4C6H4C6H5CFeHC2H4C6H4C6H4C6H4C6H4C6H3C6H4C6H4C3H2C6H4C6H4C6H4C6H4CFeCNC4H14NC4H13CH2FeSHSH2C2HCSH3CHCHCSHSH3CHCH2C2H2CH4CNC4H18CNH2NSH3C2NC4H18CH5CH4NC4H12NC4H14CH3NHCN2HCH2NC3H7C3H2SCHCHNCH3C2H3CH9FeS2FeS2FeSFeS3FeSH2SH4SHCFeSFeS2FeSFeS3FeS2FeS2FeSFeCS2FeS2FeS2FeSFeS3FeS2FeS2FeSFeS3C6H4C6H4C6H7C6H4C6H4C6H4C3H3FeH2C6H4C6H4C6H4C6H6CNHCHCH3CFeNC2HCH5CH7C3HSCH9NC3HCH4SH7NC4H12NSHC3H3CH8NC4H4NH7NC4H14CH2CHNH3CHCHCNC4H12CH3NC4H11CH3NH5SHSCHCHCHCH2FeH2SHCH2CH2CH3FeSHSHSFeS2FeS2FeSFeS3FeSFeCH3SFeS2FeS2FeSFeS3FeS2FeS2FeSFeS3C6H4C6H4C6H4C6H4C6H4C6H4C5H2C6H4C6H4CH3CH2CH9C3SH3CH2CSNC4H12NC4H13CHCFeHNC4H12NHCHNHC2SHCH2SHNC4H8CNHCSH5SH5CH2NH4SH9NFeH2FeH4SCHC2FeS2FeS2FeSFeS3H2FeS2FeS2FeSFeS3FeS2HFeSFeSHSFeS2FeS2FeSFeS3FeS2FeS2FeSFeS3CH2FeS2H2CFeHFeHS2H9NC6HCH4C6H4C6H4C6H4C6H4C6H4C6H4C6H4C5HCHC3HNCH4C2H7C6H2NC4H12NC4H12NC4H12SH2NCSCH2C2H7C3HCH2FeSHC3HCHCH2NH2CHNH5CH2C3H3C2H2FeHNHCHCH4CH4C2H7SHNH4C2H3SH5CHCHC2SCH2CH2NH2SH2C3HCH9CH2CH3CH3CH2NCH4CHSH4S
_chemical_formula_sum              "H6144 C3840 Fe768 S1536 N384"
_cell_length_a       113.678
_cell_length_b       113.916
_cell_length_c       114.307
_cell_angle_alpha    75.3323
_cell_angle_beta     75.2851
_cell_angle_gamma    75.3435

_space_group_name_H-M_alt    "P 1"
_space_group_IT_number       1

loop_
  _space_group_symop_operation_xyz
  'x, y, z'

loop_
  _atom_site_type_symbol
  _atom_site_label
  _atom_site_symmetry_multiplicity
  _atom_site_fract_x
  _atom_site_fract_y
  _atom_site_fract_z
  _atom_site_occupancy
  H   H1        1.0  0.33144  0.13787  0.18901  1.0000
  H   H2        1.0  0.32757  0.14819  0.16810  1.0000
  H   H3        1.0  0.33371  0.13085  0.22530  1.0000
  H   H4        1.0  0.33298  0.31821  0.10185  1.0000
  C   C1        1.0  0.33297  0.12870  0.23552  1.0000
  Fe  Fe1       1.0  0.09529  0.14112  0.47322  1.0000
  S   S1        1.0  0.09719  0.12666  0.46229  1.0000
  Fe  Fe2       1.0  0.10047  0.16077  0.45037  1.0000
  S   S2        1.0  0.10322  0.14819  0.43727  1.0000
  S   S3        1.0  0.10318  0.18045  0.44449  1.0000
  Fe  Fe3       1.0  0.08648  0.14164  0.44975  1.0000
  S   S4        1.0  0.07347  0.13550  0.44163  1.0000
  Fe  Fe4       1.0  0.11365  0.13411  0.45060  1.0000
  S   S5        1.0  0.13089  0.12164  0.44302  1.0000
  S   S6        1.0  0.08270  0.15548  0.46192  1.0000
  S   S7        1.0  0.11281  0.14733  0.46237  1.0000
  Fe  Fe5       1.0  0.10528  0.22751  0.37233  1.0000
  S   S8        1.0  0.09473  0.23483  0.38935  1.0000
  S   S9        1.0  0.12584  0.22027  0.36957  1.0000
  Fe  Fe6       1.0  0.08257  0.23146  0.36170  1.0000
  S   S10       1.0  0.06996  0.23931  0.37758  1.0000
  S   S11       1.0  0.07496  0.23094  0.34555  1.0000
  Fe  Fe7       1.0  0.08480  0.24975  0.37608  1.0000
  S   S12       1.0  0.07857  0.26997  0.37722  1.0000
  Fe  Fe8       1.0  0.08089  0.22383  0.38941  1.0000
  S   S13       1.0  0.07082  0.21155  0.40539  1.0000
  S   S14       1.0  0.09651  0.24329  0.35903  1.0000
  S   S15       1.0  0.09233  0.21508  0.37358  1.0000
  Fe  Fe9       1.0  0.05379  0.16065  0.37916  1.0000
  S   S16       1.0  0.05186  0.14152  0.37923  1.0000
  S   S17       1.0  0.05347  0.16955  0.39474  1.0000
  Fe  Fe10      1.0  0.05936  0.16772  0.35150  1.0000
  S   S18       1.0  0.05810  0.14922  0.34882  1.0000
  S   S19       1.0  0.06411  0.18293  0.33545  1.0000
  Fe  Fe11      1.0  0.04113  0.15052  0.36397  1.0000
  S   S20       1.0  0.02397  0.14294  0.36494  1.0000
  Fe  Fe12      1.0  0.06881  0.14158  0.36404  1.0000
  S   S21       1.0  0.08350  0.12425  0.36317  1.0000
  S   S22       1.0  0.04148  0.16983  0.36542  1.0000
  S   S23       1.0  0.07165  0.15989  0.36521  1.0000
  Fe  Fe13      1.0  0.15545  0.15177  0.38020  1.0000
  S   S24       1.0  0.16306  0.13195  0.37863  1.0000
  S   S25       1.0  0.15332  0.15897  0.39729  1.0000
  Fe  Fe14      1.0  0.15020  0.15932  0.35461  1.0000
  S   S26       1.0  0.15733  0.14012  0.35066  1.0000
  S   S27       1.0  0.14023  0.17535  0.34239  1.0000
  Fe  Fe15      1.0  0.14684  0.13414  0.36989  1.0000
  S   S28       1.0  0.13579  0.11905  0.37614  1.0000
  Fe  Fe16      1.0  0.17291  0.13970  0.35979  1.0000
  S   S29       1.0  0.19297  0.13048  0.35415  1.0000
  S   S30       1.0  0.13846  0.15329  0.37309  1.0000
  S   S31       1.0  0.16665  0.15947  0.36204  1.0000
  S   S32       1.0  0.31064  0.04499  0.37048  1.0000
  Fe  Fe17      1.0  0.24789  0.12275  0.38502  1.0000
  S   S33       1.0  0.26044  0.13399  0.37073  1.0000
  S   S34       1.0  0.22752  0.13145  0.38933  1.0000
  Fe  Fe18      1.0  0.26901  0.10139  0.39053  1.0000
  S   S35       1.0  0.28332  0.11057  0.37652  1.0000
  S   S36       1.0  0.27621  0.08328  0.40229  1.0000
  Fe  Fe19      1.0  0.27342  0.12759  0.38396  1.0000
  S   S37       1.0  0.28585  0.13959  0.38523  1.0000
  Fe  Fe20      1.0  0.26932  0.11614  0.36448  1.0000
  S   S38       1.0  0.27595  0.11536  0.34441  1.0000
  S   S39       1.0  0.26004  0.11804  0.39904  1.0000
  S   S40       1.0  0.25581  0.10519  0.37773  1.0000
  S   S41       1.0  0.32064  0.14336  0.32575  1.0000
  H   H5        1.0  0.13916  0.31303  0.32496  1.0000
  C   C2        1.0  0.11146  0.11749  0.42213  1.0000
  H   H6        1.0  0.03823  0.11602  0.36948  1.0000
  H   H7        1.0  0.28711  0.02107  0.43957  1.0000
  S   S42       1.0  0.11823  0.30422  0.36349  1.0000
  C   C3        1.0  0.06591  0.11216  0.34923  1.0000
  H   H8        1.0  0.23512  0.12181  0.34739  1.0000
  C   C4        1.0  0.29222  0.13503  0.39856  1.0000
  C   C5        1.0  0.30292  0.13902  0.39850  1.0000
  C   C6        1.0  0.30870  0.13477  0.40870  1.0000
  C   C7        1.0  0.30355  0.12684  0.41916  1.0000
  C   C8        1.0  0.29256  0.12324  0.41942  1.0000
  C   C9        1.0  0.28700  0.12718  0.40906  1.0000
  H   H9        1.0  0.30682  0.14532  0.39055  1.0000
  H   H10       1.0  0.29389  0.08468  0.35682  1.0000
  H   H11       1.0  0.31972  0.08109  0.39148  1.0000
  H   H12       1.0  0.27863  0.12423  0.40925  1.0000
  C   C10       1.0  0.28799  0.12364  0.33845  1.0000
  C   C11       1.0  0.29802  0.11978  0.32929  1.0000
  C   C12       1.0  0.30817  0.12573  0.32539  1.0000
  C   C13       1.0  0.30800  0.13593  0.33021  1.0000
  C   C14       1.0  0.29773  0.14010  0.33895  1.0000
  C   C15       1.0  0.28790  0.13378  0.34328  1.0000
  H   H13       1.0  0.29808  0.11203  0.32541  1.0000
  H   H14       1.0  0.04893  0.12620  0.36381  1.0000
  H   H15       1.0  0.29747  0.14809  0.34257  1.0000
  H   H16       1.0  0.28022  0.13689  0.35028  1.0000
  C   C16       1.0  0.30081  0.05541  0.37942  1.0000
  C   C17       1.0  0.29013  0.06304  0.37561  1.0000
  C   C18       1.0  0.28262  0.07186  0.38245  1.0000
  C   C19       1.0  0.28562  0.07277  0.39327  1.0000
  C   C20       1.0  0.29628  0.06516  0.39705  1.0000
  C   C21       1.0  0.30391  0.05656  0.39011  1.0000
  H   H17       1.0  0.27435  0.07774  0.37952  1.0000
  H   H18       1.0  0.29872  0.06610  0.40524  1.0000
  H   H19       1.0  0.31215  0.05076  0.39308  1.0000
  C   C22       1.0  0.20254  0.13074  0.36395  1.0000
  C   C23       1.0  0.19980  0.14029  0.37047  1.0000
  C   C24       1.0  0.20772  0.14055  0.37800  1.0000
  C   C25       1.0  0.21830  0.13120  0.37920  1.0000
  C   C26       1.0  0.22106  0.12164  0.37269  1.0000
  C   C27       1.0  0.21319  0.12144  0.36506  1.0000
  H   H20       1.0  0.19167  0.14757  0.36956  1.0000
  H   H21       1.0  0.20564  0.14804  0.38291  1.0000
  H   H22       1.0  0.22911  0.11429  0.37371  1.0000
  H   H23       1.0  0.21526  0.11398  0.36012  1.0000
  C   C28       1.0  0.01789  0.14075  0.35294  1.0000
  C   C29       1.0  0.02231  0.14539  0.34045  1.0000
  C   C30       1.0  0.01708  0.14345  0.33130  1.0000
  H   H24       1.0  0.15668  0.28491  0.34263  1.0000
  H   H25       1.0  0.24204  0.13672  0.32180  1.0000
  C   C31       1.0  0.31043  0.02421  0.42938  1.0000
  H   H26       1.0  0.02968  0.15056  0.33783  1.0000
  H   H27       1.0  0.02049  0.14717  0.32167  1.0000
  C   C32       1.0  0.18948  0.11655  0.39983  1.0000
  C   C33       1.0  0.09804  0.12352  0.36646  1.0000
  C   C34       1.0  0.10586  0.11191  0.36864  1.0000
  C   C35       1.0  0.11746  0.11077  0.37138  1.0000
  C   C36       1.0  0.12156  0.12127  0.37164  1.0000
  C   C37       1.0  0.11386  0.13300  0.36929  1.0000
  C   C38       1.0  0.10200  0.13410  0.36687  1.0000
  H   H28       1.0  0.10288  0.10370  0.36835  1.0000
  H   H29       1.0  0.12332  0.10169  0.37327  1.0000
  H   H30       1.0  0.11692  0.14112  0.36965  1.0000
  H   H31       1.0  0.09595  0.14306  0.36532  1.0000
  C   C39       1.0  0.13031  0.20863  0.36088  1.0000
  C   C40       1.0  0.12234  0.20712  0.35408  1.0000
  C   C41       1.0  0.12558  0.19713  0.34802  1.0000
  C   C42       1.0  0.13671  0.18851  0.34894  1.0000
  C   C43       1.0  0.14477  0.19020  0.35551  1.0000
  C   C44       1.0  0.14167  0.20033  0.36132  1.0000
  H   H32       1.0  0.11372  0.21373  0.35338  1.0000
  H   H33       1.0  0.11936  0.19601  0.34282  1.0000
  H   H34       1.0  0.15352  0.18382  0.35596  1.0000
  H   H35       1.0  0.14799  0.20160  0.36634  1.0000
  C   C45       1.0  0.07287  0.21706  0.34301  1.0000
  C   C46       1.0  0.06887  0.21755  0.33226  1.0000
  C   C47       1.0  0.06642  0.20697  0.33003  1.0000
  C   C48       1.0  0.06762  0.19583  0.33867  1.0000
  C   C49       1.0  0.07174  0.19521  0.34945  1.0000
  C   C50       1.0  0.07458  0.20579  0.35151  1.0000
  H   H36       1.0  0.06759  0.22620  0.32563  1.0000
  H   H37       1.0  0.06333  0.20751  0.32167  1.0000
  H   H38       1.0  0.07277  0.18661  0.35614  1.0000
  H   H39       1.0  0.07782  0.20533  0.35975  1.0000
  C   C51       1.0  0.08985  0.27915  0.37375  1.0000
  C   C52       1.0  0.08590  0.29194  0.37324  1.0000
  C   C53       1.0  0.09458  0.29965  0.36999  1.0000
  C   C54       1.0  0.10729  0.29459  0.36751  1.0000
  C   C55       1.0  0.11128  0.28177  0.36819  1.0000
  C   C56       1.0  0.10256  0.27407  0.37115  1.0000
  H   H40       1.0  0.07609  0.29590  0.37536  1.0000
  H   H41       1.0  0.09142  0.30949  0.36968  1.0000
  H   H42       1.0  0.12110  0.27778  0.36634  1.0000
  H   H43       1.0  0.10568  0.26420  0.37156  1.0000
  C   C57       1.0  0.09358  0.18945  0.43430  1.0000
  C   C58       1.0  0.09520  0.20145  0.42831  1.0000
  C   C59       1.0  0.08809  0.20842  0.41954  1.0000
  C   C60       1.0  0.07926  0.20342  0.41688  1.0000
  C   C61       1.0  0.07732  0.19162  0.42325  1.0000
  C   C62       1.0  0.08458  0.18457  0.43183  1.0000
  H   H44       1.0  0.10211  0.20529  0.43027  1.0000
  H   H45       1.0  0.08945  0.21763  0.41482  1.0000
  H   H46       1.0  0.07032  0.18785  0.42141  1.0000
  H   H47       1.0  0.08321  0.17535  0.43651  1.0000
  C   C63       1.0  0.13813  0.13150  0.43058  1.0000
  C   C64       1.0  0.14002  0.14261  0.43218  1.0000
  C   C65       1.0  0.14489  0.15102  0.42195  1.0000
  C   C66       1.0  0.14729  0.14853  0.41011  1.0000
  C   C67       1.0  0.14504  0.13757  0.40855  1.0000
  C   C68       1.0  0.14081  0.12889  0.41880  1.0000
  H   H48       1.0  0.13774  0.14471  0.44131  1.0000
  H   H49       1.0  0.14655  0.15952  0.42320  1.0000
  H   H50       1.0  0.14636  0.13582  0.39945  1.0000
  H   H51       1.0  0.13917  0.12038  0.41755  1.0000
  C   C69       1.0  0.06812  0.14508  0.42853  1.0000
  C   C70       1.0  0.06277  0.14007  0.42161  1.0000
  C   C71       1.0  0.05866  0.14739  0.41095  1.0000
  C   C72       1.0  0.05954  0.15986  0.40739  1.0000
  C   C73       1.0  0.06491  0.16486  0.41428  1.0000
  C   C74       1.0  0.06937  0.15745  0.42473  1.0000
  H   H52       1.0  0.06179  0.13050  0.42451  1.0000
  H   H53       1.0  0.05443  0.14349  0.40575  1.0000
  H   H54       1.0  0.06560  0.17450  0.41153  1.0000
  H   H55       1.0  0.07349  0.16137  0.43001  1.0000
  C   C75       1.0  0.29999  0.09084  0.35042  1.0000
  H   H56       1.0  0.31863  0.15819  0.34267  1.0000
  H   H57       1.0  0.08813  0.12616  0.41863  1.0000
  H   H58       1.0  0.17180  0.13683  0.39852  1.0000
  C   C76       1.0  0.14144  0.30435  0.33184  1.0000
  H   H59       1.0  0.12596  0.12628  0.40068  1.0000
  C   C77       1.0  0.29533  0.03259  0.41631  1.0000
  H   H60       1.0  0.16591  0.29805  0.32302  1.0000
  H   H61       1.0  0.17531  0.14353  0.40950  1.0000
  H   H62       1.0  0.25836  0.14091  0.34437  1.0000
  C   C78       1.0  0.31550  0.08354  0.36300  1.0000
  C   C79       1.0  0.32088  0.09410  0.34186  1.0000
  H   H63       1.0  0.31955  0.07285  0.40710  1.0000
  H   H64       1.0  0.31099  0.10050  0.42104  1.0000
  H   H65       1.0  0.05367  0.11113  0.37272  1.0000
  H   H66       1.0  0.18622  0.14165  0.39542  1.0000
  Fe  Fe21      1.0  0.32829  0.03724  0.37745  1.0000
  H   H67       1.0  0.09104  0.30937  0.33345  1.0000
  C   C80       1.0  0.31662  0.07352  0.34638  1.0000
  H   H68       1.0  0.14393  0.29648  0.32698  1.0000
  C   C81       1.0  0.05134  0.09843  0.35667  1.0000
  C   C82       1.0  0.00827  0.13410  0.35613  1.0000
  H   H69       1.0  0.28770  0.06218  0.36734  1.0000
  C   C83       1.0  0.17936  0.13722  0.40284  1.0000
  H   H70       1.0  0.31230  0.11240  0.39929  1.0000
  H   H71       1.0  0.31334  0.02447  0.43789  1.0000
  H   H72       1.0  0.30942  0.01459  0.43001  1.0000
  H   H73       1.0  0.09490  0.13880  0.41842  1.0000
  H   H74       1.0  0.31034  0.06717  0.35197  1.0000
  N   N1        1.0  0.15160  0.30477  0.33753  1.0000
  H   H75       1.0  0.17946  0.11029  0.42408  1.0000
  H   H76       1.0  0.19250  0.13175  0.42063  1.0000
  H   H77       1.0  0.26043  0.13790  0.32932  1.0000
  C   C84       1.0  0.19554  0.12557  0.41381  1.0000
  H   H78       1.0  0.18181  0.11585  0.39578  1.0000
  H   H79       1.0  0.19374  0.10701  0.40410  1.0000
  H   H80       1.0  0.17171  0.12576  0.42600  1.0000
  H   H81       1.0  0.20008  0.11632  0.41843  1.0000
  Fe  Fe22      1.0  0.33163  0.12055  0.42516  1.0000
  H   H82       1.0  0.30810  0.04834  0.41843  1.0000
  N   N2        1.0  0.18500  0.12473  0.40891  1.0000
  H   H83       1.0  0.25265  0.15299  0.33243  1.0000
  H   H84       1.0  0.31555  0.08399  0.42379  1.0000
  H   H85       1.0  0.19665  0.12008  0.39202  1.0000
  H   H86       1.0  0.16755  0.11880  0.41564  1.0000
  H   H87       1.0  0.28692  0.03971  0.41442  1.0000
  H   H88       1.0  0.20282  0.12939  0.40629  1.0000
  H   H89       1.0  0.10097  0.10848  0.40886  1.0000
  H   H90       1.0  0.28850  0.11718  0.42755  1.0000
  H   H91       1.0  0.05680  0.09255  0.36365  1.0000
  C   C85       1.0  0.31702  0.09262  0.41693  1.0000
  H   H92       1.0  0.03528  0.11857  0.34810  1.0000
  H   H93       1.0  0.31826  0.02618  0.42155  1.0000
  H   H94       1.0  0.15541  0.31617  0.34798  1.0000
  C   C86       1.0  0.17555  0.11965  0.41912  1.0000
  C   C87       1.0  0.04531  0.11894  0.34478  1.0000
  H   H95       1.0  0.08224  0.30760  0.34893  1.0000
  H   H96       1.0  0.31604  0.12256  0.31853  1.0000
  H   H97       1.0  0.16161  0.29323  0.35137  1.0000
  H   H98       1.0  0.06725  0.12188  0.34713  1.0000
  C   C88       1.0  0.08552  0.29055  0.32741  1.0000
  H   H99       1.0  0.25061  0.12007  0.33828  1.0000
  H   H100      1.0  0.06970  0.10850  0.34059  1.0000
  H   H101      1.0  0.10371  0.11957  0.39473  1.0000
  N   N3        1.0  0.04788  0.20768  0.38422  1.0000
  C   C89       1.0  0.04802  0.21502  0.37152  1.0000
  C   C90       1.0  0.03840  0.19994  0.38753  1.0000
  C   C91       1.0  0.04489  0.21613  0.39294  1.0000
  C   C92       1.0  0.06021  0.19960  0.38492  1.0000
  H   H102      1.0  0.05535  0.22068  0.36857  1.0000
  H   H103      1.0  0.03898  0.22148  0.37073  1.0000
  H   H104      1.0  0.04988  0.20893  0.36475  1.0000
  H   H105      1.0  0.03811  0.19427  0.39707  1.0000
  H   H106      1.0  0.02897  0.20567  0.38706  1.0000
  H   H107      1.0  0.04049  0.19332  0.38123  1.0000
  H   H108      1.0  0.04512  0.21087  0.40257  1.0000
  H   H109      1.0  0.03554  0.22218  0.39291  1.0000
  H   H110      1.0  0.05176  0.22223  0.39058  1.0000
  H   H111      1.0  0.06760  0.20512  0.38249  1.0000
  H   H112      1.0  0.06270  0.19296  0.37861  1.0000
  H   H113      1.0  0.06044  0.19402  0.39443  1.0000
  C   C93       1.0  0.06806  0.30613  0.33430  1.0000
  C   C94       1.0  0.10162  0.17731  0.47675  1.0000
  H   H114      1.0  0.30632  0.14848  0.36846  1.0000
  H   H115      1.0  0.04145  0.09762  0.36036  1.0000
  H   H116      1.0  0.06130  0.30199  0.33193  1.0000
  H   H117      1.0  0.08211  0.27968  0.35124  1.0000
  H   H118      1.0  0.09171  0.13699  0.40444  1.0000
  H   H119      1.0  0.29717  0.09990  0.35337  1.0000
  C   C95       1.0  0.00729  0.13700  0.33452  1.0000
  H   H120      1.0  0.17074  0.30642  0.33177  1.0000
  H   H121      1.0  0.32154  0.15749  0.37449  1.0000
  C   C96       1.0  0.14797  0.31553  0.34360  1.0000
  N   N4        1.0  0.10796  0.16797  0.33889  1.0000
  C   C97       1.0  0.09648  0.16502  0.33759  1.0000
  C   C98       1.0  0.11836  0.15730  0.33723  1.0000
  C   C99       1.0  0.10621  0.17059  0.35131  1.0000
  C   C100      1.0  0.11074  0.17899  0.32943  1.0000
  H   H122      1.0  0.08839  0.17272  0.33919  1.0000
  H   H123      1.0  0.09427  0.15651  0.34429  1.0000
  H   H124      1.0  0.09724  0.16347  0.32817  1.0000
  H   H125      1.0  0.12718  0.15916  0.33820  1.0000
  H   H126      1.0  0.11655  0.14881  0.34420  1.0000
  H   H127      1.0  0.11998  0.15513  0.32792  1.0000
  H   H128      1.0  0.09852  0.17870  0.35280  1.0000
  H   H129      1.0  0.11476  0.17274  0.35263  1.0000
  H   H130      1.0  0.10395  0.16254  0.35870  1.0000
  H   H131      1.0  0.11197  0.17744  0.31994  1.0000
  H   H132      1.0  0.11946  0.18138  0.33003  1.0000
  H   H133      1.0  0.10312  0.18725  0.33054  1.0000
  N   N5        1.0  0.07875  0.29659  0.33790  1.0000
  C   C101      1.0  0.00299  0.13224  0.34700  1.0000
  H   H134      1.0  0.29339  0.02334  0.41690  1.0000
  H   H135      1.0  0.06768  0.28267  0.34637  1.0000
  N   N6        1.0  0.05269  0.11146  0.35405  1.0000
  H   H136      1.0  0.31708  0.13774  0.40852  1.0000
  H   H137      1.0  0.33195  0.14270  0.37623  1.0000
  C   C102      1.0  0.07428  0.28718  0.34850  1.0000
  C   C103      1.0  0.28877  0.03056  0.43842  1.0000
  C   C104      1.0  0.08718  0.30250  0.34138  1.0000
  H   H138      1.0  0.31972  0.09555  0.33217  1.0000
  C   C105      1.0  0.30088  0.09289  0.40659  1.0000
  H   H139      1.0  0.06945  0.29128  0.35676  1.0000
  H   H140      1.0  0.30290  0.03417  0.40809  1.0000
  H   H141      1.0  0.29106  0.03115  0.44714  1.0000
  C   C106      1.0  0.30079  0.04590  0.42663  1.0000
  C   C107      1.0  0.08155  0.18704  0.47173  1.0000
  N   N7        1.0  0.12189  0.18790  0.39856  1.0000
  C   C108      1.0  0.11151  0.19868  0.39755  1.0000
  C   C109      1.0  0.11962  0.17995  0.41099  1.0000
  C   C110      1.0  0.13357  0.19227  0.39657  1.0000
  C   C111      1.0  0.12287  0.18075  0.38910  1.0000
  H   H142      1.0  0.10242  0.19580  0.39960  1.0000
  H   H143      1.0  0.11264  0.20450  0.38810  1.0000
  H   H144      1.0  0.11100  0.20475  0.40397  1.0000
  H   H145      1.0  0.11907  0.18500  0.41834  1.0000
  H   H146      1.0  0.11072  0.17672  0.41297  1.0000
  H   H147      1.0  0.12719  0.17161  0.41196  1.0000
  H   H148      1.0  0.13535  0.19859  0.38744  1.0000
  H   H149      1.0  0.14169  0.18441  0.39689  1.0000
  H   H150      1.0  0.13324  0.19748  0.40370  1.0000
  H   H151      1.0  0.13068  0.17259  0.38954  1.0000
  H   H152      1.0  0.12461  0.18649  0.37962  1.0000
  H   H153      1.0  0.11420  0.17734  0.39033  1.0000
  H   H154      1.0  0.12071  0.11121  0.42053  1.0000
  H   H155      1.0  0.11215  0.12410  0.42750  1.0000
  H   H156      1.0  0.29843  0.09290  0.39776  1.0000
  N   N8        1.0  0.31325  0.08549  0.35041  1.0000
  H   H157      1.0  0.11703  0.13886  0.40805  1.0000
  H   H158      1.0  0.31611  0.07478  0.33652  1.0000
  H   H159      1.0  0.10470  0.11181  0.42816  1.0000
  H   H160      1.0  0.09511  0.29554  0.34467  1.0000
  H   H161      1.0  0.00485  0.13038  0.36576  1.0000
  C   C112      1.0  0.09505  0.13185  0.41304  1.0000
  C   C113      1.0  0.10720  0.11492  0.40336  1.0000
  H   H162      1.0  0.23426  0.15171  0.32514  1.0000
  H   H163      1.0  0.04849  0.11565  0.33591  1.0000
  H   H164      1.0  0.32750  0.10379  0.39419  1.0000
  H   H165      1.0  0.11376  0.13702  0.39407  1.0000
  H   H166      1.0  0.32962  0.16486  0.34630  1.0000
  N   N9        1.0  0.29883  0.03330  0.42769  1.0000
  H   H167      1.0  0.33109  0.13571  0.48425  1.0000
  H   H168      1.0  0.07110  0.31322  0.32612  1.0000
  H   H169      1.0  0.29500  0.10131  0.40988  1.0000
  H   H170      1.0  0.24776  0.12292  0.35356  1.0000
  H   H171      1.0  0.29792  0.09243  0.34107  1.0000
  S   S43       1.0  0.31127  0.12063  0.43152  1.0000
  N   N10       1.0  0.10755  0.12404  0.41038  1.0000
  N   N11       1.0  0.31424  0.09268  0.40497  1.0000
  C   C114      1.0  0.04819  0.11635  0.36554  1.0000
  H   H172      1.0  0.08900  0.29740  0.31921  1.0000
  H   H173      1.0  0.27986  0.03722  0.43737  1.0000
  H   H174      1.0  0.31186  0.13935  0.35681  1.0000
  H   H175      1.0  0.13948  0.31491  0.35098  1.0000
  C   C115      1.0  0.11645  0.13193  0.40298  1.0000
  H   H176      1.0  0.14597  0.32438  0.33686  1.0000
  C   C116      1.0  0.32172  0.16001  0.35042  1.0000
  H   H177      1.0  0.11662  0.10926  0.40060  1.0000
  N   N12       1.0  0.24178  0.13881  0.34003  1.0000
  C   C117      1.0  0.23343  0.14543  0.34958  1.0000
  C   C118      1.0  0.23600  0.14161  0.32916  1.0000
  C   C119      1.0  0.24388  0.12532  0.34504  1.0000
  C   C120      1.0  0.25380  0.14287  0.33635  1.0000
  H   H178      1.0  0.23716  0.14308  0.35819  1.0000
  H   H179      1.0  0.22409  0.14299  0.35215  1.0000
  H   H180      1.0  0.23203  0.15565  0.34631  1.0000
  H   H181      1.0  0.22689  0.13865  0.33167  1.0000
  H   H182      1.0  0.09367  0.28334  0.32985  1.0000
  C   C121      1.0  0.31741  0.10380  0.39591  1.0000
  H   H183      1.0  0.30390  0.04667  0.43484  1.0000
  H   H184      1.0  0.04597  0.12887  0.34276  1.0000
  H   H185      1.0  0.31390  0.16650  0.35502  1.0000
  H   H186      1.0  0.32679  0.09348  0.41590  1.0000
  C   C122      1.0  0.16289  0.30599  0.32784  1.0000
  H   H187      1.0  0.07175  0.10680  0.35607  1.0000
  H   H188      1.0  0.29214  0.05301  0.42565  1.0000
  C   C123      1.0  0.15402  0.29325  0.34684  1.0000
  H   H189      1.0  0.05461  0.09446  0.34818  1.0000
  H   H190      1.0  0.06302  0.31117  0.34188  1.0000
  H   H191      1.0  0.10289  0.17014  0.47127  1.0000
  Fe  Fe23      1.0  0.11136  0.32322  0.35279  1.0000
  H   H192      1.0  0.07944  0.28592  0.32460  1.0000
  H   H193      1.0  0.29805  0.08475  0.41347  1.0000
  S   S44       1.0  0.11153  0.32285  0.33328  1.0000
  H   H194      1.0  0.32543  0.07940  0.36333  1.0000
  H   H195      1.0  0.31833  0.10338  0.34437  1.0000
  H   H196      1.0  0.33179  0.08099  0.39912  1.0000
  H   H197      1.0  0.33094  0.09047  0.34185  1.0000
  H   H198      1.0  0.10579  0.18504  0.47039  1.0000
  H   H199      1.0  0.07151  0.19048  0.47523  1.0000
  H   H200      1.0  0.16121  0.31464  0.32071  1.0000
  C   C124      1.0  0.32917  0.15125  0.36941  1.0000
  N   N13       1.0  0.32531  0.14839  0.35919  1.0000
  C   C125      1.0  0.32164  0.08143  0.40044  1.0000
  H   H201      1.0  0.08224  0.18017  0.46607  1.0000
  H   H202      1.0  0.31495  0.10445  0.38692  1.0000
  H   H203      1.0  0.13284  0.30321  0.33893  1.0000
  H   H204      1.0  0.31302  0.09242  0.36629  1.0000
  H   H205      1.0  0.09091  0.19909  0.48348  1.0000
  H   H206      1.0  0.30985  0.07713  0.36967  1.0000
  H   H207      1.0  0.08412  0.16353  0.48473  1.0000
  H   H208      1.0  0.10708  0.17322  0.48415  1.0000
  H   H209      1.0  0.14558  0.29219  0.35426  1.0000
  H   H210      1.0  0.33293  0.13708  0.34549  1.0000
  S   S45       1.0  0.32907  0.02388  0.39551  1.0000
  H   H211      1.0  0.32879  0.12033  0.23933  1.0000
  H   H212      1.0  0.32638  0.13659  0.23922  1.0000
  C   C126      1.0  0.31460  0.14220  0.36419  1.0000
  N   N14       1.0  0.08834  0.18154  0.48192  1.0000
  H   H213      1.0  0.31666  0.13377  0.37137  1.0000
  H   H214      1.0  0.08543  0.19492  0.46529  1.0000
  H   H215      1.0  0.32622  0.06868  0.34735  1.0000
  H   H216      1.0  0.33204  0.06278  0.43046  1.0000
  H   H217      1.0  0.32303  0.16320  0.48600  1.0000
  C   C127      1.0  0.33159  0.15976  0.53756  1.0000
  H   H218      1.0  0.14508  0.15759  0.59088  1.0000
  H   H219      1.0  0.13896  0.09695  0.61234  1.0000
  Fe  Fe24      1.0  0.30061  0.14005  0.60680  1.0000
  S   S46       1.0  0.29555  0.16084  0.60109  1.0000
  S   S47       1.0  0.28409  0.13079  0.61656  1.0000
  Fe  Fe25      1.0  0.30781  0.15755  0.58309  1.0000
  S   S48       1.0  0.30234  0.16680  0.56499  1.0000
  Fe  Fe26      1.0  0.31308  0.16132  0.60641  1.0000
  S   S49       1.0  0.31681  0.17482  0.61584  1.0000
  S   S50       1.0  0.31221  0.13687  0.58839  1.0000
  S   S51       1.0  0.31715  0.14079  0.61412  1.0000
  H   H220      1.0  0.31112  0.19819  0.56969  1.0000
  Fe  Fe27      1.0  0.15137  0.03431  0.62919  1.0000
  S   S52       1.0  0.16652  0.01953  0.62182  1.0000
  S   S53       1.0  0.15104  0.04008  0.64665  1.0000
  Fe  Fe28      1.0  0.14005  0.04109  0.60650  1.0000
  S   S54       1.0  0.15437  0.02710  0.59701  1.0000
  S   S55       1.0  0.12408  0.05413  0.59896  1.0000
  Fe  Fe29      1.0  0.15145  0.01427  0.61563  1.0000
  S   S56       1.0  0.09073  0.13695  0.49414  1.0000
  Fe  Fe30      1.0  0.16797  0.03370  0.60407  1.0000
  S   S57       1.0  0.18513  0.04058  0.59222  1.0000
  S   S58       1.0  0.13623  0.02808  0.62463  1.0000
  S   S59       1.0  0.15368  0.04872  0.61190  1.0000
  Fe  Fe31      1.0  0.21798  0.10022  0.58194  1.0000
  S   S60       1.0  0.23347  0.08569  0.58879  1.0000
  S   S61       1.0  0.21254  0.10235  0.56382  1.0000
  Fe  Fe32      1.0  0.20936  0.10961  0.60571  1.0000
  S   S62       1.0  0.22408  0.09592  0.61481  1.0000
  S   S63       1.0  0.19372  0.12354  0.61396  1.0000
  Fe  Fe33      1.0  0.23701  0.10065  0.59649  1.0000
  S   S64       1.0  0.25735  0.10234  0.59271  1.0000
  Fe  Fe34      1.0  0.21943  0.08221  0.60635  1.0000
  S   S65       1.0  0.21602  0.06334  0.61700  1.0000
  S   S66       1.0  0.22254  0.11546  0.58805  1.0000
  S   S67       1.0  0.20370  0.09553  0.59892  1.0000
  Fe  Fe35      1.0  0.11488  0.12027  0.67320  1.0000
  S   S68       1.0  0.12470  0.10033  0.67482  1.0000
  S   S69       1.0  0.10155  0.12381  0.69095  1.0000
  Fe  Fe36      1.0  0.12467  0.12595  0.64531  1.0000
  S   S70       1.0  0.13477  0.10641  0.64493  1.0000
  S   S71       1.0  0.12718  0.13882  0.62675  1.0000
  Fe  Fe37      1.0  0.11776  0.10114  0.65798  1.0000
  S   S72       1.0  0.10871  0.08658  0.65598  1.0000
  Fe  Fe38      1.0  0.14068  0.10769  0.66173  1.0000
  S   S73       1.0  0.16055  0.09953  0.66310  1.0000
  S   S74       1.0  0.10700  0.12061  0.65690  1.0000
  S   S75       1.0  0.13163  0.12768  0.66149  1.0000
  Fe  Fe39      1.0  0.12847  0.13599  0.54219  1.0000
  S   S76       1.0  0.14783  0.12490  0.54270  1.0000
  S   S77       1.0  0.12569  0.14794  0.52366  1.0000
  Fe  Fe40      1.0  0.11917  0.12656  0.56952  1.0000
  S   S78       1.0  0.13752  0.11436  0.57197  1.0000
  S   S79       1.0  0.10470  0.12632  0.58707  1.0000
  Fe  Fe41      1.0  0.14539  0.13073  0.56061  1.0000
  S   S80       1.0  0.15892  0.13621  0.56851  1.0000
  Fe  Fe42      1.0  0.13806  0.10972  0.55399  1.0000
  S   S81       1.0  0.14525  0.09030  0.55092  1.0000
  S   S82       1.0  0.12694  0.14336  0.55912  1.0000
  S   S83       1.0  0.11884  0.12029  0.55245  1.0000
  H   H221      1.0  0.11688  0.09522  0.59459  1.0000
  S   S84       1.0  0.10649  0.16051  0.72215  1.0000
  C   C128      1.0  0.10303  0.13426  0.69928  1.0000
  C   C129      1.0  0.10983  0.14361  0.69379  1.0000
  C   C130      1.0  0.11043  0.15199  0.70072  1.0000
  C   C131      1.0  0.10457  0.15080  0.71324  1.0000
  C   C132      1.0  0.09779  0.14144  0.71868  1.0000
  C   C133      1.0  0.09693  0.13329  0.71170  1.0000
  H   H222      1.0  0.11443  0.14453  0.68417  1.0000
  H   H223      1.0  0.11559  0.15929  0.69642  1.0000
  C   C134      1.0  0.14447  0.12415  0.73198  1.0000
  H   H224      1.0  0.09154  0.12618  0.71597  1.0000
  C   C135      1.0  0.12055  0.13541  0.61597  1.0000
  C   C136      1.0  0.10956  0.13083  0.61957  1.0000
  C   C137      1.0  0.10439  0.12847  0.61064  1.0000
  C   C138      1.0  0.11038  0.13036  0.59816  1.0000
  C   C139      1.0  0.12142  0.13477  0.59467  1.0000
  C   C140      1.0  0.12639  0.13739  0.60351  1.0000
  H   H225      1.0  0.10491  0.12939  0.62917  1.0000
  H   H226      1.0  0.09580  0.12510  0.61340  1.0000
  H   H227      1.0  0.12619  0.13620  0.58514  1.0000
  H   H228      1.0  0.13488  0.14079  0.60063  1.0000
  C   C141      1.0  0.19805  0.11248  0.56421  1.0000
  C   C142      1.0  0.19329  0.11899  0.57378  1.0000
  C   C143      1.0  0.18135  0.12629  0.57489  1.0000
  C   C144      1.0  0.17396  0.12710  0.56652  1.0000
  C   C145      1.0  0.17868  0.12065  0.55685  1.0000
  C   C146      1.0  0.19080  0.11343  0.55561  1.0000
  H   H229      1.0  0.19881  0.11842  0.58039  1.0000
  H   H230      1.0  0.17782  0.13112  0.58240  1.0000
  H   H231      1.0  0.17307  0.12137  0.55025  1.0000
  H   H232      1.0  0.19448  0.10844  0.54814  1.0000
  C   C147      1.0  0.18479  0.11673  0.62776  1.0000
  C   C148      1.0  0.17262  0.12278  0.63176  1.0000
  C   C149      1.0  0.16520  0.11746  0.64257  1.0000
  C   C150      1.0  0.17006  0.10626  0.64973  1.0000
  C   C151      1.0  0.18232  0.10022  0.64588  1.0000
  C   C152      1.0  0.18961  0.10534  0.63476  1.0000
  H   H233      1.0  0.16885  0.13157  0.62651  1.0000
  H   H234      1.0  0.15577  0.12217  0.64543  1.0000
  H   H235      1.0  0.18613  0.09156  0.65143  1.0000
  H   H236      1.0  0.19903  0.10064  0.63177  1.0000
  C   C153      1.0  0.19431  0.04603  0.59928  1.0000
  C   C154      1.0  0.19352  0.04310  0.61208  1.0000
  C   C155      1.0  0.20080  0.04787  0.61735  1.0000
  C   C156      1.0  0.20822  0.05625  0.61000  1.0000
  C   C157      1.0  0.20900  0.05916  0.59723  1.0000
  C   C158      1.0  0.20241  0.05372  0.59188  1.0000
  H   H237      1.0  0.18754  0.03693  0.61786  1.0000
  H   H238      1.0  0.20052  0.04524  0.62717  1.0000
  H   H239      1.0  0.21490  0.06541  0.59143  1.0000
  H   H240      1.0  0.20352  0.05559  0.58195  1.0000
  C   C159      1.0  0.12965  0.06384  0.58517  1.0000
  C   C160      1.0  0.14134  0.06011  0.57800  1.0000
  C   C161      1.0  0.14584  0.06807  0.56715  1.0000
  C   C162      1.0  0.13899  0.08002  0.56384  1.0000
  C   C163      1.0  0.12735  0.08382  0.57108  1.0000
  C   C164      1.0  0.12254  0.07558  0.58154  1.0000
  H   H241      1.0  0.14683  0.05100  0.58066  1.0000
  H   H242      1.0  0.15470  0.06501  0.56141  1.0000
  H   H243      1.0  0.12196  0.09301  0.56850  1.0000
  H   H244      1.0  0.11340  0.07839  0.58695  1.0000
  C   C165      1.0  0.13864  0.05229  0.64997  1.0000
  C   C166      1.0  0.12859  0.05550  0.64403  1.0000
  C   C167      1.0  0.11905  0.06569  0.64639  1.0000
  C   C168      1.0  0.11991  0.07306  0.65415  1.0000
  C   C169      1.0  0.13001  0.06990  0.65999  1.0000
  C   C170      1.0  0.13917  0.05931  0.65818  1.0000
  H   H245      1.0  0.12809  0.05003  0.63777  1.0000
  H   H246      1.0  0.11115  0.06798  0.64201  1.0000
  H   H247      1.0  0.13067  0.07549  0.66608  1.0000
  H   H248      1.0  0.14680  0.05669  0.66298  1.0000
  H   H249      1.0  0.16435  0.16508  0.60868  1.0000
  H   H250      1.0  0.28324  0.14910  0.56222  1.0000
  N   N15       1.0  0.16042  0.15205  0.60021  1.0000
  C   C171      1.0  0.16007  0.13872  0.60304  1.0000
  H   H251      1.0  0.32004  0.17588  0.54409  1.0000
  C   C172      1.0  0.10044  0.14007  0.50232  1.0000
  C   C173      1.0  0.11016  0.14621  0.49618  1.0000
  C   C174      1.0  0.11772  0.14870  0.50286  1.0000
  C   C175      1.0  0.11576  0.14488  0.51573  1.0000
  C   C176      1.0  0.10606  0.13871  0.52193  1.0000
  C   C177      1.0  0.09836  0.13639  0.51524  1.0000
  H   H252      1.0  0.12522  0.15348  0.49802  1.0000
  H   H253      1.0  0.10434  0.13594  0.53189  1.0000
  H   H254      1.0  0.09077  0.13173  0.52008  1.0000
  C   C178      1.0  0.27676  0.12292  0.60978  1.0000
  C   C179      1.0  0.26436  0.12178  0.61492  1.0000
  C   C180      1.0  0.25821  0.11561  0.60979  1.0000
  C   C181      1.0  0.26450  0.11029  0.59957  1.0000
  C   C182      1.0  0.27696  0.11125  0.59456  1.0000
  C   C183      1.0  0.28301  0.11766  0.59951  1.0000
  H   H255      1.0  0.25946  0.12576  0.62290  1.0000
  H   H256      1.0  0.24864  0.11493  0.61378  1.0000
  H   H257      1.0  0.28195  0.10709  0.58672  1.0000
  H   H258      1.0  0.29260  0.11831  0.59556  1.0000
  H   H259      1.0  0.27320  0.14817  0.59587  1.0000
  C   C184      1.0  0.31142  0.20770  0.59151  1.0000
  C   C185      1.0  0.31055  0.19562  0.59818  1.0000
  C   C186      1.0  0.31768  0.18988  0.60718  1.0000
  H   H260      1.0  0.13245  0.07624  0.60364  1.0000
  H   H261      1.0  0.12055  0.11972  0.50697  1.0000
  H   H262      1.0  0.30568  0.21225  0.58478  1.0000
  H   H263      1.0  0.30417  0.19086  0.59659  1.0000
  C   C187      1.0  0.07769  0.08741  0.68768  1.0000
  H   H264      1.0  0.27245  0.13305  0.57700  1.0000
  H   H265      1.0  0.27686  0.06123  0.62132  1.0000
  H   H266      1.0  0.17902  0.14937  0.58942  1.0000
  H   H267      1.0  0.13660  0.09747  0.59718  1.0000
  N   N16       1.0  0.14249  0.13612  0.72321  1.0000
  N   N17       1.0  0.13093  0.10472  0.51827  1.0000
  H   H268      1.0  0.12841  0.01464  0.59098  1.0000
  C   C188      1.0  0.12625  0.11025  0.50673  1.0000
  C   C189      1.0  0.32615  0.14992  0.50840  1.0000
  C   C190      1.0  0.32637  0.13830  0.49333  1.0000
  H   H269      1.0  0.11421  0.11268  0.52975  1.0000
  H   H270      1.0  0.07715  0.19431  0.49334  1.0000
  H   H271      1.0  0.11592  0.99971  0.61496  1.0000
  H   H272      1.0  0.11015  0.03327  0.61438  1.0000
  C   C191      1.0  0.11032  0.00559  0.60810  1.0000
  H   H273      1.0  0.14731  0.99648  0.59487  1.0000
  H   H274      1.0  0.31655  0.14273  0.49278  1.0000
  C   C192      1.0  0.10864  0.02360  0.61636  1.0000
  H   H275      1.0  0.14698  0.09291  0.50967  1.0000
  H   H276      1.0  0.13398  0.11111  0.49853  1.0000
  H   H277      1.0  0.12029  0.10464  0.50515  1.0000
  C   C193      1.0  0.13835  0.11279  0.52015  1.0000
  C   C194      1.0  0.13880  0.09234  0.51744  1.0000
  H   H278      1.0  0.13261  0.12207  0.52127  1.0000
  H   H279      1.0  0.15957  0.13139  0.71044  1.0000
  C   C195      1.0  0.08315  0.17088  0.48994  1.0000
  H   H280      1.0  0.15336  0.14773  0.70908  1.0000
  H   H281      1.0  0.26055  0.17101  0.58017  1.0000
  H   H282      1.0  0.32686  0.13031  0.54886  1.0000
  H   H283      1.0  0.26424  0.05683  0.63345  1.0000
  H   H284      1.0  0.10603  0.08870  0.60755  1.0000
  H   H285      1.0  0.26561  0.08327  0.61850  1.0000
  H   H286      1.0  0.08052  0.10958  0.70139  1.0000
  H   H287      1.0  0.26578  0.06091  0.59987  1.0000
  H   H288      1.0  0.26947  0.04935  0.62043  1.0000
  C   C196      1.0  0.26775  0.05840  0.62327  1.0000
  H   H289      1.0  0.24002  0.07067  0.61454  1.0000
  C   C197      1.0  0.09633  0.09162  0.69070  1.0000
  H   H290      1.0  0.28104  0.15923  0.58449  1.0000
  N   N18       1.0  0.25883  0.06790  0.61670  1.0000
  H   H291      1.0  0.10704  0.10457  0.60505  1.0000
  H   H292      1.0  0.13495  0.07524  0.61885  1.0000
  H   H293      1.0  0.13284  0.14450  0.70832  1.0000
  H   H294      1.0  0.14232  0.10872  0.52857  1.0000
  H   H295      1.0  0.09211  0.18705  0.49702  1.0000
  C   C198      1.0  0.31544  0.14645  0.55555  1.0000
  H   H296      1.0  0.13453  0.15531  0.72383  1.0000
  C   C199      1.0  0.31979  0.21386  0.59344  1.0000
  C   C200      1.0  0.32536  0.14026  0.54777  1.0000
  C   C201      1.0  0.31356  0.15930  0.55425  1.0000
  S   S85       1.0  0.32485  0.16003  0.58772  1.0000
  H   H297      1.0  0.09304  0.14058  0.72824  1.0000
  C   C202      1.0  0.33289  0.20602  0.56340  1.0000
  H   H298      1.0  0.13141  0.01362  0.60592  1.0000
  C   C203      1.0  0.10428  0.02610  0.59616  1.0000
  C   C204      1.0  0.13621  0.14610  0.73013  1.0000
  H   H299      1.0  0.30933  0.14126  0.56263  1.0000
  H   H300      1.0  0.16069  0.13929  0.72179  1.0000
  H   H301      1.0  0.10868  0.08876  0.62909  1.0000
  H   H302      1.0  0.25718  0.07654  0.59800  1.0000
  C   C205      1.0  0.26385  0.06969  0.60324  1.0000
  C   C206      1.0  0.16408  0.15508  0.61043  1.0000
  H   H303      1.0  0.15735  0.13609  0.59549  1.0000
  H   H304      1.0  0.16930  0.13283  0.60425  1.0000
  H   H305      1.0  0.17349  0.14968  0.61171  1.0000
  H   H306      1.0  0.15742  0.15291  0.61932  1.0000
  H   H307      1.0  0.09672  0.08388  0.69886  1.0000
  C   C207      1.0  0.07633  0.10222  0.70014  1.0000
  H   H308      1.0  0.12314  0.09115  0.63082  1.0000
  C   C208      1.0  0.11264  0.09512  0.60451  1.0000
  H   H309      1.0  0.15324  0.13624  0.61172  1.0000
  H   H310      1.0  0.07754  0.07966  0.69588  1.0000
  N   N19       1.0  0.08343  0.09709  0.68916  1.0000
  N   N20       1.0  0.12217  0.09160  0.61217  1.0000
  H   H311      1.0  0.13352  0.08602  0.51598  1.0000
  H   H312      1.0  0.27762  0.16504  0.56319  1.0000
  C   C209      1.0  0.12033  0.10351  0.52882  1.0000
  H   H313      1.0  0.10087  0.09863  0.69205  1.0000
  H   H314      1.0  0.10547  0.03591  0.59364  1.0000
  H   H315      1.0  0.31692  0.21043  0.54852  1.0000
  C   C210      1.0  0.11630  0.09394  0.62468  1.0000
  N   N21       1.0  0.17694  0.08116  0.57443  1.0000
  C   C211      1.0  0.18818  0.08498  0.57517  1.0000
  C   C212      1.0  0.16875  0.09192  0.56826  1.0000
  C   C213      1.0  0.17027  0.07651  0.58700  1.0000
  C   C214      1.0  0.18056  0.07123  0.56725  1.0000
  H   H316      1.0  0.19382  0.08780  0.56583  1.0000
  H   H317      1.0  0.19431  0.07739  0.58033  1.0000
  H   H318      1.0  0.18582  0.09296  0.57990  1.0000
  H   H319      1.0  0.16000  0.08949  0.56789  1.0000
  H   H320      1.0  0.16621  0.09980  0.57314  1.0000
  H   H321      1.0  0.17333  0.09538  0.55858  1.0000
  H   H322      1.0  0.17621  0.06833  0.59186  1.0000
  H   H323      1.0  0.16180  0.07345  0.58671  1.0000
  H   H324      1.0  0.16744  0.08376  0.59267  1.0000
  H   H325      1.0  0.17230  0.06819  0.56645  1.0000
  H   H326      1.0  0.18660  0.06288  0.57173  1.0000
  H   H327      1.0  0.18571  0.07434  0.55773  1.0000
  H   H328      1.0  0.10207  0.08792  0.68245  1.0000
  H   H329      1.0  0.25318  0.07873  0.63088  1.0000
  Fe  Fe43      1.0  0.32824  0.13959  0.59499  1.0000
  H   H330      1.0  0.08760  0.11466  0.67890  1.0000
  H   H331      1.0  0.25295  0.15946  0.59105  1.0000
  S   S86       1.0  0.14720  0.99479  0.62100  1.0000
  H   H332      1.0  0.07618  0.09495  0.70872  1.0000
  H   H333      1.0  0.08296  0.08342  0.67944  1.0000
  H   H334      1.0  0.14620  0.11428  0.51220  1.0000
  H   H335      1.0  0.12356  0.09938  0.53769  1.0000
  H   H336      1.0  0.27259  0.07332  0.60067  1.0000
  C   C215      1.0  0.24689  0.06380  0.61950  1.0000
  H   H337      1.0  0.11218  0.10392  0.62452  1.0000
  C   C216      1.0  0.08344  0.10713  0.67805  1.0000
  H   H338      1.0  0.07310  0.17364  0.49390  1.0000
  H   H339      1.0  0.06796  0.09121  0.68642  1.0000
  H   H340      1.0  0.06655  0.10649  0.69929  1.0000
  N   N22       1.0  0.17158  0.07064  0.63681  1.0000
  C   C217      1.0  0.16497  0.07801  0.64631  1.0000
  C   C218      1.0  0.18249  0.07583  0.62941  1.0000
  C   C219      1.0  0.16317  0.07111  0.62867  1.0000
  C   C220      1.0  0.17565  0.05764  0.64290  1.0000
  H   H341      1.0  0.16198  0.08794  0.64212  1.0000
  H   H342      1.0  0.17097  0.07757  0.65281  1.0000
  H   H343      1.0  0.15650  0.07467  0.65195  1.0000
  H   H344      1.0  0.18936  0.07507  0.63513  1.0000
  H   H345      1.0  0.18739  0.07092  0.62175  1.0000
  H   H346      1.0  0.17981  0.08583  0.62525  1.0000
  H   H347      1.0  0.16791  0.06558  0.62141  1.0000
  H   H348      1.0  0.15981  0.08080  0.62406  1.0000
  H   H349      1.0  0.15492  0.06715  0.63400  1.0000
  H   H350      1.0  0.18287  0.05673  0.64826  1.0000
  H   H351      1.0  0.17949  0.05149  0.63610  1.0000
  H   H352      1.0  0.16777  0.05385  0.64943  1.0000
  H   H353      1.0  0.14081  0.15734  0.60720  1.0000
  H   H354      1.0  0.16700  0.15274  0.58071  1.0000
  C   C221      1.0  0.16954  0.15490  0.58864  1.0000
  H   H355      1.0  0.26016  0.13733  0.58947  1.0000
  C   C222      1.0  0.12527  0.01883  0.59933  1.0000
  H   H356      1.0  0.14782  0.16958  0.59683  1.0000
  H   H357      1.0  0.12082  0.07238  0.61699  1.0000
  H   H358      1.0  0.25756  0.14149  0.57397  1.0000
  H   H359      1.0  0.33069  0.19213  0.61678  1.0000
  C   C223      1.0  0.14799  0.15948  0.59872  1.0000
  H   H360      1.0  0.26840  0.15704  0.55848  1.0000
  N   N23       1.0  0.26860  0.15230  0.57790  1.0000
  C   C224      1.0  0.25774  0.16205  0.58125  1.0000
  C   C225      1.0  0.27751  0.15062  0.58590  1.0000
  C   C226      1.0  0.27469  0.15603  0.56486  1.0000
  C   C227      1.0  0.26450  0.14055  0.57964  1.0000
  H   H361      1.0  0.25083  0.16365  0.57536  1.0000
  H   H362      1.0  0.07387  0.11143  0.67653  1.0000
  C   C228      1.0  0.32559  0.19630  0.60949  1.0000
  H   H363      1.0  0.28569  0.14310  0.58392  1.0000
  N   N24       1.0  0.32958  0.19667  0.55855  1.0000
  S   S87       1.0  0.32150  0.22857  0.58434  1.0000
  H   H364      1.0  0.17008  0.16486  0.58623  1.0000
  H   H365      1.0  0.08888  0.10365  0.66960  1.0000
  H   H366      1.0  0.13906  0.12819  0.70946  1.0000
  C   C229      1.0  0.13184  0.09909  0.60659  1.0000
  H   H367      1.0  0.12776  0.10916  0.60565  1.0000
  C   C230      1.0  0.25686  0.07972  0.62076  1.0000
  C   C231      1.0  0.12788  0.07831  0.61294  1.0000
  H   H368      1.0  0.25010  0.08706  0.61608  1.0000
  H   H369      1.0  0.24264  0.06256  0.62953  1.0000
  H   H370      1.0  0.24799  0.05488  0.61665  1.0000
  H   H371      1.0  0.11431  0.01795  0.62326  1.0000
  C   C232      1.0  0.32690  0.20810  0.60245  1.0000
  C   C233      1.0  0.15458  0.13874  0.71580  1.0000
  H   H372      1.0  0.11451  0.09750  0.52773  1.0000
  C   C234      1.0  0.32147  0.16597  0.54509  1.0000
  C   C235      1.0  0.08706  0.19093  0.48927  1.0000
  H   H373      1.0  0.14239  0.08793  0.52608  1.0000
  C   C236      1.0  0.13465  0.13554  0.71494  1.0000
  H   H374      1.0  0.33315  0.21291  0.60421  1.0000
  H   H375      1.0  0.12545  0.13356  0.72026  1.0000
  H   H376      1.0  0.12687  0.02849  0.59651  1.0000
  H   H377      1.0  0.10674  0.02250  0.58747  1.0000
  H   H378      1.0  0.33076  0.15615  0.51099  1.0000
  H   H379      1.0  0.10045  0.00499  0.61216  1.0000
  H   H380      1.0  0.14904  0.11636  0.72711  1.0000
  N   N25       1.0  0.11211  0.01852  0.60499  1.0000
  H   H381      1.0  0.33232  0.20647  0.53968  1.0000
  H   H382      1.0  0.32481  0.21370  0.56521  1.0000
  H   H383      1.0  0.11323  0.00127  0.59982  1.0000
  C   C237      1.0  0.31976  0.19113  0.56779  1.0000
  H   H384      1.0  0.12699  0.14450  0.73561  1.0000
  H   H385      1.0  0.32278  0.18683  0.57670  1.0000
  H   H386      1.0  0.32608  0.14153  0.51596  1.0000
  H   H387      1.0  0.08801  0.16651  0.49777  1.0000
  H   H388      1.0  0.09871  0.02371  0.62082  1.0000
  H   H389      1.0  0.31729  0.18378  0.56461  1.0000
  H   H390      1.0  0.32205  0.19599  0.54333  1.0000
  H   H391      1.0  0.32634  0.12956  0.50043  1.0000
  H   H392      1.0  0.31635  0.15474  0.50828  1.0000
  C   C238      1.0  0.32499  0.20266  0.54704  1.0000
  H   H393      1.0  0.09426  0.02611  0.60010  1.0000
  N   N26       1.0  0.33270  0.14667  0.49635  1.0000
  C   C239      1.0  0.33263  0.15808  0.48666  1.0000
  C   C240      1.0  0.33353  0.14691  0.53890  1.0000
  H   H394      1.0  0.11186  0.14911  0.48629  1.0000
  N   N27       1.0  0.07305  0.22792  0.87081  1.0000
  S   S88       1.0  0.13477  0.02229  0.82303  1.0000
  H   H395      1.0  0.03743  0.20096  0.77486  1.0000
  Fe  Fe44      1.0  0.12582  0.30078  0.87419  1.0000
  S   S89       1.0  0.13222  0.28569  0.88950  1.0000
  C   C241      1.0  0.00939  0.12035  0.86284  1.0000
  Fe  Fe45      1.0  0.09961  0.29596  0.88142  1.0000
  S   S90       1.0  0.10392  0.28076  0.89739  1.0000
  S   S91       1.0  0.08047  0.29952  0.87781  1.0000
  Fe  Fe46      1.0  0.11413  0.29360  0.90108  1.0000
  S   S92       1.0  0.10982  0.29863  0.91994  1.0000
  Fe  Fe47      1.0  0.12128  0.27451  0.88403  1.0000
  S   S93       1.0  0.12846  0.25462  0.88112  1.0000
  S   S94       1.0  0.10839  0.30931  0.88600  1.0000
  S   S95       1.0  0.11631  0.28916  0.86788  1.0000
  H   H396      1.0  0.12450  0.04836  0.81859  1.0000
  H   H397      1.0  0.08659  0.03900  0.86804  1.0000
  Fe  Fe48      1.0  0.09387  0.15791  0.76934  1.0000
  N   N28       1.0  0.04826  0.18321  0.78141  1.0000
  S   S96       1.0  0.08455  0.16961  0.78365  1.0000
  Fe  Fe49      1.0  0.11519  0.13713  0.76240  1.0000
  H   H398      1.0  0.09486  0.10174  0.76894  1.0000
  S   S97       1.0  0.13485  0.12717  0.76282  1.0000
  Fe  Fe50      1.0  0.08866  0.13574  0.76335  1.0000
  S   S98       1.0  0.07484  0.12357  0.76760  1.0000
  H   H399      1.0  0.06360  0.19146  0.78069  1.0000
  S   S99       1.0  0.09814  0.13762  0.77748  1.0000
  Fe  Fe51      1.0  0.02916  0.17277  0.82539  1.0000
  H   H400      1.0  0.07760  0.32033  0.90681  1.0000
  S   S100      1.0  0.04068  0.18746  0.81852  1.0000
  Fe  Fe52      1.0  0.02854  0.14641  0.83919  1.0000
  C   C242      1.0  0.11204  0.31424  0.93358  1.0000
  S   S101      1.0  0.03744  0.13095  0.85250  1.0000
  Fe  Fe53      1.0  0.02255  0.15498  0.81377  1.0000
  S   S102      1.0  0.02342  0.14976  0.79587  1.0000
  Fe  Fe54      1.0  0.10167  0.15351  0.74277  1.0000
  S   S103      1.0  0.03929  0.15436  0.82094  1.0000
  S   S104      1.0  0.01998  0.16473  0.84453  1.0000
  Fe  Fe55      1.0  0.12132  0.08337  0.84628  1.0000
  S   S105      1.0  0.12194  0.09090  0.82609  1.0000
  S   S106      1.0  0.12981  0.06341  0.85332  1.0000
  Fe  Fe56      1.0  0.10994  0.10891  0.85274  1.0000
  S   S107      1.0  0.11024  0.11831  0.83301  1.0000
  S   S108      1.0  0.10105  0.12198  0.86565  1.0000
  Fe  Fe57      1.0  0.10307  0.10208  0.83212  1.0000
  S   S109      1.0  0.08772  0.10578  0.82189  1.0000
  Fe  Fe58      1.0  0.12902  0.10618  0.82931  1.0000
  S   S110      1.0  0.14594  0.11187  0.81646  1.0000
  S   S111      1.0  0.10167  0.09315  0.85217  1.0000
  S   S112      1.0  0.12951  0.09820  0.84918  1.0000
  Fe  Fe59      1.0  0.10772  0.21324  0.84373  1.0000
  S   S113      1.0  0.09428  0.21320  0.83212  1.0000
  S   S114      1.0  0.10666  0.23266  0.84670  1.0000
  Fe  Fe60      1.0  0.11539  0.18492  0.84825  1.0000
  S   S115      1.0  0.10203  0.18296  0.83789  1.0000
  S   S116      1.0  0.12817  0.16696  0.85407  1.0000
  Fe  Fe61      1.0  0.10896  0.19857  0.82388  1.0000
  S   S117      1.0  0.11581  0.19554  0.80433  1.0000
  Fe  Fe62      1.0  0.08874  0.19751  0.84717  1.0000
  S   S118      1.0  0.06907  0.19561  0.85588  1.0000
  S   S119      1.0  0.12303  0.20007  0.83383  1.0000
  S   S120      1.0  0.10138  0.19803  0.85918  1.0000
  C   C243      1.0  0.10865  0.13444  0.86239  1.0000
  C   C244      1.0  0.10195  0.14591  0.86507  1.0000
  C   C245      1.0  0.10787  0.15599  0.86232  1.0000
  C   C246      1.0  0.12062  0.15447  0.85739  1.0000
  C   C247      1.0  0.12735  0.14295  0.85486  1.0000
  C   C248      1.0  0.12132  0.13302  0.85709  1.0000
  H   H401      1.0  0.09219  0.14701  0.86933  1.0000
  H   H402      1.0  0.10264  0.16484  0.86438  1.0000
  H   H403      1.0  0.13724  0.14172  0.85119  1.0000
  H   H404      1.0  0.12656  0.12416  0.85511  1.0000
  C   C249      1.0  0.04841  0.18973  0.82902  1.0000
  C   C250      1.0  0.05884  0.19522  0.82453  1.0000
  C   C251      1.0  0.06531  0.19691  0.83273  1.0000
  C   C252      1.0  0.06117  0.19341  0.84548  1.0000
  C   C253      1.0  0.05068  0.18802  0.84998  1.0000
  C   C254      1.0  0.04437  0.18607  0.84177  1.0000
  H   H405      1.0  0.06199  0.19810  0.81468  1.0000
  H   H406      1.0  0.07338  0.20111  0.82919  1.0000
  H   H407      1.0  0.04744  0.18532  0.85984  1.0000
  H   H408      1.0  0.03626  0.18195  0.84530  1.0000
  C   C255      1.0  0.05109  0.12332  0.84415  1.0000
  C   C256      1.0  0.05200  0.12293  0.83180  1.0000
  C   C257      1.0  0.06323  0.11737  0.82499  1.0000
  C   C258      1.0  0.07359  0.11242  0.83048  1.0000
  C   C259      1.0  0.07266  0.11299  0.84277  1.0000
  C   C260      1.0  0.06138  0.11822  0.84966  1.0000
  H   H409      1.0  0.04403  0.12678  0.82751  1.0000
  H   H410      1.0  0.06389  0.11706  0.81546  1.0000
  H   H411      1.0  0.08061  0.10947  0.84701  1.0000
  H   H412      1.0  0.06074  0.11862  0.85917  1.0000
  C   C261      1.0  0.06070  0.13048  0.77599  1.0000
  C   C262      1.0  0.04955  0.12871  0.77434  1.0000
  C   C263      1.0  0.03817  0.13464  0.78053  1.0000
  C   C264      1.0  0.03788  0.14201  0.78875  1.0000
  C   C265      1.0  0.04905  0.14348  0.79070  1.0000
  C   C266      1.0  0.06046  0.13790  0.78417  1.0000
  H   H413      1.0  0.04970  0.12302  0.76800  1.0000
  H   H414      1.0  0.02957  0.13349  0.77896  1.0000
  H   H415      1.0  0.04892  0.14915  0.79699  1.0000
  H   H416      1.0  0.06906  0.13927  0.78552  1.0000
  C   C267      1.0  0.09362  0.17614  0.78966  1.0000
  C   C268      1.0  0.10575  0.17717  0.78360  1.0000
  C   C269      1.0  0.11247  0.18318  0.78817  1.0000
  C   C270      1.0  0.10719  0.18791  0.79897  1.0000
  C   C271      1.0  0.09520  0.18649  0.80526  1.0000
  C   C272      1.0  0.08838  0.18075  0.80052  1.0000
  H   H417      1.0  0.10981  0.17373  0.77516  1.0000
  H   H418      1.0  0.12171  0.18433  0.78324  1.0000
  H   H419      1.0  0.09104  0.19021  0.81353  1.0000
  H   H420      1.0  0.07894  0.18008  0.80515  1.0000
  C   C273      1.0  0.13788  0.12308  0.77773  1.0000
  C   C274      1.0  0.12822  0.12162  0.78800  1.0000
  C   C275      1.0  0.13073  0.11806  0.79991  1.0000
  C   C276      1.0  0.14287  0.11625  0.80157  1.0000
  C   C277      1.0  0.15255  0.11785  0.79132  1.0000
  C   C278      1.0  0.15007  0.12111  0.77938  1.0000
  H   H421      1.0  0.11886  0.12304  0.78677  1.0000
  H   H422      1.0  0.12321  0.11680  0.80777  1.0000
  H   H423      1.0  0.16195  0.11644  0.79259  1.0000
  H   H424      1.0  0.15756  0.12224  0.77143  1.0000
  C   C279      1.0  0.09586  0.03472  0.87040  1.0000
  C   C280      1.0  0.15026  0.31393  0.87776  1.0000
  H   H425      1.0  0.12104  0.01374  0.86012  1.0000
  H   H426      1.0  0.11613  0.09587  0.79024  1.0000
  N   N29       1.0  0.09771  0.09701  0.78760  1.0000
  H   H427      1.0  0.10139  0.00869  0.85881  1.0000
  H   H428      1.0  0.14737  0.30544  0.88297  1.0000
  C   C281      1.0  0.09617  0.01569  0.86452  1.0000
  H   H429      1.0  0.08369  0.11275  0.79228  1.0000
  H   H430      1.0  0.05141  0.19610  0.76418  1.0000
  C   C282      1.0  0.07173  0.31305  0.88258  1.0000
  C   C283      1.0  0.05971  0.31317  0.88964  1.0000
  C   C284      1.0  0.14701  0.31942  0.86630  1.0000
  H   H431      1.0  0.09607  0.07892  0.79850  1.0000
  H   H432      1.0  0.10036  0.11302  0.77334  1.0000
  H   H433      1.0  0.07813  0.10171  0.78751  1.0000
  H   H434      1.0  0.05586  0.30489  0.89203  1.0000
  H   H435      1.0  0.07209  0.31993  0.94035  1.0000
  H   H436      1.0  0.11057  0.02552  0.84336  1.0000
  C   C285      1.0  0.12188  0.24835  0.87208  1.0000
  C   C286      1.0  0.12614  0.23584  0.87106  1.0000
  C   C287      1.0  0.12149  0.23077  0.86351  1.0000
  C   C288      1.0  0.11267  0.23824  0.85672  1.0000
  C   C289      1.0  0.10841  0.25071  0.85778  1.0000
  C   C290      1.0  0.11288  0.25571  0.86549  1.0000
  H   H437      1.0  0.13309  0.23005  0.87612  1.0000
  H   H438      1.0  0.12487  0.22115  0.86279  1.0000
  H   H439      1.0  0.10157  0.25658  0.85261  1.0000
  H   H440      1.0  0.10941  0.26531  0.86622  1.0000
  H   H441      1.0  0.05894  0.18142  0.79507  1.0000
  H   H442      1.0  0.08179  0.09830  0.80256  1.0000
  H   H443      1.0  0.07074  0.31210  0.92904  1.0000
  C   C291      1.0  0.11749  0.30868  0.92333  1.0000
  C   C292      1.0  0.12879  0.31129  0.91605  1.0000
  H   H444      1.0  0.10349  0.31201  0.93949  1.0000
  C   C293      1.0  0.07630  0.31789  0.93098  1.0000
  C   C294      1.0  0.10486  0.03199  0.84950  1.0000
  H   H445      1.0  0.13321  0.30684  0.90827  1.0000
  H   H446      1.0  0.10468  0.09359  0.80423  1.0000
  C   C295      1.0  0.13419  0.03385  0.83100  1.0000
  C   C296      1.0  0.13909  0.03099  0.84166  1.0000
  C   C297      1.0  0.13785  0.04020  0.84829  1.0000
  C   C298      1.0  0.13161  0.05232  0.84439  1.0000
  C   C299      1.0  0.12690  0.05528  0.83359  1.0000
  C   C300      1.0  0.12830  0.04608  0.82685  1.0000
  H   H447      1.0  0.14394  0.02171  0.84475  1.0000
  H   H448      1.0  0.14164  0.03789  0.85656  1.0000
  H   H449      1.0  0.12198  0.06456  0.83054  1.0000
  N   N30       1.0  0.13064  0.15352  0.81516  1.0000
  C   C301      1.0  0.12032  0.15901  0.82423  1.0000
  C   C302      1.0  0.12560  0.14885  0.80690  1.0000
  C   C303      1.0  0.13888  0.14318  0.82177  1.0000
  C   C304      1.0  0.13775  0.16309  0.80780  1.0000
  H   H450      1.0  0.11386  0.16677  0.81953  1.0000
  H   H451      1.0  0.12384  0.16287  0.83041  1.0000
  H   H452      1.0  0.11491  0.15203  0.83024  1.0000
  H   H453      1.0  0.13316  0.14471  0.79988  1.0000
  H   H454      1.0  0.12028  0.14153  0.81217  1.0000
  H   H455      1.0  0.11926  0.15642  0.80184  1.0000
  H   H456      1.0  0.14672  0.13869  0.81522  1.0000
  H   H457      1.0  0.13378  0.13586  0.82756  1.0000
  H   H458      1.0  0.14289  0.14644  0.82801  1.0000
  H   H459      1.0  0.13180  0.17102  0.80267  1.0000
  H   H460      1.0  0.14571  0.15930  0.80091  1.0000
  H   H461      1.0  0.14146  0.16700  0.81379  1.0000
  N   N31       1.0  0.15081  0.27252  0.84942  1.0000
  C   C305      1.0  0.14798  0.28596  0.84422  1.0000
  C   C306      1.0  0.15140  0.27058  0.86256  1.0000
  C   C307      1.0  0.16289  0.26683  0.84256  1.0000
  C   C308      1.0  0.14098  0.26666  0.84841  1.0000
  H   H462      1.0  0.14752  0.28782  0.83429  1.0000
  H   H463      1.0  0.15506  0.29074  0.84507  1.0000
  H   H464      1.0  0.13889  0.29055  0.84914  1.0000
  H   H465      1.0  0.15859  0.27498  0.86377  1.0000
  H   H466      1.0  0.14238  0.27464  0.86798  1.0000
  H   H467      1.0  0.15342  0.26054  0.86686  1.0000
  H   H468      1.0  0.16528  0.25669  0.84631  1.0000
  H   H469      1.0  0.17052  0.27102  0.84316  1.0000
  H   H470      1.0  0.16277  0.26808  0.83261  1.0000
  H   H471      1.0  0.14271  0.25655  0.85247  1.0000
  H   H472      1.0  0.14024  0.26784  0.83864  1.0000
  H   H473      1.0  0.13173  0.27072  0.85350  1.0000
  N   N32       1.0  0.16278  0.07302  0.82817  1.0000
  C   C309      1.0  0.16637  0.05967  0.83342  1.0000
  C   C310      1.0  0.15840  0.07999  0.83828  1.0000
  C   C311      1.0  0.15272  0.07494  0.82146  1.0000
  C   C312      1.0  0.17356  0.07752  0.81955  1.0000
  H   H474      1.0  0.15835  0.05611  0.84001  1.0000
  H   H475      1.0  0.17396  0.05784  0.83855  1.0000
  H   H476      1.0  0.16957  0.05408  0.82608  1.0000
  H   H477      1.0  0.15546  0.09009  0.83467  1.0000
  H   H478      1.0  0.15031  0.07677  0.84501  1.0000
  H   H479      1.0  0.16577  0.07884  0.84351  1.0000
  H   H480      1.0  0.14442  0.07173  0.82774  1.0000
  H   H481      1.0  0.15562  0.06974  0.81383  1.0000
  H   H482      1.0  0.14978  0.08492  0.81735  1.0000
  H   H483      1.0  0.17102  0.08760  0.81549  1.0000
  H   H484      1.0  0.17709  0.07251  0.81176  1.0000
  H   H485      1.0  0.18135  0.07627  0.82430  1.0000
  H   H486      1.0  0.08574  0.31208  0.93131  1.0000
  H   H487      1.0  0.08690  0.01937  0.86201  1.0000
  H   H488      1.0  0.03821  0.18911  0.76668  1.0000
  H   H489      1.0  0.06439  0.17536  0.76917  1.0000
  H   H490      1.0  0.10837  0.07904  0.78501  1.0000
  C   C313      1.0  0.06295  0.23795  0.87497  1.0000
  H   H491      1.0  0.06085  0.23675  0.88521  1.0000
  H   H492      1.0  0.05426  0.23818  0.87205  1.0000
  H   H493      1.0  0.06552  0.24718  0.87104  1.0000
  H   H494      1.0  0.08298  0.22634  0.88507  1.0000
  H   H495      1.0  0.08746  0.23700  0.87098  1.0000
  S   S121      1.0  0.13808  0.31274  0.86025  1.0000
  S   S122      1.0  0.11179  0.15765  0.75535  1.0000
  C   C314      1.0  0.11523  0.02030  0.86609  1.0000
  C   C315      1.0  0.08479  0.10265  0.79271  1.0000
  H   H496      1.0  0.05127  0.16809  0.77214  1.0000
  H   H497      1.0  0.07675  0.20807  0.87322  1.0000
  H   H498      1.0  0.06035  0.16530  0.78367  1.0000
  H   H499      1.0  0.10472  0.10881  0.79502  1.0000
  C   C316      1.0  0.09871  0.08361  0.78869  1.0000
  S   S123      1.0  0.14476  0.99609  0.85092  1.0000
  S   S124      1.0  0.12074  0.99398  0.84071  1.0000
  H   H500      1.0  0.03215  0.17487  0.78667  1.0000
  C   C317      1.0  0.03767  0.17907  0.79068  1.0000
  C   C318      1.0  0.05538  0.18841  0.78733  1.0000
  N   N33       1.0  0.10302  0.02567  0.86263  1.0000
  S   S125      1.0  0.10616  0.13295  0.74913  1.0000
  N   N34       1.0  0.07405  0.15274  0.83789  1.0000
  C   C319      1.0  0.06046  0.15542  0.84246  1.0000
  C   C320      1.0  0.07882  0.16427  0.83519  1.0000
  C   C321      1.0  0.07686  0.14776  0.82651  1.0000
  C   C322      1.0  0.08002  0.14352  0.84743  1.0000
  H   H501      1.0  0.05656  0.14688  0.84486  1.0000
  H   H502      1.0  0.05564  0.16215  0.83539  1.0000
  H   H503      1.0  0.05795  0.15946  0.85089  1.0000
  H   H504      1.0  0.07684  0.16829  0.84359  1.0000
  H   H505      1.0  0.08903  0.16265  0.83167  1.0000
  H   H506      1.0  0.07445  0.17145  0.82809  1.0000
  H   H507      1.0  0.08704  0.14537  0.82291  1.0000
  H   H508      1.0  0.07267  0.15459  0.81905  1.0000
  H   H509      1.0  0.07312  0.13920  0.82819  1.0000
  H   H510      1.0  0.07788  0.14687  0.85622  1.0000
  H   H511      1.0  0.09030  0.14139  0.84443  1.0000
  H   H512      1.0  0.07681  0.13462  0.84962  1.0000
  H   H513      1.0  0.04955  0.19648  0.79130  1.0000
  H   H514      1.0  0.12048  0.02761  0.86518  1.0000
  H   H515      1.0  0.00931  0.11056  0.86303  1.0000
  H   H516      1.0  0.01566  0.12030  0.86893  1.0000
  H   H517      1.0  0.01377  0.12438  0.85328  1.0000
  H   H518      1.0  0.16003  0.31497  0.89122  1.0000
  H   H519      1.0  0.11423  0.01504  0.87581  1.0000
  H   H520      1.0  0.11084  0.09897  0.77027  1.0000
  H   H521      1.0  0.06729  0.22976  0.85375  1.0000
  C   C323      1.0  0.04361  0.19279  0.77132  1.0000
  H   H522      1.0  0.09435  0.03026  0.88038  1.0000
  Fe  Fe63      1.0  0.13775  0.00230  0.83322  1.0000
  H   H523      1.0  0.10974  0.03976  0.84785  1.0000
  C   C324      1.0  0.13453  0.31947  0.91901  1.0000
  H   H524      1.0  0.09242  0.32067  0.90929  1.0000
  H   H525      1.0  0.09587  0.03593  0.84644  1.0000
  H   H526      1.0  0.09473  0.01062  0.87432  1.0000
  H   H527      1.0  0.07849  0.23894  0.85278  1.0000
  C   C325      1.0  0.08441  0.22798  0.87484  1.0000
  H   H528      1.0  0.06725  0.21398  0.88642  1.0000
  C   C326      1.0  0.06931  0.21584  0.87616  1.0000
  H   H529      1.0  0.04094  0.17196  0.79843  1.0000
  H   H530      1.0  0.08321  0.22260  0.85382  1.0000
  H   H531      1.0  0.06093  0.21536  0.87307  1.0000
  H   H532      1.0  0.09233  0.22071  0.87162  1.0000
  C   C327      1.0  0.07555  0.22994  0.85720  1.0000
  H   H533      1.0  0.09245  0.08192  0.78348  1.0000
  C   C328      1.0  0.05639  0.17253  0.77634  1.0000
  S   S126      1.0  0.01267  0.14513  0.83169  1.0000
  H   H534      1.0  0.10082  0.04238  0.86916  1.0000
  C   C329      1.0  0.10622  0.09888  0.79454  1.0000
  H   H535      1.0  0.03134  0.18687  0.79476  1.0000
  S   S127      1.0  0.01289  0.17399  0.81705  1.0000
  S   S128      1.0  0.08323  0.15604  0.75596  1.0000
  C   C330      1.0  0.10113  0.10290  0.77446  1.0000
  C   C331      1.0  0.15745  0.31934  0.88241  1.0000
  H   H536      1.0  0.00327  0.14055  0.87293  1.0000
  Fe  Fe64      1.0  0.00456  0.16408  0.83581  1.0000
  H   H537      1.0  0.14335  0.32129  0.91344  1.0000
  H   H538      1.0  0.00160  0.14504  0.85721  1.0000
  C   C332      1.0  0.11750  0.32277  0.93626  1.0000
  H   H539      1.0  0.16409  0.32212  0.92749  1.0000
  H   H540      1.0  0.17830  0.32315  0.90658  1.0000
  H   H541      1.0  0.08601  0.32362  0.87390  1.0000
  C   C333      1.0  0.07677  0.32369  0.87950  1.0000
  C   C334      1.0  0.05278  0.32388  0.89385  1.0000
  H   H542      1.0  0.04356  0.32391  0.89947  1.0000
  H   H543      1.0  0.15036  0.12425  0.73838  1.0000
  H   H544      1.0  0.13550  0.12204  0.73785  1.0000
  H   H545      1.0  0.17626  0.32459  0.93352  1.0000
  C   C335      1.0  0.12881  0.32536  0.92904  1.0000
  H   H546      1.0  0.14166  0.14667  0.73673  1.0000
  H   H547      1.0  0.19019  0.32567  0.91295  1.0000
  H   H548      1.0  0.10430  0.39538  0.00062  1.0000
  Fe  Fe65      1.0  0.14398  0.48056  0.07366  1.0000
  S   S129      1.0  0.15407  0.49464  0.07499  1.0000
  S   S130      1.0  0.15031  0.47128  0.05727  1.0000
  Fe  Fe66      1.0  0.12882  0.48031  0.09937  1.0000
  S   S131      1.0  0.13764  0.49401  0.10321  1.0000
  S   S132      1.0  0.11437  0.47131  0.11324  1.0000
  Fe  Fe67      1.0  0.13547  0.50426  0.08415  1.0000
  S   S133      1.0  0.12995  0.52517  0.07945  1.0000
  Fe  Fe68      1.0  0.15542  0.48332  0.09387  1.0000
  S   S134      1.0  0.17286  0.48097  0.10082  1.0000
  S   S135      1.0  0.12518  0.49126  0.08091  1.0000
  S   S136      1.0  0.14679  0.46850  0.09194  1.0000
  Fe  Fe69      1.0  0.20732  0.41570  0.10302  1.0000
  S   S137      1.0  0.19341  0.40833  0.09774  1.0000
  S   S138      1.0  0.20321  0.42704  0.11748  1.0000
  Fe  Fe70      1.0  0.22888  0.40539  0.08428  1.0000
  S   S139      1.0  0.21699  0.39707  0.07691  1.0000
  S   S140      1.0  0.24903  0.40606  0.07588  1.0000
  Fe  Fe71      1.0  0.20298  0.41471  0.07830  1.0000
  S   S141      1.0  0.19051  0.42545  0.06523  1.0000
  Fe  Fe72      1.0  0.20825  0.39122  0.09684  1.0000
  S   S142      1.0  0.20447  0.37201  0.10370  1.0000
  S   S143      1.0  0.21561  0.42377  0.08365  1.0000
  S   S144      1.0  0.22141  0.39790  0.10415  1.0000
  Fe  Fe73      1.0  0.15129  0.39876  0.04041  1.0000
  S   S145      1.0  0.14157  0.38327  0.04242  1.0000
  S   S146      1.0  0.17211  0.39442  0.03729  1.0000
  Fe  Fe74      1.0  0.12759  0.41690  0.04766  1.0000
  S   S147      1.0  0.11583  0.40288  0.05043  1.0000
  S   S148      1.0  0.11792  0.43530  0.05294  1.0000
  Fe  Fe75      1.0  0.13045  0.38959  0.05976  1.0000
  S   S149      1.0  0.12764  0.37607  0.07784  1.0000
  Fe  Fe76      1.0  0.12782  0.39782  0.03268  1.0000
  S   S150      1.0  0.11747  0.39619  0.01853  1.0000
  S   S151      1.0  0.14118  0.40391  0.05850  1.0000
  S   S152      1.0  0.13857  0.41301  0.02919  1.0000
  Fe  Fe77      1.0  0.13356  0.40859  0.14853  1.0000
  S   S153      1.0  0.11317  0.40885  0.15290  1.0000
  S   S154      1.0  0.14214  0.42492  0.14625  1.0000
  Fe  Fe78      1.0  0.14046  0.38156  0.14723  1.0000
  S   S155      1.0  0.12058  0.37944  0.15153  1.0000
  S   S156      1.0  0.15637  0.36544  0.14498  1.0000
  Fe  Fe79      1.0  0.11777  0.39765  0.13816  1.0000
  S   S157      1.0  0.10720  0.40384  0.12273  1.0000
  Fe  Fe80      1.0  0.11794  0.39084  0.16586  1.0000
  S   S158      1.0  0.10550  0.38805  0.18482  1.0000
  S   S159      1.0  0.13781  0.39888  0.13281  1.0000
  S   S160      1.0  0.13810  0.39141  0.16261  1.0000
  H   H549      1.0  0.02948  0.60879  0.18418  1.0000
  S   S161      1.0  0.01542  0.63517  0.12150  1.0000
  Fe  Fe81      1.0  0.01315  0.64606  0.15167  1.0000
  S   S162      1.0  0.02975  0.63295  0.14389  1.0000
  C   C336      1.0  0.02078  0.63528  0.18740  1.0000
  Fe  Fe82      1.0  0.02766  0.64550  0.12574  1.0000
  Fe  Fe83      1.0  0.01574  0.62405  0.14066  1.0000
  S   S163      1.0  0.01737  0.60352  0.14461  1.0000
  H   H550      1.0  0.12153  0.42137  0.16905  1.0000
  H   H551      1.0  0.08700  0.61738  0.14053  1.0000
  Fe  Fe84      1.0  0.09221  0.62975  0.19694  1.0000
  S   S164      1.0  0.08227  0.61715  0.21249  1.0000
  S   S165      1.0  0.10677  0.62210  0.18186  1.0000
  H   H552      1.0  0.09056  0.62683  0.12549  1.0000
  S   S166      1.0  0.06507  0.64178  0.22200  1.0000
  H   H553      1.0  0.08489  0.38524  0.05063  1.0000
  Fe  Fe85      1.0  0.08351  0.62943  0.22461  1.0000
  C   C337      1.0  0.13489  0.59931  0.22079  1.0000
  Fe  Fe86      1.0  0.06503  0.63076  0.20819  1.0000
  S   S167      1.0  0.04859  0.62397  0.20641  1.0000
  S   S168      1.0  0.09499  0.64097  0.20926  1.0000
  S   S169      1.0  0.07499  0.64265  0.19199  1.0000
  Fe  Fe87      1.0  0.09154  0.58909  0.13819  1.0000
  S   S170      1.0  0.11088  0.58966  0.12719  1.0000
  S   S171      1.0  0.08267  0.59266  0.15728  1.0000
  Fe  Fe88      1.0  0.08296  0.58337  0.11748  1.0000
  S   S172      1.0  0.10140  0.58353  0.10451  1.0000
  S   S173      1.0  0.06694  0.57806  0.11333  1.0000
  Fe  Fe89      1.0  0.10939  0.57282  0.12107  1.0000
  S   S174      1.0  0.12373  0.55497  0.12118  1.0000
  Fe  Fe90      1.0  0.10126  0.60031  0.11161  1.0000
  S   S175      1.0  0.10472  0.61824  0.09884  1.0000
  S   S176      1.0  0.09086  0.57136  0.13352  1.0000
  S   S177      1.0  0.08203  0.60103  0.12312  1.0000
  H   H554      1.0  0.28313  0.36547  0.05024  1.0000
  Fe  Fe91      1.0  0.31210  0.38355  0.09352  1.0000
  S   S178      1.0  0.31958  0.36584  0.08650  1.0000
  S   S179      1.0  0.29273  0.38580  0.10548  1.0000
  H   H555      1.0  0.10008  0.41974  0.17821  1.0000
  H   H556      1.0  0.19408  0.46077  0.07707  1.0000
  C   C338      1.0  0.11150  0.37775  0.99504  1.0000
  H   H557      1.0  0.12703  0.43498  0.16840  1.0000
  H   H558      1.0  0.18182  0.47403  0.07480  1.0000
  H   H559      1.0  0.12165  0.61567  0.23502  1.0000
  C   C339      1.0  0.33297  0.35373  0.02815  1.0000
  C   C340      1.0  0.11048  0.62775  0.10501  1.0000
  C   C341      1.0  0.11834  0.62262  0.11343  1.0000
  C   C342      1.0  0.12278  0.63038  0.11833  1.0000
  C   C343      1.0  0.11913  0.64327  0.11507  1.0000
  C   C344      1.0  0.11121  0.64841  0.10669  1.0000
  C   C345      1.0  0.10701  0.64065  0.10157  1.0000
  H   H560      1.0  0.12117  0.61267  0.11601  1.0000
  H   H561      1.0  0.12894  0.62637  0.12477  1.0000
  H   H562      1.0  0.04075  0.65237  0.16734  1.0000
  H   H563      1.0  0.10090  0.64463  0.09507  1.0000
  C   C346      1.0  0.09087  0.37494  0.23484  1.0000
  H   H564      1.0  0.18841  0.41538  0.13973  1.0000
  C   C347      1.0  0.32825  0.36712  0.04287  1.0000
  C   C348      1.0  0.10048  0.61348  0.17510  1.0000
  C   C349      1.0  0.08868  0.61090  0.18043  1.0000
  C   C350      1.0  0.08357  0.60409  0.17511  1.0000
  C   C351      1.0  0.09003  0.60017  0.16415  1.0000
  C   C352      1.0  0.10182  0.60280  0.15870  1.0000
  C   C353      1.0  0.10709  0.60938  0.16424  1.0000
  H   H565      1.0  0.08341  0.61413  0.18868  1.0000
  H   H566      1.0  0.07451  0.60201  0.17947  1.0000
  H   H567      1.0  0.10689  0.59977  0.15026  1.0000
  H   H568      1.0  0.11621  0.61141  0.16003  1.0000
  C   C354      1.0  0.02521  0.64379  0.17707  1.0000
  H   H569      1.0  0.12757  0.62392  0.21985  1.0000
  C   C355      1.0  0.04462  0.63979  0.18423  1.0000
  C   C356      1.0  0.03996  0.63160  0.19481  1.0000
  C   C357      1.0  0.02816  0.62915  0.19616  1.0000
  H   H570      1.0  0.12775  0.61630  0.20128  1.0000
  C   C358      1.0  0.10000  0.35587  0.22757  1.0000
  C   C359      1.0  0.03725  0.64586  0.17536  1.0000
  H   H571      1.0  0.10541  0.37960  0.98861  1.0000
  H   H572      1.0  0.14222  0.60459  0.21543  1.0000
  C   C360      1.0  0.03102  0.59662  0.13563  1.0000
  C   C361      1.0  0.03979  0.60364  0.12854  1.0000
  C   C362      1.0  0.05088  0.59794  0.12170  1.0000
  C   C363      1.0  0.05302  0.58531  0.12165  1.0000
  C   C364      1.0  0.04405  0.57838  0.12841  1.0000
  C   C365      1.0  0.03313  0.58400  0.13554  1.0000
  H   H573      1.0  0.03816  0.61343  0.12841  1.0000
  H   H574      1.0  0.05770  0.60337  0.11628  1.0000
  H   H575      1.0  0.04571  0.56861  0.12840  1.0000
  H   H576      1.0  0.02634  0.57856  0.14101  1.0000
  C   C366      1.0  0.10760  0.39536  0.19577  1.0000
  C   C367      1.0  0.11865  0.39927  0.19448  1.0000
  C   C368      1.0  0.12004  0.40514  0.20334  1.0000
  C   C369      1.0  0.11046  0.40701  0.21359  1.0000
  C   C370      1.0  0.09946  0.40296  0.21498  1.0000
  C   C371      1.0  0.09800  0.39727  0.20600  1.0000
  H   H577      1.0  0.12613  0.39776  0.18669  1.0000
  H   H578      1.0  0.26417  0.37815  0.07752  1.0000
  H   H579      1.0  0.09192  0.40464  0.22271  1.0000
  H   H580      1.0  0.08933  0.39452  0.20685  1.0000
  C   C372      1.0  0.12192  0.38368  0.09038  1.0000
  C   C373      1.0  0.11404  0.39533  0.08901  1.0000
  C   C374      1.0  0.10925  0.40122  0.09913  1.0000
  C   C375      1.0  0.11287  0.39584  0.11046  1.0000
  C   C376      1.0  0.12096  0.38429  0.11178  1.0000
  C   C377      1.0  0.12522  0.37808  0.10184  1.0000
  H   H581      1.0  0.11134  0.39967  0.08025  1.0000
  H   H582      1.0  0.10276  0.41000  0.09811  1.0000
  H   H583      1.0  0.12367  0.37999  0.12056  1.0000
  H   H584      1.0  0.13113  0.36896  0.10302  1.0000
  C   C378      1.0  0.19076  0.37044  0.11473  1.0000
  C   C379      1.0  0.18057  0.38034  0.11563  1.0000
  C   C380      1.0  0.16979  0.37883  0.12468  1.0000
  C   C381      1.0  0.16925  0.36747  0.13292  1.0000
  C   C382      1.0  0.17935  0.35755  0.13184  1.0000
  C   C383      1.0  0.19004  0.35900  0.12272  1.0000
  H   H585      1.0  0.18089  0.38906  0.10925  1.0000
  H   H586      1.0  0.16200  0.38647  0.12533  1.0000
  H   H587      1.0  0.17896  0.34872  0.13814  1.0000
  H   H588      1.0  0.19784  0.35128  0.12199  1.0000
  C   C384      1.0  0.18557  0.41665  0.05753  1.0000
  C   C385      1.0  0.19277  0.40526  0.05514  1.0000
  C   C386      1.0  0.18876  0.39859  0.04862  1.0000
  C   C387      1.0  0.17740  0.40314  0.04478  1.0000
  C   C388      1.0  0.17015  0.41445  0.04731  1.0000
  C   C389      1.0  0.17429  0.42125  0.05356  1.0000
  H   H589      1.0  0.20157  0.40174  0.05802  1.0000
  H   H590      1.0  0.19442  0.38987  0.04661  1.0000
  H   H591      1.0  0.16146  0.41807  0.04422  1.0000
  H   H592      1.0  0.16869  0.43006  0.05537  1.0000
  C   C390      1.0  0.26072  0.40070  0.08467  1.0000
  C   C391      1.0  0.25893  0.39298  0.09637  1.0000
  C   C392      1.0  0.26871  0.38865  0.10285  1.0000
  C   C393      1.0  0.28034  0.39186  0.09759  1.0000
  C   C394      1.0  0.28199  0.39971  0.08598  1.0000
  C   C395      1.0  0.27225  0.40406  0.07954  1.0000
  H   H593      1.0  0.25012  0.39018  0.10035  1.0000
  H   H594      1.0  0.26737  0.38257  0.11184  1.0000
  H   H595      1.0  0.29075  0.40251  0.08195  1.0000
  H   H596      1.0  0.27371  0.41002  0.07049  1.0000
  C   C396      1.0  0.18064  0.46574  0.10569  1.0000
  C   C397      1.0  0.17912  0.45576  0.10155  1.0000
  C   C398      1.0  0.18616  0.44382  0.10498  1.0000
  C   C399      1.0  0.19433  0.44182  0.11296  1.0000
  C   C400      1.0  0.19560  0.45175  0.11732  1.0000
  C   C401      1.0  0.18894  0.46370  0.11353  1.0000
  H   H597      1.0  0.17269  0.45725  0.09556  1.0000
  H   H598      1.0  0.18510  0.43616  0.10162  1.0000
  H   H599      1.0  0.20186  0.45024  0.12351  1.0000
  H   H600      1.0  0.19013  0.47138  0.11678  1.0000
  C   C402      1.0  0.12193  0.45887  0.12292  1.0000
  C   C403      1.0  0.11631  0.44873  0.12854  1.0000
  C   C404      1.0  0.12273  0.43818  0.13533  1.0000
  C   C405      1.0  0.13447  0.43798  0.13718  1.0000
  C   C406      1.0  0.13998  0.44828  0.13186  1.0000
  C   C407      1.0  0.13380  0.45866  0.12453  1.0000
  H   H601      1.0  0.10711  0.44893  0.12738  1.0000
  H   H602      1.0  0.11852  0.43027  0.13912  1.0000
  H   H603      1.0  0.14910  0.44818  0.13320  1.0000
  H   H604      1.0  0.13816  0.46653  0.12022  1.0000
  C   C408      1.0  0.14125  0.46134  0.05610  1.0000
  C   C409      1.0  0.14690  0.45137  0.05013  1.0000
  C   C410      1.0  0.13985  0.44328  0.04914  1.0000
  C   C411      1.0  0.12704  0.44537  0.05377  1.0000
  C   C412      1.0  0.12136  0.45551  0.05950  1.0000
  C   C413      1.0  0.12847  0.46336  0.06084  1.0000
  H   H605      1.0  0.15676  0.44990  0.04625  1.0000
  H   H606      1.0  0.14426  0.43558  0.04457  1.0000
  H   H607      1.0  0.11142  0.45725  0.06297  1.0000
  H   H608      1.0  0.12401  0.47116  0.06525  1.0000
  C   C414      1.0  0.12775  0.53345  0.09118  1.0000
  C   C415      1.0  0.12513  0.52778  0.10366  1.0000
  C   C416      1.0  0.12375  0.53449  0.11284  1.0000
  C   C417      1.0  0.12468  0.54699  0.10960  1.0000
  C   C418      1.0  0.12713  0.55272  0.09712  1.0000
  C   C419      1.0  0.12863  0.54596  0.08794  1.0000
  H   H609      1.0  0.12406  0.51825  0.10626  1.0000
  H   H610      1.0  0.12187  0.53003  0.12249  1.0000
  H   H611      1.0  0.12801  0.56233  0.09456  1.0000
  H   H612      1.0  0.13062  0.55042  0.07830  1.0000
  C   C420      1.0  0.11991  0.36643  0.99660  1.0000
  C   C421      1.0  0.12754  0.36408  0.00525  1.0000
  C   C422      1.0  0.12704  0.37308  0.01199  1.0000
  C   C423      1.0  0.11874  0.38448  0.01028  1.0000
  C   C424      1.0  0.11090  0.38668  0.00188  1.0000
  H   H613      1.0  0.12156  0.36328  0.22533  1.0000
  H   H614      1.0  0.13403  0.35532  0.00657  1.0000
  H   H615      1.0  0.13313  0.37122  0.01843  1.0000
  C   C425      1.0  0.11281  0.37040  0.22598  1.0000
  H   H616      1.0  0.09735  0.64727  0.13381  1.0000
  H   H617      1.0  0.23668  0.43640  0.12026  1.0000
  H   H618      1.0  0.15141  0.51939  0.09158  1.0000
  H   H619      1.0  0.24489  0.44679  0.10827  1.0000
  H   H620      1.0  0.15614  0.51128  0.12380  1.0000
  H   H621      1.0  0.16673  0.52206  0.08454  1.0000
  H   H622      1.0  0.16430  0.50660  0.09135  1.0000
  H   H623      1.0  0.14518  0.51359  0.11421  1.0000
  N   N35       1.0  0.12151  0.43493  0.09541  1.0000
  C   C426      1.0  0.12481  0.44729  0.09161  1.0000
  C   C427      1.0  0.10858  0.43604  0.10250  1.0000
  C   C428      1.0  0.12998  0.42644  0.10320  1.0000
  C   C429      1.0  0.12260  0.42998  0.08432  1.0000
  H   H624      1.0  0.11825  0.45406  0.08619  1.0000
  H   H625      1.0  0.13431  0.44697  0.08577  1.0000
  H   H626      1.0  0.12451  0.45111  0.09975  1.0000
  H   H627      1.0  0.10193  0.44242  0.09693  1.0000
  H   H628      1.0  0.10574  0.42692  0.10550  1.0000
  H   H629      1.0  0.10743  0.43967  0.11096  1.0000
  H   H630      1.0  0.12756  0.41709  0.10640  1.0000
  H   H631      1.0  0.12944  0.42995  0.11161  1.0000
  H   H632      1.0  0.13979  0.42529  0.09807  1.0000
  H   H633      1.0  0.11553  0.43554  0.07883  1.0000
  H   H634      1.0  0.12115  0.42030  0.08678  1.0000
  H   H635      1.0  0.13189  0.43002  0.07811  1.0000
  C   C430      1.0  0.28915  0.37225  0.07516  1.0000
  H   H636      1.0  0.26397  0.37548  0.06280  1.0000
  H   H637      1.0  0.29140  0.38151  0.07062  1.0000
  H   H638      1.0  0.28429  0.37265  0.08486  1.0000
  H   H639      1.0  0.29817  0.36560  0.07547  1.0000
  H   H640      1.0  0.11271  0.45209  0.17811  1.0000
  N   N36       1.0  0.08829  0.55093  0.09535  1.0000
  C   C431      1.0  0.08447  0.56237  0.08646  1.0000
  C   C432      1.0  0.07720  0.54611  0.10280  1.0000
  C   C433      1.0  0.09484  0.55373  0.10363  1.0000
  C   C434      1.0  0.09668  0.54155  0.08854  1.0000
  H   H641      1.0  0.09263  0.56629  0.08077  1.0000
  H   H642      1.0  0.07819  0.56968  0.09127  1.0000
  H   H643      1.0  0.07947  0.56063  0.08007  1.0000
  H   H644      1.0  0.07979  0.53756  0.10968  1.0000
  H   H645      1.0  0.07069  0.55304  0.10801  1.0000
  H   H646      1.0  0.07200  0.54387  0.09689  1.0000
  H   H647      1.0  0.10273  0.55818  0.09829  1.0000
  H   H648      1.0  0.09851  0.54524  0.11003  1.0000
  H   H649      1.0  0.08863  0.56023  0.10944  1.0000
  H   H650      1.0  0.10008  0.53289  0.09493  1.0000
  H   H651      1.0  0.10503  0.54501  0.08263  1.0000
  H   H652      1.0  0.09200  0.53899  0.08238  1.0000
  H   H653      1.0  0.01158  0.59499  0.12290  1.0000
  S   S180      1.0  0.31717  0.37546  0.05302  1.0000
  S   S181      1.0  0.01497  0.65331  0.16759  1.0000
  C   C435      1.0  0.32430  0.36050  0.03634  1.0000
  H   H654      1.0  0.06932  0.63973  0.12885  1.0000
  H   H655      1.0  0.13621  0.59631  0.23052  1.0000
  N   N37       1.0  0.08270  0.63698  0.14012  1.0000
  C   C436      1.0  0.08760  0.64810  0.13301  1.0000
  S   S182      1.0  0.33014  0.38324  0.09856  1.0000
  C   C437      1.0  0.08294  0.63545  0.15330  1.0000
  C   C438      1.0  0.09048  0.62595  0.13544  1.0000
  S   S183      1.0  0.04425  0.65166  0.11247  1.0000
  H   H656      1.0  0.08832  0.37945  0.22577  1.0000
  H   H657      1.0  0.10027  0.62450  0.13642  1.0000
  S   S184      1.0  0.31636  0.39609  0.07512  1.0000
  Fe  Fe92      1.0  0.32446  0.37844  0.06828  1.0000
  H   H658      1.0  0.13648  0.59084  0.21698  1.0000
  H   H659      1.0  0.06591  0.63008  0.14381  1.0000
  H   H660      1.0  0.11145  0.37459  0.21638  1.0000
  H   H661      1.0  0.11420  0.59082  0.22428  1.0000
  H   H662      1.0  0.12347  0.42462  0.18292  1.0000
  H   H663      1.0  0.08199  0.65660  0.13633  1.0000
  H   H664      1.0  0.08915  0.43238  0.18411  1.0000
  N   N38       1.0  0.24495  0.42969  0.10345  1.0000
  C   C439      1.0  0.25664  0.42313  0.10761  1.0000
  C   C440      1.0  0.23652  0.42098  0.10609  1.0000
  C   C441      1.0  0.24770  0.43473  0.09001  1.0000
  C   C442      1.0  0.23887  0.43992  0.11009  1.0000
  H   H665      1.0  0.26320  0.42945  0.10588  1.0000
  H   H666      1.0  0.26152  0.41545  0.10265  1.0000
  H   H667      1.0  0.25491  0.41896  0.11765  1.0000
  H   H668      1.0  0.22762  0.42568  0.10312  1.0000
  H   H669      1.0  0.24066  0.41325  0.10110  1.0000
  H   H670      1.0  0.23421  0.41690  0.11612  1.0000
  H   H671      1.0  0.23906  0.43956  0.08653  1.0000
  H   H672      1.0  0.25229  0.42722  0.08475  1.0000
  H   H673      1.0  0.25401  0.44139  0.08763  1.0000
  H   H674      1.0  0.22992  0.44493  0.10727  1.0000
  C   C443      1.0  0.16130  0.51640  0.09245  1.0000
  N   N39       1.0  0.12235  0.60692  0.22013  1.0000
  H   H675      1.0  0.10336  0.60486  0.22656  1.0000
  C   C444      1.0  0.05033  0.59206  0.17885  1.0000
  N   N40       1.0  0.28159  0.36859  0.06843  1.0000
  C   C445      1.0  0.27890  0.35626  0.07480  1.0000
  H   H676      1.0  0.27317  0.35320  0.06999  1.0000
  C   C446      1.0  0.15518  0.51045  0.11462  1.0000
  H   H677      1.0  0.09628  0.38736  0.05790  1.0000
  C   C447      1.0  0.26980  0.37775  0.06807  1.0000
  C   C448      1.0  0.06981  0.63840  0.13873  1.0000
  N   N41       1.0  0.16293  0.51777  0.10443  1.0000
  H   H678      1.0  0.18226  0.51843  0.09773  1.0000
  H   H679      1.0  0.27370  0.35634  0.08447  1.0000
  H   H680      1.0  0.11056  0.44818  0.15820  1.0000
  H   H681      1.0  0.19690  0.47387  0.06489  1.0000
  H   H682      1.0  0.15777  0.50043  0.11421  1.0000
  C   C449      1.0  0.28854  0.36810  0.05569  1.0000
  H   H683      1.0  0.27148  0.38725  0.06363  1.0000
  C   C450      1.0  0.12043  0.42894  0.17402  1.0000
  H   H684      1.0  0.11427  0.37785  0.22985  1.0000
  H   H685      1.0  0.09679  0.45102  0.18481  1.0000
  C   C451      1.0  0.18994  0.46806  0.06988  1.0000
  H   H686      1.0  0.29748  0.36126  0.05565  1.0000
  H   H687      1.0  0.17284  0.47897  0.05611  1.0000
  H   H688      1.0  0.18789  0.47802  0.04607  1.0000
  H   H689      1.0  0.16833  0.46100  0.07299  1.0000
  C   C452      1.0  0.17611  0.51321  0.10535  1.0000
  H   H690      1.0  0.14937  0.53477  0.10426  1.0000
  H   H691      1.0  0.09453  0.44774  0.16499  1.0000
  H   H692      1.0  0.08749  0.64959  0.12302  1.0000
  H   H693      1.0  0.16511  0.36341  0.09546  1.0000
  H   H694      1.0  0.19448  0.44988  0.04903  1.0000
  H   H695      1.0  0.15980  0.53237  0.11441  1.0000
  H   H696      1.0  0.10897  0.44124  0.19228  1.0000
  H   H697      1.0  0.29090  0.37724  0.05072  1.0000
  N   N42       1.0  0.18619  0.46254  0.06136  1.0000
  C   C453      1.0  0.18093  0.47249  0.05185  1.0000
  H   H698      1.0  0.18036  0.44754  0.07564  1.0000
  H   H699      1.0  0.09807  0.36026  0.21817  1.0000
  H   H700      1.0  0.18521  0.36729  0.08221  1.0000
  H   H701      1.0  0.16528  0.39713  0.08856  1.0000
  C   C454      1.0  0.17673  0.45516  0.06839  1.0000
  C   C455      1.0  0.15915  0.53098  0.10531  1.0000
  H   H702      1.0  0.16762  0.41656  0.15342  1.0000
  H   H703      1.0  0.04630  0.62187  0.16298  1.0000
  H   H704      1.0  0.17751  0.46863  0.04559  1.0000
  H   H705      1.0  0.20439  0.45965  0.04973  1.0000
  H   H706      1.0  0.17769  0.51417  0.11425  1.0000
  H   H707      1.0  0.07734  0.64369  0.15709  1.0000
  C   C456      1.0  0.16475  0.37621  0.07223  1.0000
  N   N43       1.0  0.04485  0.60279  0.17014  1.0000
  C   C457      1.0  0.19711  0.45442  0.05530  1.0000
  H   H708      1.0  0.17364  0.45085  0.06225  1.0000
  H   H709      1.0  0.20135  0.44683  0.06221  1.0000
  H   H710      1.0  0.17919  0.50323  0.10481  1.0000
  H   H711      1.0  0.15454  0.37816  0.07273  1.0000
  H   H712      1.0  0.18395  0.38047  0.08863  1.0000
  H   H713      1.0  0.16498  0.53676  0.09796  1.0000
  H   H714      1.0  0.01395  0.61054  0.11764  1.0000
  H   H715      1.0  0.16819  0.36609  0.07264  1.0000
  C   C458      1.0  0.16303  0.39372  0.08124  1.0000
  H   H716      1.0  0.33351  0.34055  0.09843  1.0000
  H   H717      1.0  0.02653  0.59866  0.17592  1.0000
  H   H718      1.0  0.17681  0.40393  0.12486  1.0000
  H   H719      1.0  0.16989  0.38502  0.14825  1.0000
  C   C459      1.0  0.09953  0.36732  0.03920  1.0000
  H   H720      1.0  0.12856  0.40826  0.20226  1.0000
  H   H721      1.0  0.17372  0.40243  0.16324  1.0000
  H   H722      1.0  0.06364  0.64656  0.14227  1.0000
  C   C460      1.0  0.09503  0.38416  0.04994  1.0000
  H   H723      1.0  0.09194  0.35167  0.23305  1.0000
  C   C461      1.0  0.18944  0.40515  0.14129  1.0000
  H   H724      1.0  0.06080  0.61127  0.16438  1.0000
  H   H725      1.0  0.01142  0.63382  0.18892  1.0000
  H   H726      1.0  0.19548  0.40216  0.13279  1.0000
  C   C462      1.0  0.03136  0.60633  0.17496  1.0000
  H   H727      1.0  0.31454  0.36055  0.03762  1.0000
  H   H728      1.0  0.19445  0.40090  0.14901  1.0000
  C   C463      1.0  0.17115  0.40720  0.13333  1.0000
  C   C464      1.0  0.17893  0.38799  0.14641  1.0000
  H   H729      1.0  0.10095  0.42328  0.19235  1.0000
  N   N44       1.0  0.16773  0.38023  0.08228  1.0000
  S   S185      1.0  0.11193  0.41561  0.22373  1.0000
  H   H730      1.0  0.28761  0.34913  0.07523  1.0000
  H   H731      1.0  0.01294  0.60204  0.10678  1.0000
  H   H732      1.0  0.10263  0.37356  0.03032  1.0000
  H   H733      1.0  0.32990  0.34853  0.02318  1.0000
  H   H734      1.0  0.05700  0.59647  0.15415  1.0000
  C   C465      1.0  0.05079  0.61334  0.16877  1.0000
  H   H735      1.0  0.09259  0.63415  0.15467  1.0000
  H   H736      1.0  0.18504  0.38415  0.13839  1.0000
  H   H737      1.0  0.02694  0.61450  0.16871  1.0000
  H   H738      1.0  0.18324  0.38349  0.15457  1.0000
  H   H739      1.0  0.16971  0.41751  0.13129  1.0000
  N   N45       1.0  0.17722  0.40164  0.14402  1.0000
  H   H740      1.0  0.16186  0.40483  0.13510  1.0000
  C   C466      1.0  0.00907  0.60380  0.11628  1.0000
  H   H741      1.0  0.11152  0.61636  0.20637  1.0000
  H   H742      1.0  0.04312  0.60735  0.15115  1.0000
  H   H743      1.0  0.04905  0.59431  0.18809  1.0000
  H   H744      1.0  0.16901  0.38109  0.06297  1.0000
  H   H745      1.0  0.16375  0.37644  0.10215  1.0000
  C   C467      1.0  0.18134  0.37741  0.08129  1.0000
  H   H746      1.0  0.16012  0.40364  0.15739  1.0000
  C   C468      1.0  0.09905  0.42749  0.18294  1.0000
  H   H747      1.0  0.08680  0.36359  0.06281  1.0000
  C   C469      1.0  0.10644  0.44553  0.18310  1.0000
  H   H748      1.0  0.16721  0.39897  0.07216  1.0000
  H   H749      1.0  0.18614  0.38214  0.07224  1.0000
  H   H750      1.0  0.15150  0.37553  0.09533  1.0000
  C   C470      1.0  0.16177  0.37362  0.09433  1.0000
  C   C471      1.0  0.16936  0.40625  0.15503  1.0000
  H   H751      1.0  0.04235  0.59166  0.15861  1.0000
  H   H752      1.0  0.15277  0.39615  0.08206  1.0000
  H   H753      1.0  0.12199  0.60251  0.20296  1.0000
  C   C472      1.0  0.12090  0.61065  0.20714  1.0000
  C   C473      1.0  0.12070  0.61810  0.22518  1.0000
  H   H754      1.0  0.10444  0.43503  0.15850  1.0000
  H   H755      1.0  0.08952  0.36755  0.03998  1.0000
  C   C474      1.0  0.10410  0.44202  0.16390  1.0000
  H   H756      1.0  0.09854  0.39060  0.04136  1.0000
  H   H757      1.0  0.10475  0.35776  0.03846  1.0000
  H   H758      1.0  0.05017  0.61551  0.17790  1.0000
  N   N46       1.0  0.10164  0.37121  0.04978  1.0000
  H   H759      1.0  0.11702  0.37327  0.05632  1.0000
  H   H760      1.0  0.09860  0.36569  0.06956  1.0000
  C   C475      1.0  0.04693  0.59942  0.15800  1.0000
  H   H761      1.0  0.02452  0.62281  0.20429  1.0000
  N   N47       1.0  0.10750  0.43599  0.17599  1.0000
  C   C476      1.0  0.11508  0.37033  0.04853  1.0000
  C   C477      1.0  0.09696  0.36306  0.06144  1.0000
  H   H762      1.0  0.10169  0.35320  0.06157  1.0000
  H   H763      1.0  0.11891  0.37633  0.03980  1.0000
  H   H764      1.0  0.12040  0.36070  0.04838  1.0000
  H   H765      1.0  0.04605  0.58394  0.18013  1.0000
  H   H766      1.0  0.10839  0.65833  0.10407  1.0000
  H   H767      1.0  0.06049  0.58913  0.17544  1.0000
  H   H768      1.0  0.07918  0.62724  0.15898  1.0000
  Fe  Fe93      1.0  0.07656  0.65257  0.20595  1.0000
  N   N48       1.0  0.10209  0.36501  0.23359  1.0000
  H   H769      1.0  0.05382  0.64149  0.18294  1.0000
  H   H770      1.0  0.11131  0.62398  0.22490  1.0000
  H   H771      1.0  0.10828  0.34823  0.22649  1.0000
  C   C478      1.0  0.11290  0.59962  0.22743  1.0000
  S   S186      1.0  0.12458  0.65273  0.12158  1.0000
  S   S187      1.0  0.12133  0.35510  0.98785  1.0000
  Fe  Fe94      1.0  0.14648  0.53011  0.38028  1.0000
  S   S188      1.0  0.16343  0.52049  0.36847  1.0000
  S   S189      1.0  0.14572  0.53372  0.39896  1.0000
  Fe  Fe95      1.0  0.13241  0.53934  0.35967  1.0000
  S   S190      1.0  0.14817  0.53110  0.34601  1.0000
  S   S191      1.0  0.11425  0.55078  0.35548  1.0000
  Fe  Fe96      1.0  0.14951  0.51425  0.36136  1.0000
  S   S192      1.0  0.15198  0.49597  0.35523  1.0000
  Fe  Fe97      1.0  0.16050  0.53803  0.35419  1.0000
  S   S193      1.0  0.17369  0.55035  0.34208  1.0000
  S   S194      1.0  0.13292  0.52231  0.37460  1.0000
  S   S195      1.0  0.14446  0.54779  0.36637  1.0000
  Fe  Fe98      1.0  0.21441  0.58737  0.35946  1.0000
  S   S196      1.0  0.19831  0.60332  0.36110  1.0000
  S   S197      1.0  0.21072  0.56782  0.36455  1.0000
  Fe  Fe99      1.0  0.23368  0.60400  0.35386  1.0000
  S   S198      1.0  0.21893  0.62122  0.35437  1.0000
  S   S199      1.0  0.25408  0.60367  0.35311  1.0000
  Fe  Fe100     1.0  0.20903  0.60999  0.37110  1.0000
  S   S200      1.0  0.19994  0.61966  0.38680  1.0000
  Fe  Fe101     1.0  0.20939  0.61327  0.34410  1.0000
  S   S201      1.0  0.19781  0.62691  0.33127  1.0000
  S   S202      1.0  0.22414  0.59310  0.37139  1.0000
  S   S203      1.0  0.22519  0.59687  0.34170  1.0000
  Fe  Fe102     1.0  0.14726  0.61302  0.30329  1.0000
  S   S204      1.0  0.13382  0.63143  0.30245  1.0000
  S   S205      1.0  0.16734  0.60576  0.30490  1.0000
  Fe  Fe103     1.0  0.12785  0.59938  0.30272  1.0000
  S   S206      1.0  0.11253  0.61609  0.30254  1.0000
  S   S207      1.0  0.12678  0.58056  0.30124  1.0000
  Fe  Fe104     1.0  0.12665  0.62558  0.28845  1.0000
  S   S208      1.0  0.12084  0.63820  0.27112  1.0000
  Fe  Fe105     1.0  0.12067  0.62057  0.31650  1.0000
  S   S209      1.0  0.10816  0.62669  0.33358  1.0000
  S   S210      1.0  0.14151  0.60845  0.28781  1.0000
  S   S211      1.0  0.13444  0.60265  0.31823  1.0000
  Fe  Fe106     1.0  0.11802  0.59849  0.40947  1.0000
  S   S212      1.0  0.11072  0.61908  0.40517  1.0000
  S   S213      1.0  0.10873  0.58444  0.40670  1.0000
  Fe  Fe107     1.0  0.14192  0.60142  0.41431  1.0000
  S   S214      1.0  0.13714  0.62216  0.40990  1.0000
  S   S215      1.0  0.15950  0.59026  0.42011  1.0000
  Fe  Fe108     1.0  0.11843  0.61959  0.42146  1.0000
  S   S216      1.0  0.10848  0.62910  0.43762  1.0000
  Fe  Fe109     1.0  0.13002  0.61982  0.39407  1.0000
  S   S217      1.0  0.13609  0.62933  0.37422  1.0000
  S   S218      1.0  0.12375  0.59883  0.42671  1.0000
  S   S219      1.0  0.13676  0.59929  0.39748  1.0000
  H   H772      1.0  0.13307  0.40116  0.31984  1.0000
  H   H773      1.0  0.19127  0.63088  0.35798  1.0000
  Fe  Fe110     1.0  0.30891  0.63601  0.39221  1.0000
  S   S220      1.0  0.30835  0.62882  0.37582  1.0000
  S   S221      1.0  0.31501  0.62508  0.40972  1.0000
  C   C479      1.0  0.31956  0.65310  0.42975  1.0000
  Fe  Fe111     1.0  0.29183  0.64445  0.37361  1.0000
  S   S222      1.0  0.27368  0.64433  0.36849  1.0000
  Fe  Fe112     1.0  0.31949  0.64321  0.36503  1.0000
  H   H774      1.0  0.23664  0.62909  0.38110  1.0000
  H   H775      1.0  0.06953  0.37217  0.39062  1.0000
  H   H776      1.0  0.16947  0.63461  0.34460  1.0000
  Fe  Fe113     1.0  0.02858  0.38891  0.34184  1.0000
  H   H777      1.0  0.17690  0.62072  0.35340  1.0000
  S   S223      1.0  0.03803  0.37486  0.35583  1.0000
  Fe  Fe114     1.0  0.02718  0.41496  0.32735  1.0000
  S   S224      1.0  0.01288  0.41354  0.31763  1.0000
  S   S225      1.0  0.03693  0.43099  0.32162  1.0000
  H   H778      1.0  0.11292  0.57188  0.36871  1.0000
  Fe  Fe115     1.0  0.02473  0.39496  0.31557  1.0000
  S   S226      1.0  0.02702  0.38848  0.29800  1.0000
  S   S227      1.0  0.01712  0.40699  0.34615  1.0000
  S   S228      1.0  0.03970  0.39708  0.32385  1.0000
  C   C480      1.0  0.17038  0.62903  0.37504  1.0000
  S   S229      1.0  0.11107  0.41560  0.25816  1.0000
  Fe  Fe116     1.0  0.09237  0.39012  0.26364  1.0000
  S   S230      1.0  0.09712  0.39508  0.27934  1.0000
  S   S231      1.0  0.08106  0.37592  0.26587  1.0000
  Fe  Fe117     1.0  0.09193  0.41458  0.26927  1.0000
  S   S232      1.0  0.07993  0.42694  0.28198  1.0000
  Fe  Fe118     1.0  0.11583  0.39559  0.26708  1.0000
  S   S233      1.0  0.13364  0.38921  0.27394  1.0000
  S   S234      1.0  0.08554  0.40963  0.25442  1.0000
  S   S235      1.0  0.11172  0.38862  0.25220  1.0000
  Fe  Fe119     1.0  0.10260  0.35150  0.34858  1.0000
  S   S236      1.0  0.10229  0.35306  0.32876  1.0000
  S   S237      1.0  0.09509  0.36934  0.35552  1.0000
  H   H779      1.0  0.11155  0.60318  0.37402  1.0000
  C   C481      1.0  0.04920  0.37696  0.38112  1.0000
  Fe  Fe120     1.0  0.00396  0.40361  0.33616  1.0000
  H   H780      1.0  0.10712  0.60496  0.35378  1.0000
  Fe  Fe121     1.0  0.10860  0.45258  0.34822  1.0000
  S   S238      1.0  0.09280  0.45656  0.33816  1.0000
  S   S239      1.0  0.11017  0.46571  0.35974  1.0000
  Fe  Fe122     1.0  0.11787  0.42645  0.34275  1.0000
  S   S240      1.0  0.10328  0.42856  0.33213  1.0000
  S   S241      1.0  0.13036  0.40764  0.34447  1.0000
  Fe  Fe123     1.0  0.10725  0.44746  0.32389  1.0000
  S   S242      1.0  0.11049  0.45294  0.30324  1.0000
  Fe  Fe124     1.0  0.09028  0.43711  0.34731  1.0000
  S   S243      1.0  0.07347  0.42851  0.35611  1.0000
  S   S244      1.0  0.12320  0.44472  0.33321  1.0000
  S   S245      1.0  0.10472  0.43383  0.35862  1.0000
  C   C482      1.0  0.10529  0.37956  0.35260  1.0000
  C   C483      1.0  0.11789  0.37635  0.34728  1.0000
  C   C484      1.0  0.12572  0.38483  0.34507  1.0000
  C   C485      1.0  0.12089  0.39662  0.34792  1.0000
  C   C486      1.0  0.10827  0.39980  0.35313  1.0000
  C   C487      1.0  0.10055  0.39128  0.35557  1.0000
  H   H781      1.0  0.12164  0.36731  0.34496  1.0000
  H   H782      1.0  0.13547  0.38230  0.34103  1.0000
  H   H783      1.0  0.10443  0.40881  0.35545  1.0000
  H   H784      1.0  0.09084  0.39389  0.35969  1.0000
  C   C488      1.0  0.08849  0.43418  0.28777  1.0000
  C   C489      1.0  0.08434  0.43634  0.29981  1.0000
  C   C490      1.0  0.09109  0.44209  0.30459  1.0000
  C   C491      1.0  0.10185  0.44594  0.29726  1.0000
  C   C492      1.0  0.10597  0.44383  0.28520  1.0000
  C   C493      1.0  0.09936  0.43784  0.28050  1.0000
  H   H785      1.0  0.07589  0.43361  0.30543  1.0000
  H   H786      1.0  0.08779  0.44387  0.31384  1.0000
  H   H787      1.0  0.11426  0.44685  0.27949  1.0000
  H   H788      1.0  0.10249  0.43641  0.27113  1.0000
  C   C494      1.0  0.13467  0.37527  0.28488  1.0000
  C   C495      1.0  0.12422  0.37004  0.29056  1.0000
  C   C496      1.0  0.12520  0.35914  0.29966  1.0000
  C   C497      1.0  0.13666  0.35340  0.30296  1.0000
  C   C498      1.0  0.14713  0.35852  0.29712  1.0000
  C   C499      1.0  0.14611  0.36951  0.28818  1.0000
  H   H789      1.0  0.11541  0.37431  0.28792  1.0000
  H   H790      1.0  0.05074  0.36801  0.37816  1.0000
  C   C500      1.0  0.14545  0.58896  0.45187  1.0000
  H   H791      1.0  0.15422  0.37349  0.28376  1.0000
  C   C501      1.0  0.04227  0.38481  0.28961  1.0000
  C   C502      1.0  0.05197  0.38931  0.29131  1.0000
  C   C503      1.0  0.06390  0.38679  0.28392  1.0000
  C   C504      1.0  0.06623  0.37938  0.27515  1.0000
  C   C505      1.0  0.05658  0.37470  0.27367  1.0000
  C   C506      1.0  0.04460  0.37756  0.28073  1.0000
  H   H792      1.0  0.05023  0.39484  0.29817  1.0000
  H   H793      1.0  0.07134  0.39039  0.28513  1.0000
  H   H794      1.0  0.05832  0.36897  0.26693  1.0000
  H   H795      1.0  0.03715  0.37406  0.27938  1.0000
  C   C507      1.0  0.04740  0.43000  0.33097  1.0000
  C   C508      1.0  0.05605  0.43777  0.32716  1.0000
  C   C509      1.0  0.06430  0.43721  0.33470  1.0000
  C   C510      1.0  0.06372  0.42907  0.34617  1.0000
  C   C511      1.0  0.05514  0.42126  0.34990  1.0000
  C   C512      1.0  0.04712  0.42157  0.34225  1.0000
  H   H796      1.0  0.05627  0.44436  0.31847  1.0000
  H   H797      1.0  0.07081  0.44337  0.33183  1.0000
  H   H798      1.0  0.05460  0.41508  0.35879  1.0000
  H   H799      1.0  0.04045  0.41560  0.34528  1.0000
  C   C513      1.0  0.04755  0.36291  0.34868  1.0000
  C   C514      1.0  0.05461  0.35294  0.35549  1.0000
  C   C515      1.0  0.06306  0.34391  0.34960  1.0000
  C   C516      1.0  0.06465  0.34496  0.33687  1.0000
  C   C517      1.0  0.05716  0.35459  0.33014  1.0000
  C   C518      1.0  0.04854  0.36354  0.33608  1.0000
  H   H800      1.0  0.05366  0.35223  0.36529  1.0000
  H   H801      1.0  0.06838  0.33614  0.35493  1.0000
  C   C519      1.0  0.24595  0.60458  0.38821  1.0000
  H   H802      1.0  0.04284  0.37098  0.33083  1.0000
  H   H803      1.0  0.16050  0.62597  0.35771  1.0000
  H   H804      1.0  0.12475  0.60717  0.45158  1.0000
  C   C520      1.0  0.32366  0.64042  0.43409  1.0000
  C   C521      1.0  0.31686  0.63570  0.41756  1.0000
  H   H805      1.0  0.14040  0.58907  0.44467  1.0000
  H   H806      1.0  0.07943  0.37879  0.37692  1.0000
  C   C522      1.0  0.16192  0.64796  0.36206  1.0000
  H   H807      1.0  0.05435  0.39140  0.35875  1.0000
  H   H808      1.0  0.18571  0.64491  0.36375  1.0000
  C   C523      1.0  0.14062  0.40371  0.29524  1.0000
  C   C524      1.0  0.11613  0.63576  0.44521  1.0000
  C   C525      1.0  0.11075  0.63743  0.45735  1.0000
  C   C526      1.0  0.11671  0.64250  0.46374  1.0000
  H   H809      1.0  0.29166  0.65867  0.32620  1.0000
  N   N49       1.0  0.08941  0.65126  0.29511  1.0000
  C   C527      1.0  0.12743  0.63938  0.43946  1.0000
  H   H810      1.0  0.10205  0.63457  0.46190  1.0000
  H   H811      1.0  0.09666  0.35481  0.25204  1.0000
  H   H812      1.0  0.28091  0.63653  0.34043  1.0000
  H   H813      1.0  0.13160  0.63827  0.43008  1.0000
  C   C528      1.0  0.11228  0.63297  0.26314  1.0000
  C   C529      1.0  0.10905  0.62134  0.26737  1.0000
  C   C530      1.0  0.10182  0.61759  0.26119  1.0000
  C   C531      1.0  0.09782  0.62535  0.25066  1.0000
  C   C532      1.0  0.10832  0.64075  0.25258  1.0000
  H   H814      1.0  0.11207  0.61522  0.27545  1.0000
  H   H815      1.0  0.09933  0.60859  0.26460  1.0000
  C   C533      1.0  0.11586  0.62784  0.34473  1.0000
  C   C534      1.0  0.10943  0.62770  0.35699  1.0000
  C   C535      1.0  0.11561  0.62788  0.36616  1.0000
  C   C536      1.0  0.12815  0.62867  0.36302  1.0000
  C   C537      1.0  0.13446  0.62916  0.35068  1.0000
  C   C538      1.0  0.12842  0.62851  0.34162  1.0000
  H   H816      1.0  0.09969  0.62728  0.35946  1.0000
  H   H817      1.0  0.11060  0.62770  0.37560  1.0000
  H   H818      1.0  0.14408  0.62994  0.34805  1.0000
  H   H819      1.0  0.13346  0.62867  0.33219  1.0000
  C   C539      1.0  0.18944  0.61119  0.39710  1.0000
  C   C540      1.0  0.19126  0.59843  0.39787  1.0000
  C   C541      1.0  0.18235  0.59184  0.40561  1.0000
  C   C542      1.0  0.17139  0.59814  0.41201  1.0000
  C   C543      1.0  0.16966  0.61088  0.41132  1.0000
  C   C544      1.0  0.17882  0.61735  0.40407  1.0000
  H   H820      1.0  0.19949  0.59363  0.39250  1.0000
  H   H821      1.0  0.18376  0.58197  0.40633  1.0000
  H   H822      1.0  0.16128  0.61577  0.41634  1.0000
  H   H823      1.0  0.17744  0.62722  0.40350  1.0000
  C   C545      1.0  0.18864  0.62078  0.32493  1.0000
  C   C546      1.0  0.19125  0.60818  0.32467  1.0000
  C   C547      1.0  0.18441  0.60363  0.31878  1.0000
  C   C548      1.0  0.17466  0.61157  0.31347  1.0000
  C   C549      1.0  0.17164  0.62407  0.31426  1.0000
  C   C550      1.0  0.17875  0.62870  0.31981  1.0000
  H   H824      1.0  0.19888  0.60202  0.32856  1.0000
  H   H825      1.0  0.18685  0.59397  0.31815  1.0000
  H   H826      1.0  0.17209  0.63411  0.38137  1.0000
  H   H827      1.0  0.17674  0.63847  0.31992  1.0000
  C   C551      1.0  0.25941  0.61500  0.35747  1.0000
  C   C552      1.0  0.25218  0.62685  0.35795  1.0000
  C   C553      1.0  0.25669  0.63562  0.36147  1.0000
  C   C554      1.0  0.26839  0.63263  0.36469  1.0000
  C   C555      1.0  0.27560  0.62073  0.36433  1.0000
  C   C556      1.0  0.27118  0.61202  0.36058  1.0000
  H   H828      1.0  0.24319  0.62934  0.35543  1.0000
  H   H829      1.0  0.00835  0.37392  0.31320  1.0000
  H   H830      1.0  0.28458  0.61822  0.36687  1.0000
  H   H831      1.0  0.27682  0.60286  0.36026  1.0000
  C   C557      1.0  0.18400  0.55518  0.34832  1.0000
  C   C558      1.0  0.18699  0.56695  0.34341  1.0000
  C   C559      1.0  0.19527  0.57094  0.34816  1.0000
  C   C560      1.0  0.20088  0.56304  0.35766  1.0000
  C   C561      1.0  0.19814  0.55116  0.36229  1.0000
  C   C562      1.0  0.18959  0.54732  0.35782  1.0000
  H   H832      1.0  0.18276  0.57310  0.33602  1.0000
  H   H833      1.0  0.19733  0.58010  0.34447  1.0000
  H   H834      1.0  0.20258  0.54491  0.36949  1.0000
  H   H835      1.0  0.18755  0.53815  0.36150  1.0000
  C   C563      1.0  0.13511  0.54753  0.40154  1.0000
  C   C564      1.0  0.13707  0.55447  0.40916  1.0000
  C   C565      1.0  0.12911  0.56589  0.41066  1.0000
  C   C566      1.0  0.11885  0.57017  0.40496  1.0000
  C   C567      1.0  0.11669  0.56305  0.39765  1.0000
  C   C568      1.0  0.12493  0.55189  0.39574  1.0000
  H   H836      1.0  0.14483  0.55107  0.41379  1.0000
  H   H837      1.0  0.13074  0.57127  0.41644  1.0000
  H   H838      1.0  0.10867  0.56621  0.39338  1.0000
  H   H839      1.0  0.12324  0.54652  0.38999  1.0000
  C   C569      1.0  0.11674  0.55878  0.34015  1.0000
  C   C570      1.0  0.11106  0.57125  0.33720  1.0000
  C   C571      1.0  0.11409  0.57806  0.32517  1.0000
  C   C572      1.0  0.12221  0.57214  0.31600  1.0000
  C   C573      1.0  0.12729  0.55951  0.31880  1.0000
  C   C574      1.0  0.12478  0.55290  0.33093  1.0000
  H   H840      1.0  0.10459  0.57570  0.34426  1.0000
  H   H841      1.0  0.11005  0.58783  0.32294  1.0000
  H   H842      1.0  0.13346  0.55493  0.31166  1.0000
  H   H843      1.0  0.12903  0.54326  0.33304  1.0000
  C   C575      1.0  0.14020  0.48772  0.35651  1.0000
  C   C576      1.0  0.12947  0.48848  0.36579  1.0000
  C   C577      1.0  0.12039  0.48171  0.36657  1.0000
  C   C578      1.0  0.12183  0.47422  0.35803  1.0000
  C   C579      1.0  0.13255  0.47346  0.34873  1.0000
  C   C580      1.0  0.14172  0.48009  0.34806  1.0000
  H   H844      1.0  0.12827  0.49415  0.37248  1.0000
  H   H845      1.0  0.11220  0.48226  0.37389  1.0000
  H   H846      1.0  0.13380  0.46777  0.34206  1.0000
  H   H847      1.0  0.15001  0.47942  0.34086  1.0000
  N   N50       1.0  0.08001  0.39398  0.32172  1.0000
  C   C581      1.0  0.07284  0.40215  0.31254  1.0000
  C   C582      1.0  0.08210  0.40149  0.32954  1.0000
  C   C583      1.0  0.09211  0.38781  0.31528  1.0000
  C   C584      1.0  0.07301  0.38447  0.32953  1.0000
  H   H848      1.0  0.07800  0.40926  0.30632  1.0000
  H   H849      1.0  0.06382  0.40724  0.31712  1.0000
  H   H850      1.0  0.07085  0.39678  0.30663  1.0000
  H   H851      1.0  0.08724  0.40886  0.32396  1.0000
  H   H852      1.0  0.07318  0.40623  0.33460  1.0000
  H   H853      1.0  0.08755  0.39566  0.33654  1.0000
  H   H854      1.0  0.09088  0.38182  0.30950  1.0000
  H   H855      1.0  0.09785  0.38179  0.32197  1.0000
  H   H856      1.0  0.09753  0.39468  0.30907  1.0000
  H   H857      1.0  0.07822  0.37808  0.33649  1.0000
  H   H858      1.0  0.07122  0.37863  0.32392  1.0000
  H   H859      1.0  0.06382  0.38874  0.33458  1.0000
  H   H860      1.0  0.21680  0.61039  0.40562  1.0000
  H   H861      1.0  0.09624  0.63549  0.28645  1.0000
  C   C585      1.0  0.07109  0.37450  0.38036  1.0000
  C   C586      1.0  0.23847  0.61693  0.40393  1.0000
  H   H862      1.0  0.12623  0.59982  0.46716  1.0000
  C   C587      1.0  0.07821  0.65629  0.30365  1.0000
  H   H863      1.0  0.14726  0.61937  0.44456  1.0000
  C   C588      1.0  0.18390  0.63941  0.35786  1.0000
  H   H864      1.0  0.00121  0.39683  0.30796  1.0000
  H   H865      1.0  0.05639  0.39323  0.39031  1.0000
  S   S246      1.0  0.08894  0.61999  0.24315  1.0000
  H   H866      1.0  0.25108  0.64483  0.36160  1.0000
  H   H867      1.0  0.22877  0.59668  0.40772  1.0000
  N   N51       1.0  0.12852  0.40948  0.30202  1.0000
  S   S247      1.0  0.13805  0.33987  0.31442  1.0000
  C   C589      1.0  0.22988  0.62293  0.38555  1.0000
  H   H868      1.0  0.31782  0.64180  0.32349  1.0000
  H   H869      1.0  0.15237  0.64602  0.36518  1.0000
  C   C590      1.0  0.31310  0.64837  0.41315  1.0000
  N   N52       1.0  0.10831  0.51906  0.34666  1.0000
  C   C591      1.0  0.10718  0.50857  0.34189  1.0000
  C   C592      1.0  0.10158  0.53078  0.34017  1.0000
  C   C593      1.0  0.12155  0.51960  0.34454  1.0000
  C   C594      1.0  0.10298  0.51736  0.36006  1.0000
  H   H870      1.0  0.09732  0.50774  0.34348  1.0000
  H   H871      1.0  0.11229  0.49961  0.34649  1.0000
  H   H872      1.0  0.11109  0.50960  0.33180  1.0000
  H   H873      1.0  0.09156  0.53068  0.34146  1.0000
  H   H874      1.0  0.10213  0.53886  0.34368  1.0000
  H   H875      1.0  0.10553  0.53253  0.33007  1.0000
  H   H876      1.0  0.12272  0.52701  0.34860  1.0000
  H   H877      1.0  0.12585  0.52136  0.33453  1.0000
  H   H878      1.0  0.12703  0.51082  0.34893  1.0000
  H   H879      1.0  0.09299  0.51689  0.36205  1.0000
  H   H880      1.0  0.10373  0.52517  0.36390  1.0000
  H   H881      1.0  0.10791  0.50867  0.36525  1.0000
  C   C595      1.0  0.12153  0.57566  0.36463  1.0000
  H   H882      1.0  0.12058  0.41577  0.28577  1.0000
  H   H883      1.0  0.11801  0.40093  0.29458  1.0000
  H   H884      1.0  0.11679  0.40599  0.32004  1.0000
  N   N53       1.0  0.13744  0.43503  0.37195  1.0000
  C   C596      1.0  0.12481  0.43364  0.37887  1.0000
  C   C597      1.0  0.13778  0.43735  0.35857  1.0000
  C   C598      1.0  0.14645  0.42354  0.37544  1.0000
  C   C599      1.0  0.14069  0.44558  0.37490  1.0000
  H   H885      1.0  0.12412  0.43207  0.38901  1.0000
  H   H886      1.0  0.12208  0.42570  0.37695  1.0000
  H   H887      1.0  0.11776  0.44211  0.37629  1.0000
  H   H888      1.0  0.13529  0.42960  0.35601  1.0000
  H   H889      1.0  0.13113  0.44597  0.35564  1.0000
  H   H890      1.0  0.14715  0.43848  0.35300  1.0000
  H   H891      1.0  0.15608  0.42433  0.37043  1.0000
  H   H892      1.0  0.14430  0.41545  0.37317  1.0000
  H   H893      1.0  0.14635  0.42139  0.38552  1.0000
  H   H894      1.0  0.14993  0.44730  0.36943  1.0000
  H   H895      1.0  0.14091  0.44400  0.38486  1.0000
  H   H896      1.0  0.13379  0.45429  0.37278  1.0000
  N   N54       1.0  0.04302  0.42920  0.28499  1.0000
  C   C600      1.0  0.05082  0.43597  0.27433  1.0000
  C   C601      1.0  0.05073  0.42178  0.29396  1.0000
  C   C602      1.0  0.03764  0.42087  0.28074  1.0000
  C   C603      1.0  0.03294  0.43817  0.29097  1.0000
  H   H897      1.0  0.04535  0.44172  0.26734  1.0000
  H   H898      1.0  0.05861  0.42947  0.26968  1.0000
  H   H899      1.0  0.05513  0.44221  0.27729  1.0000
  H   H900      1.0  0.04514  0.41660  0.30211  1.0000
  H   H901      1.0  0.05852  0.41501  0.28974  1.0000
  H   H902      1.0  0.05486  0.42779  0.29746  1.0000
  H   H903      1.0  0.03187  0.41548  0.28861  1.0000
  H   H904      1.0  0.04504  0.41404  0.27613  1.0000
  H   H905      1.0  0.03165  0.42615  0.27404  1.0000
  H   H906      1.0  0.02699  0.44408  0.28447  1.0000
  H   H907      1.0  0.03674  0.44438  0.29454  1.0000
  H   H908      1.0  0.02687  0.43337  0.29905  1.0000
  C   C604      1.0  0.22534  0.60480  0.40081  1.0000
  H   H909      1.0  0.14715  0.59470  0.47276  1.0000
  H   H910      1.0  0.15601  0.35408  0.29961  1.0000
  N   N55       1.0  0.23491  0.61230  0.39463  1.0000
  Fe  Fe125     1.0  0.12034  0.33935  0.32847  1.0000
  H   H911      1.0  0.11078  0.64976  0.24922  1.0000
  H   H912      1.0  0.11716  0.35501  0.30389  1.0000
  H   H913      1.0  0.23035  0.62283  0.40890  1.0000
  H   H914      1.0  0.14835  0.40337  0.29973  1.0000
  H   H915      1.0  0.25347  0.60988  0.38376  1.0000
  C   C605      1.0  0.12581  0.40188  0.31458  1.0000
  C   C606      1.0  0.14820  0.60992  0.44294  1.0000
  H   H916      1.0  0.24371  0.60129  0.38079  1.0000
  H   H917      1.0  0.31292  0.62853  0.32201  1.0000
  C   C607      1.0  0.06249  0.38519  0.36236  1.0000
  H   H918      1.0  0.04914  0.40100  0.37743  1.0000
  H   H919      1.0  0.12852  0.61540  0.46113  1.0000
  N   N56       1.0  0.16584  0.56937  0.30875  1.0000
  C   C608      1.0  0.15687  0.57459  0.31891  1.0000
  C   C609      1.0  0.17856  0.56995  0.30923  1.0000
  C   C610      1.0  0.16289  0.57661  0.29679  1.0000
  C   C611      1.0  0.16501  0.55634  0.31009  1.0000
  H   H920      1.0  0.14714  0.57477  0.31851  1.0000
  H   H921      1.0  0.15767  0.58422  0.31849  1.0000
  H   H922      1.0  0.15852  0.56910  0.32808  1.0000
  H   H923      1.0  0.17944  0.57967  0.30834  1.0000
  H   H924      1.0  0.18111  0.56457  0.31812  1.0000
  H   H925      1.0  0.18557  0.56615  0.30166  1.0000
  H   H926      1.0  0.16949  0.57300  0.28889  1.0000
  H   H927      1.0  0.16333  0.58651  0.29554  1.0000
  H   H928      1.0  0.15335  0.57639  0.29610  1.0000
  H   H929      1.0  0.16717  0.55063  0.31905  1.0000
  H   H930      1.0  0.17165  0.55207  0.30260  1.0000
  H   H931      1.0  0.15550  0.55562  0.30983  1.0000
  H   H932      1.0  0.14211  0.58230  0.46029  1.0000
  H   H933      1.0  0.24980  0.59625  0.39467  1.0000
  H   H934      1.0  0.31215  0.63599  0.34604  1.0000
  H   H935      1.0  0.14921  0.61029  0.46604  1.0000
  H   H936      1.0  0.12565  0.57253  0.35573  1.0000
  H   H937      1.0  0.30703  0.62268  0.34498  1.0000
  N   N57       1.0  0.11894  0.58931  0.36285  1.0000
  H   H938      1.0  0.16098  0.62679  0.37878  1.0000
  C   C612      1.0  0.11867  0.41028  0.29537  1.0000
  H   H939      1.0  0.05831  0.35538  0.32030  1.0000
  S   S248      1.0  0.32140  0.64899  0.38152  1.0000
  H   H940      1.0  0.24233  0.60916  0.41093  1.0000
  H   H941      1.0  0.10534  0.58935  0.37985  1.0000
  H   H942      1.0  0.12007  0.42662  0.30804  1.0000
  S   S249      1.0  0.07705  0.33521  0.32924  1.0000
  H   H943      1.0  0.10111  0.59104  0.35864  1.0000
  H   H944      1.0  0.12897  0.60409  0.35575  1.0000
  H   H945      1.0  0.13634  0.42188  0.30786  1.0000
  Fe  Fe126     1.0  0.09356  0.33638  0.33580  1.0000
  H   H946      1.0  0.06435  0.37640  0.35900  1.0000
  H   H947      1.0  0.09953  0.64189  0.30958  1.0000
  H   H948      1.0  0.30662  0.64375  0.31415  1.0000
  H   H949      1.0  0.10944  0.41486  0.30007  1.0000
  H   H950      1.0  0.14072  0.39403  0.29482  1.0000
  H   H951      1.0  0.13453  0.59148  0.34775  1.0000
  C   C613      1.0  0.05769  0.39470  0.38010  1.0000
  C   C614      1.0  0.15043  0.60095  0.46396  1.0000
  H   H952      1.0  0.06552  0.39968  0.37591  1.0000
  C   C615      1.0  0.10115  0.63695  0.24633  1.0000
  C   C616      1.0  0.16946  0.62911  0.35415  1.0000
  S   S250      1.0  0.01481  0.38485  0.33327  1.0000
  C   C617      1.0  0.10039  0.64884  0.30072  1.0000
  H   H953      1.0  0.14272  0.40886  0.28552  1.0000
  H   H954      1.0  0.04078  0.38294  0.37784  1.0000
  H   H955      1.0  0.24569  0.62264  0.39954  1.0000
  H   H956      1.0  0.22240  0.60123  0.39403  1.0000
  C   C618      1.0  0.30965  0.63842  0.32285  1.0000
  H   H957      1.0  0.16251  0.65375  0.35257  1.0000
  H   H958      1.0  0.15544  0.58524  0.44835  1.0000
  S   S251      1.0  0.09257  0.33562  0.35578  1.0000
  H   H959      1.0  0.12807  0.57127  0.37101  1.0000
  S   S252      1.0  0.12142  0.33901  0.34785  1.0000
  C   C619      1.0  0.13057  0.59385  0.35702  1.0000
  N   N58       1.0  0.17142  0.63638  0.36228  1.0000
  H   H960      1.0  0.16424  0.63027  0.31006  1.0000
  C   C620      1.0  0.32228  0.63170  0.42799  1.0000
  C   C621      1.0  0.12787  0.64637  0.45788  1.0000
  H   H961      1.0  0.22119  0.62865  0.38994  1.0000
  H   H962      1.0  0.28558  0.63983  0.32398  1.0000
  C   C622      1.0  0.13019  0.60615  0.45877  1.0000
  H   H963      1.0  0.08653  0.63253  0.30147  1.0000
  H   H964      1.0  0.16057  0.59749  0.46093  1.0000
  N   N59       1.0  0.14357  0.60149  0.45439  1.0000
  H   H965      1.0  0.22758  0.61978  0.37809  1.0000
  H   H966      1.0  0.04704  0.37508  0.39139  1.0000
  H   H967      1.0  0.07984  0.64108  0.28834  1.0000
  H   H968      1.0  0.15817  0.60646  0.43914  1.0000
  H   H969      1.0  0.07348  0.36564  0.37701  1.0000
  S   S253      1.0  0.13528  0.65361  0.46516  1.0000
  H   H970      1.0  0.29669  0.63382  0.35343  1.0000
  N   N60       1.0  0.17003  0.56607  0.38823  1.0000
  C   C623      1.0  0.16918  0.57386  0.37587  1.0000
  C   C624      1.0  0.16103  0.57230  0.39770  1.0000
  C   C625      1.0  0.18271  0.56424  0.39039  1.0000
  C   C626      1.0  0.16713  0.55393  0.38895  1.0000
  H   H971      1.0  0.15963  0.57570  0.37411  1.0000
  H   H972      1.0  0.17551  0.56924  0.36851  1.0000
  H   H973      1.0  0.17176  0.58293  0.37478  1.0000
  H   H974      1.0  0.16289  0.58154  0.39729  1.0000
  H   H975      1.0  0.15136  0.57369  0.39643  1.0000
  H   H976      1.0  0.16141  0.56680  0.40720  1.0000
  H   H977      1.0  0.18345  0.55912  0.39993  1.0000
  H   H978      1.0  0.18560  0.57323  0.38890  1.0000
  H   H979      1.0  0.18968  0.55886  0.38396  1.0000
  H   H980      1.0  0.15780  0.55501  0.38693  1.0000
  H   H981      1.0  0.16719  0.54791  0.39828  1.0000
  H   H982      1.0  0.17394  0.54880  0.38215  1.0000
  H   H983      1.0  0.13087  0.42816  0.29361  1.0000
  C   C627      1.0  0.10978  0.59473  0.35481  1.0000
  H   H984      1.0  0.30880  0.65159  0.40524  1.0000
  H   H985      1.0  0.11265  0.64348  0.47317  1.0000
  H   H986      1.0  0.07070  0.38957  0.35817  1.0000
  H   H987      1.0  0.10902  0.64520  0.29444  1.0000
  C   C628      1.0  0.12902  0.42206  0.30290  1.0000
  H   H988      1.0  0.12542  0.39229  0.31431  1.0000
  H   H989      1.0  0.11356  0.59281  0.34535  1.0000
  H   H990      1.0  0.13773  0.58983  0.36278  1.0000
  C   C629      1.0  0.11392  0.59294  0.37496  1.0000
  H   H991      1.0  0.12075  0.58929  0.38112  1.0000
  N   N61       1.0  0.06012  0.38284  0.37599  1.0000
  C   C630      1.0  0.28894  0.63506  0.33265  1.0000
  H   H992      1.0  0.30311  0.65700  0.33517  1.0000
  C   C631      1.0  0.29535  0.65306  0.33447  1.0000
  H   H993      1.0  0.14182  0.64776  0.44111  1.0000
  C   C632      1.0  0.10465  0.35882  0.24598  1.0000
  H   H994      1.0  0.18510  0.64474  0.34816  1.0000
  C   C633      1.0  0.13321  0.64475  0.44573  1.0000
  H   H995      1.0  0.14297  0.61082  0.43564  1.0000
  S   S254      1.0  0.29138  0.65035  0.39117  1.0000
  H   H996      1.0  0.29148  0.62494  0.33274  1.0000
  Fe  Fe127     1.0  0.12862  0.65730  0.48471  1.0000
  H   H997      1.0  0.16298  0.65359  0.36824  1.0000
  S   S255      1.0  0.30310  0.65854  0.36163  1.0000
  C   C634      1.0  0.30405  0.63276  0.34503  1.0000
  N   N62       1.0  0.29950  0.63982  0.33374  1.0000
  H   H998      1.0  0.17725  0.62011  0.37548  1.0000
  C   C635      1.0  0.08790  0.63959  0.29277  1.0000
  C   C636      1.0  0.31459  0.65701  0.41911  1.0000
  Fe  Fe128     1.0  0.10534  0.40863  0.24413  1.0000
  H   H999      1.0  0.08273  0.37128  0.24099  1.0000
  H   H1000     1.0  0.11301  0.35123  0.24549  1.0000
  H   H1001     1.0  0.32756  0.63733  0.44231  1.0000
  H   H1002     1.0  0.32523  0.62190  0.43146  1.0000
  H   H1003     1.0  0.10622  0.36547  0.25080  1.0000
  H   H1004     1.0  0.00403  0.38411  0.29257  1.0000
  H   H1005     1.0  0.28782  0.65438  0.34274  1.0000
  H   H1006     1.0  0.07676  0.64968  0.31268  1.0000
  H   H1007     1.0  0.09813  0.64303  0.23823  1.0000
  H   H1008     1.0  0.09228  0.65758  0.47206  1.0000
  H   H1009     1.0  0.09948  0.65675  0.27663  1.0000
  H   H1010     1.0  0.09227  0.38226  0.23893  1.0000
  H   H1011     1.0  0.10176  0.65740  0.30272  1.0000
  H   H1012     1.0  0.11309  0.59735  0.23745  1.0000
  H   H1013     1.0  0.06973  0.65814  0.29977  1.0000
  H   H1014     1.0  0.22100  0.58228  0.60596  1.0000
  Fe  Fe129     1.0  0.27106  0.59185  0.62572  1.0000
  S   S256      1.0  0.28585  0.59905  0.62978  1.0000
  S   S257      1.0  0.27297  0.57369  0.62025  1.0000
  Fe  Fe130     1.0  0.25099  0.61433  0.63112  1.0000
  S   S258      1.0  0.26404  0.62341  0.63603  1.0000
  S   S259      1.0  0.23044  0.62234  0.63217  1.0000
  Fe  Fe131     1.0  0.27720  0.61730  0.61944  1.0000
  S   S260      1.0  0.28894  0.62977  0.60600  1.0000
  Fe  Fe132     1.0  0.27159  0.60441  0.64605  1.0000
  S   S261      1.0  0.27877  0.59878  0.66373  1.0000
  S   S262      1.0  0.26376  0.60966  0.61372  1.0000
  S   S263      1.0  0.25726  0.59578  0.64284  1.0000
  S   S264      1.0  0.31801  0.62948  0.66396  1.0000
  H   H1015     1.0  0.23429  0.56902  0.63423  1.0000
  S   S265      1.0  0.01135  0.59832  0.61554  1.0000
  S   S266      1.0  0.11480  0.64787  0.49927  1.0000
  H   H1016     1.0  0.09010  0.64360  0.53221  1.0000
  H   H1017     1.0  0.31790  0.60304  0.67148  1.0000
  S   S267      1.0  0.13098  0.62936  0.52646  1.0000
  H   H1018     1.0  0.20537  0.64251  0.58634  1.0000
  H   H1019     1.0  0.30734  0.54780  0.65477  1.0000
  C   C637      1.0  0.29796  0.55201  0.65273  1.0000
  H   H1020     1.0  0.30288  0.57384  0.63969  1.0000
  S   S268      1.0  0.06393  0.63482  0.58538  1.0000
  H   H1021     1.0  0.28107  0.57096  0.64339  1.0000
  H   H1022     1.0  0.29841  0.62772  0.62733  1.0000
  Fe  Fe133     1.0  0.08260  0.63589  0.58799  1.0000
  S   S269      1.0  0.10040  0.62239  0.58323  1.0000
  Fe  Fe134     1.0  0.05620  0.64197  0.60294  1.0000
  S   S270      1.0  0.04006  0.63807  0.61852  1.0000
  Fe  Fe135     1.0  0.16259  0.63110  0.58892  1.0000
  H   H1023     1.0  0.32342  0.50862  0.59168  1.0000
  S   S271      1.0  0.14462  0.63047  0.60267  1.0000
  Fe  Fe136     1.0  0.19068  0.62495  0.58434  1.0000
  S   S272      1.0  0.19227  0.63670  0.56532  1.0000
  S   S273      1.0  0.20934  0.61547  0.58908  1.0000
  Fe  Fe137     1.0  0.17722  0.62846  0.56343  1.0000
  C   C638      1.0  0.32686  0.51158  0.59854  1.0000
  S   S274      1.0  0.17656  0.63962  0.59302  1.0000
  S   S275      1.0  0.17672  0.61532  0.58181  1.0000
  H   H1024     1.0  0.30745  0.61303  0.62439  1.0000
  C   C639      1.0  0.03254  0.62649  0.61809  1.0000
  C   C640      1.0  0.02101  0.62550  0.62599  1.0000
  C   C641      1.0  0.01455  0.61668  0.62547  1.0000
  C   C642      1.0  0.01967  0.60874  0.61713  1.0000
  C   C643      1.0  0.03136  0.60949  0.60949  1.0000
  C   C644      1.0  0.03772  0.61844  0.60986  1.0000
  H   H1025     1.0  0.01699  0.63163  0.63245  1.0000
  H   H1026     1.0  0.32626  0.51547  0.62084  1.0000
  H   H1027     1.0  0.28577  0.55617  0.67534  1.0000
  H   H1028     1.0  0.04669  0.61902  0.60387  1.0000
  C   C645      1.0  0.11272  0.62487  0.58842  1.0000
  C   C646      1.0  0.11039  0.62971  0.59906  1.0000
  C   C647      1.0  0.12027  0.63121  0.60344  1.0000
  C   C648      1.0  0.13251  0.62824  0.59701  1.0000
  C   C649      1.0  0.13486  0.62374  0.58615  1.0000
  C   C650      1.0  0.12498  0.62188  0.58197  1.0000
  H   H1029     1.0  0.10103  0.63186  0.60420  1.0000
  H   H1030     1.0  0.11841  0.63462  0.61188  1.0000
  H   H1031     1.0  0.14431  0.62138  0.58117  1.0000
  H   H1032     1.0  0.12686  0.61808  0.57376  1.0000
  C   C651      1.0  0.14449  0.62861  0.53152  1.0000
  C   C652      1.0  0.31613  0.63750  0.62932  1.0000
  H   H1033     1.0  0.32454  0.64166  0.62634  1.0000
  C   C653      1.0  0.16634  0.62640  0.53967  1.0000
  C   C654      1.0  0.15529  0.62519  0.54827  1.0000
  C   C655      1.0  0.14439  0.62609  0.54419  1.0000
  H   H1034     1.0  0.00564  0.61602  0.63155  1.0000
  C   C656      1.0  0.22781  0.57427  0.62797  1.0000
  H   H1035     1.0  0.15524  0.62313  0.55806  1.0000
  H   H1036     1.0  0.13592  0.62478  0.55083  1.0000
  H   H1037     1.0  0.15557  0.63209  0.51316  1.0000
  H   H1038     1.0  0.30277  0.53922  0.60469  1.0000
  H   H1039     1.0  0.32717  0.61497  0.63932  1.0000
  H   H1040     1.0  0.24443  0.59632  0.61211  1.0000
  H   H1041     1.0  0.22369  0.56749  0.62562  1.0000
  Fe  Fe138     1.0  0.12737  0.64641  0.51202  1.0000
  N   N63       1.0  0.31816  0.62606  0.62459  1.0000
  C   C657      1.0  0.29213  0.56249  0.66993  1.0000
  C   C658      1.0  0.29946  0.62166  0.59528  1.0000
  C   C659      1.0  0.30798  0.62769  0.58624  1.0000
  C   C660      1.0  0.31699  0.62115  0.57809  1.0000
  C   C661      1.0  0.31753  0.60859  0.57892  1.0000
  C   C662      1.0  0.30876  0.60260  0.58772  1.0000
  C   C663      1.0  0.29972  0.60915  0.59594  1.0000
  H   H1042     1.0  0.30764  0.63741  0.58556  1.0000
  C   C664      1.0  0.23958  0.59049  0.62035  1.0000
  H   H1043     1.0  0.30908  0.59289  0.58834  1.0000
  H   H1044     1.0  0.29300  0.60450  0.60275  1.0000
  C   C665      1.0  0.28966  0.60724  0.66396  1.0000
  N   N64       1.0  0.00744  0.63560  0.58664  1.0000
  H   H1045     1.0  0.33028  0.60814  0.62594  1.0000
  C   C666      1.0  0.30714  0.62070  0.66437  1.0000
  C   C667      1.0  0.29609  0.62682  0.66032  1.0000
  C   C668      1.0  0.28746  0.62010  0.65994  1.0000
  C   C669      1.0  0.32875  0.61701  0.62902  1.0000
  H   H1046     1.0  0.28855  0.57153  0.67298  1.0000
  C   C670      1.0  0.01581  0.62359  0.58514  1.0000
  H   H1047     1.0  0.17902  0.65114  0.52884  1.0000
  C   C671      1.0  0.22417  0.62266  0.61948  1.0000
  C   C672      1.0  0.23188  0.62150  0.60801  1.0000
  C   C673      1.0  0.22706  0.61996  0.59849  1.0000
  C   C674      1.0  0.21443  0.61991  0.60026  1.0000
  C   C675      1.0  0.20648  0.62202  0.61140  1.0000
  C   C676      1.0  0.21138  0.62333  0.62104  1.0000
  H   H1048     1.0  0.24161  0.62153  0.60652  1.0000
  H   H1049     1.0  0.23322  0.61846  0.58983  1.0000
  H   H1050     1.0  0.19671  0.62192  0.61286  1.0000
  H   H1051     1.0  0.20534  0.62432  0.62988  1.0000
  C   C677      1.0  0.31189  0.55040  0.61069  1.0000
  C   C678      1.0  0.30160  0.54729  0.60852  1.0000
  C   C679      1.0  0.28971  0.55449  0.61151  1.0000
  C   C680      1.0  0.28809  0.56513  0.61622  1.0000
  C   C681      1.0  0.29844  0.56850  0.61795  1.0000
  C   C682      1.0  0.31031  0.56097  0.61551  1.0000
  H   H1052     1.0  0.01259  0.61584  0.59241  1.0000
  H   H1053     1.0  0.28175  0.55189  0.61005  1.0000
  H   H1054     1.0  0.29730  0.57693  0.62109  1.0000
  H   H1055     1.0  0.31823  0.56351  0.61709  1.0000
  N   N65       1.0  0.09706  0.63099  0.54757  1.0000
  C   C683      1.0  0.09590  0.63421  0.53449  1.0000
  C   C684      1.0  0.08457  0.63149  0.55558  1.0000
  C   C685      1.0  0.10317  0.63991  0.54998  1.0000
  C   C686      1.0  0.10455  0.61833  0.55027  1.0000
  H   H1056     1.0  0.10513  0.63417  0.52817  1.0000
  H   H1057     1.0  0.09789  0.64956  0.54789  1.0000
  H   H1058     1.0  0.09156  0.62753  0.53229  1.0000
  H   H1059     1.0  0.07871  0.64095  0.55408  1.0000
  H   H1060     1.0  0.07958  0.62505  0.55388  1.0000
  H   H1061     1.0  0.08516  0.62882  0.56549  1.0000
  C   C687      1.0  0.33181  0.50641  0.61877  1.0000
  H   H1062     1.0  0.32912  0.63344  0.60723  1.0000
  C   C688      1.0  0.16641  0.62899  0.52702  1.0000
  H   H1063     1.0  0.10575  0.61568  0.56003  1.0000
  H   H1064     1.0  0.11402  0.61754  0.54438  1.0000
  H   H1065     1.0  0.10017  0.61132  0.54871  1.0000
  H   H1066     1.0  0.29784  0.58204  0.65213  1.0000
  H   H1067     1.0  0.29422  0.63680  0.65741  1.0000
  H   H1068     1.0  0.21769  0.59508  0.61354  1.0000
  H   H1069     1.0  0.29875  0.55295  0.64264  1.0000
  C   C689      1.0  0.30943  0.60780  0.66827  1.0000
  H   H1070     1.0  0.03542  0.60326  0.60313  1.0000
  H   H1071     1.0  0.31079  0.56939  0.65224  1.0000
  H   H1072     1.0  0.23227  0.59683  0.62564  1.0000
  C   C690      1.0  0.28064  0.56926  0.65350  1.0000
  H   H1073     1.0  0.22013  0.58031  0.63328  1.0000
  C   C691      1.0  0.24438  0.57340  0.60993  1.0000
  H   H1074     1.0  0.33200  0.63815  0.52027  1.0000
  N   N66       1.0  0.29307  0.56411  0.65650  1.0000
  C   C692      1.0  0.15544  0.63028  0.52294  1.0000
  H   H1075     1.0  0.21420  0.64662  0.60264  1.0000
  H   H1076     1.0  0.24648  0.58559  0.62624  1.0000
  H   H1077     1.0  0.01229  0.64398  0.56743  1.0000
  H   H1078     1.0  0.30230  0.59116  0.67146  1.0000
  H   H1079     1.0  0.31388  0.63563  0.63957  1.0000
  H   H1080     1.0  0.30829  0.64459  0.62606  1.0000
  H   H1081     1.0  0.17497  0.62990  0.52038  1.0000
  C   C693      1.0  0.17489  0.65709  0.53583  1.0000
  H   H1082     1.0  0.00375  0.63080  0.60641  1.0000
  H   H1083     1.0  0.32304  0.57418  0.66754  1.0000
  S   S276      1.0  0.32668  0.54116  0.60691  1.0000
  H   H1084     1.0  0.30547  0.61684  0.63915  1.0000
  H   H1085     1.0  0.11268  0.63965  0.54426  1.0000
  C   C694      1.0  0.31393  0.50062  0.61585  1.0000
  S   S277      1.0  0.18020  0.62465  0.54451  1.0000
  C   C695      1.0  0.20657  0.65194  0.58115  1.0000
  C   C696      1.0  0.30061  0.60110  0.66822  1.0000
  H   H1086     1.0  0.25117  0.56789  0.61578  1.0000
  H   H1087     1.0  0.24969  0.57879  0.60164  1.0000
  H   H1088     1.0  0.29186  0.54529  0.65768  1.0000
  H   H1089     1.0  0.24073  0.56680  0.60678  1.0000
  N   N67       1.0  0.23427  0.58168  0.61675  1.0000
  C   C697      1.0  0.01196  0.64557  0.57673  1.0000
  H   H1090     1.0  0.27646  0.57820  0.65651  1.0000
  H   H1091     1.0  0.22991  0.59419  0.60013  1.0000
  H   H1092     1.0  0.27897  0.62490  0.65678  1.0000
  C   C698      1.0  0.30149  0.57272  0.64982  1.0000
  H   H1093     1.0  0.22403  0.65567  0.59105  1.0000
  C   C699      1.0  0.22534  0.58858  0.60876  1.0000
  S   S278      1.0  0.07500  0.64089  0.60650  1.0000
  H   H1094     1.0  0.27411  0.56289  0.65816  1.0000
  H   H1095     1.0  0.30137  0.55856  0.67250  1.0000
  C   C700      1.0  0.33200  0.56921  0.66952  1.0000
  H   H1096     1.0  0.32266  0.62070  0.60695  1.0000
  H   H1097     1.0  0.32088  0.52064  0.60017  1.0000
  H   H1098     1.0  0.10407  0.63784  0.55979  1.0000
  S   S279      1.0  0.16187  0.64334  0.57029  1.0000
  H   H1099     1.0  0.17127  0.65095  0.54451  1.0000
  H   H1100     1.0  0.32334  0.62595  0.57100  1.0000
  Fe  Fe139     1.0  0.17698  0.65049  0.57369  1.0000
  S   S280      1.0  0.32778  0.55011  0.66183  1.0000
  H   H1101     1.0  0.02543  0.62351  0.58583  1.0000
  H   H1102     1.0  0.02153  0.64617  0.57704  1.0000
  H   H1103     1.0  0.31287  0.63569  0.60736  1.0000
  C   C701      1.0  0.30690  0.62067  0.62907  1.0000
  C   C702      1.0  0.00725  0.63809  0.59876  1.0000
  H   H1104     1.0  0.31360  0.49358  0.62464  1.0000
  C   C703      1.0  0.32085  0.62910  0.61094  1.0000
  N   N68       1.0  0.32679  0.50221  0.61016  1.0000
  H   H1105     1.0  0.33181  0.49966  0.62773  1.0000
  S   S281      1.0  0.33041  0.52731  0.64049  1.0000
  S   S282      1.0  0.14199  0.65432  0.49723  1.0000
  H   H1106     1.0  0.01672  0.63826  0.59972  1.0000
  S   S283      1.0  0.32970  0.60026  0.56950  1.0000
  H   H1107     1.0  0.21599  0.65100  0.57512  1.0000
  H   H1108     1.0  0.15107  0.65611  0.53861  1.0000
  H   H1109     1.0  0.01628  0.62143  0.57605  1.0000
  H   H1110     1.0  0.30981  0.49751  0.60959  1.0000
  H   H1111     1.0  0.30786  0.50946  0.61804  1.0000
  C   C704      1.0  0.21458  0.65609  0.59700  1.0000
  H   H1112     1.0  0.19971  0.65526  0.57502  1.0000
  H   H1113     1.0  0.33249  0.55774  0.58323  1.0000
  H   H1114     1.0  0.19160  0.65139  0.60364  1.0000
  H   H1115     1.0  0.13329  0.65369  0.58603  1.0000
  H   H1116     1.0  0.05279  0.64996  0.63501  1.0000
  H   H1117     1.0  0.15833  0.65673  0.52266  1.0000
  H   H1118     1.0  0.33095  0.48667  0.60123  1.0000
  Fe  Fe140     1.0  0.06300  0.65482  0.57614  1.0000
  H   H1119     1.0  0.00586  0.65477  0.57758  1.0000
  S   S284      1.0  0.08222  0.65541  0.57742  1.0000
  H   H1120     1.0  0.12526  0.65594  0.60122  1.0000
  H   H1121     1.0  0.05689  0.65699  0.61914  1.0000
  H   H1122     1.0  0.00112  0.64712  0.60022  1.0000
  H   H1123     1.0  0.33305  0.57246  0.57294  1.0000
  H   H1124     1.0  0.03081  0.65845  0.63398  1.0000
  C   C705      1.0  0.05503  0.65864  0.62864  1.0000
  H   H1125     1.0  0.12174  0.38705  0.96544  1.0000
  S   S285      1.0  0.11153  0.36516  0.93513  1.0000
  Fe  Fe141     1.0  0.11561  0.35849  0.96926  1.0000
  S   S286      1.0  0.10179  0.37478  0.96166  1.0000
  Fe  Fe142     1.0  0.09735  0.36154  0.95246  1.0000
  S   S287      1.0  0.07931  0.36046  0.94842  1.0000
  Fe  Fe143     1.0  0.11713  0.37675  0.94503  1.0000
  S   S288      1.0  0.12234  0.39511  0.93623  1.0000
  S   S289      1.0  0.10960  0.34480  0.96171  1.0000
  S   S290      1.0  0.13123  0.36120  0.95283  1.0000
  Fe  Fe144     1.0  0.05258  0.38634  0.86474  1.0000
  S   S291      1.0  0.04702  0.38287  0.88548  1.0000
  S   S292      1.0  0.03816  0.39680  0.85318  1.0000
  Fe  Fe145     1.0  0.07933  0.37267  0.86532  1.0000
  S   S293      1.0  0.07575  0.36720  0.88591  1.0000
  S   S294      1.0  0.09883  0.36676  0.85487  1.0000
  Fe  Fe146     1.0  0.05778  0.36373  0.88435  1.0000
  Fe  Fe147     1.0  0.06545  0.38679  0.88532  1.0000
  S   S295      1.0  0.07043  0.39638  0.89779  1.0000
  S   S296      1.0  0.06237  0.36683  0.86369  1.0000
  S   S297      1.0  0.06995  0.39259  0.86464  1.0000
  Fe  Fe148     1.0  0.17232  0.37848  0.88552  1.0000
  S   S298      1.0  0.17174  0.39216  0.86773  1.0000
  S   S299      1.0  0.17488  0.38425  0.90186  1.0000
  Fe  Fe149     1.0  0.17134  0.35706  0.87465  1.0000
  S   S300      1.0  0.17142  0.36882  0.85560  1.0000
  Fe  Fe150     1.0  0.18586  0.37718  0.85952  1.0000
  S   S301      1.0  0.20473  0.38024  0.84796  1.0000
  Fe  Fe151     1.0  0.15737  0.38275  0.86562  1.0000
  S   S302      1.0  0.13843  0.39348  0.86220  1.0000
  S   S303      1.0  0.18699  0.36391  0.87762  1.0000
  S   S304      1.0  0.15663  0.37056  0.88439  1.0000
  H   H1126     1.0  0.22698  0.38295  0.90472  1.0000
  H   H1127     1.0  0.14024  0.34786  0.88567  1.0000
  S   S305      1.0  0.30158  0.48017  0.86883  1.0000
  Fe  Fe152     1.0  0.25068  0.41655  0.86043  1.0000
  S   S306      1.0  0.26335  0.39952  0.86867  1.0000
  S   S307      1.0  0.23008  0.41741  0.86185  1.0000
  Fe  Fe153     1.0  0.27090  0.43232  0.85358  1.0000
  S   S308      1.0  0.28484  0.41651  0.86116  1.0000
  S   S309      1.0  0.27738  0.45036  0.84461  1.0000
  Fe  Fe154     1.0  0.27776  0.40529  0.85201  1.0000
  S   S310      1.0  0.29218  0.39219  0.84145  1.0000
  Fe  Fe155     1.0  0.26919  0.41250  0.87693  1.0000
  S   S311      1.0  0.27283  0.40938  0.89599  1.0000
  S   S312      1.0  0.26477  0.42141  0.84309  1.0000
  S   S313      1.0  0.25555  0.42922  0.87009  1.0000
  H   H1128     1.0  0.32317  0.44065  0.81830  1.0000
  C   C706      1.0  0.11900  0.34877  0.90256  1.0000
  C   C707      1.0  0.30225  0.40049  0.82999  1.0000
  C   C708      1.0  0.31323  0.39412  0.82365  1.0000
  H   H1129     1.0  0.08007  0.33917  0.93383  1.0000
  C   C709      1.0  0.31954  0.41361  0.81324  1.0000
  C   C710      1.0  0.30835  0.42000  0.81922  1.0000
  C   C711      1.0  0.29983  0.41345  0.82776  1.0000
  C   C712      1.0  0.06687  0.39241  0.83083  1.0000
  H   H1130     1.0  0.33359  0.45024  0.80861  1.0000
  H   H1131     1.0  0.30631  0.43001  0.81742  1.0000
  H   H1132     1.0  0.29137  0.41846  0.83258  1.0000
  C   C713      1.0  0.28647  0.39828  0.89762  1.0000
  C   C714      1.0  0.29068  0.38925  0.89037  1.0000
  C   C715      1.0  0.30166  0.38047  0.89170  1.0000
  C   C716      1.0  0.30882  0.38115  0.89976  1.0000
  C   C717      1.0  0.30468  0.39030  0.90687  1.0000
  C   C718      1.0  0.29334  0.39862  0.90605  1.0000
  H   H1133     1.0  0.28531  0.38884  0.88396  1.0000
  H   H1134     1.0  0.30463  0.37322  0.88642  1.0000
  H   H1135     1.0  0.15463  0.39095  0.95434  1.0000
  H   H1136     1.0  0.28996  0.40538  0.91190  1.0000
  C   C719      1.0  0.29512  0.47131  0.86242  1.0000
  C   C720      1.0  0.28238  0.47455  0.86247  1.0000
  C   C721      1.0  0.27683  0.46769  0.85759  1.0000
  C   C722      1.0  0.28385  0.45721  0.85304  1.0000
  C   C723      1.0  0.29651  0.45358  0.85350  1.0000
  C   C724      1.0  0.30218  0.46069  0.85806  1.0000
  H   H1137     1.0  0.27683  0.48265  0.86595  1.0000
  H   H1138     1.0  0.26711  0.47070  0.85707  1.0000
  H   H1139     1.0  0.30195  0.44545  0.85005  1.0000
  H   H1140     1.0  0.31195  0.45793  0.85833  1.0000
  C   C725      1.0  0.21183  0.39115  0.85086  1.0000
  C   C726      1.0  0.20469  0.40135  0.85583  1.0000
  C   C727      1.0  0.21049  0.40971  0.85837  1.0000
  C   C728      1.0  0.22349  0.40781  0.85634  1.0000
  C   C729      1.0  0.23068  0.39777  0.85110  1.0000
  C   C730      1.0  0.22486  0.38955  0.84825  1.0000
  H   H1141     1.0  0.19468  0.40288  0.85760  1.0000
  H   H1142     1.0  0.20484  0.41757  0.86220  1.0000
  H   H1143     1.0  0.24071  0.39622  0.84942  1.0000
  H   H1144     1.0  0.23047  0.38178  0.84426  1.0000
  C   C731      1.0  0.03082  0.38975  0.84558  1.0000
  C   C732      1.0  0.03699  0.37908  0.84092  1.0000
  C   C733      1.0  0.03111  0.37407  0.83440  1.0000
  C   C734      1.0  0.01891  0.37947  0.83272  1.0000
  C   C735      1.0  0.22330  0.38448  0.88212  1.0000
  C   C736      1.0  0.01866  0.39518  0.84385  1.0000
  H   H1145     1.0  0.04635  0.37483  0.84212  1.0000
  H   H1146     1.0  0.03601  0.36594  0.83064  1.0000
  C   C737      1.0  0.10994  0.37431  0.85652  1.0000
  C   C738      1.0  0.12263  0.36887  0.85414  1.0000
  C   C739      1.0  0.13152  0.37459  0.85589  1.0000
  C   C740      1.0  0.12776  0.38598  0.85965  1.0000
  C   C741      1.0  0.11512  0.39159  0.86157  1.0000
  C   C742      1.0  0.10623  0.38565  0.86032  1.0000
  H   H1147     1.0  0.12559  0.36013  0.85109  1.0000
  H   H1148     1.0  0.14127  0.37027  0.85418  1.0000
  H   H1149     1.0  0.11215  0.40055  0.86414  1.0000
  H   H1150     1.0  0.09652  0.39000  0.86210  1.0000
  H   H1151     1.0  0.01188  0.35174  0.86319  1.0000
  C   C743      1.0  0.13674  0.39234  0.92631  1.0000
  C   C744      1.0  0.14400  0.40140  0.92225  1.0000
  C   C745      1.0  0.15589  0.39884  0.91492  1.0000
  C   C746      1.0  0.16024  0.38744  0.91124  1.0000
  C   C747      1.0  0.15280  0.37858  0.91494  1.0000
  C   C748      1.0  0.14116  0.38091  0.92270  1.0000
  H   H1152     1.0  0.14054  0.41030  0.92493  1.0000
  H   H1153     1.0  0.16161  0.40577  0.91189  1.0000
  H   H1154     1.0  0.15612  0.36988  0.91193  1.0000
  H   H1155     1.0  0.13556  0.37391  0.92574  1.0000
  C   C749      1.0  0.07636  0.37075  0.93465  1.0000
  C   C750      1.0  0.08128  0.38152  0.93045  1.0000
  C   C751      1.0  0.07904  0.38956  0.91935  1.0000
  C   C752      1.0  0.07232  0.38664  0.91213  1.0000
  C   C753      1.0  0.06737  0.37589  0.91634  1.0000
  C   C754      1.0  0.06919  0.36810  0.92769  1.0000
  H   H1156     1.0  0.08654  0.38380  0.93594  1.0000
  H   H1157     1.0  0.08253  0.39804  0.91635  1.0000
  H   H1158     1.0  0.06188  0.37375  0.91099  1.0000
  H   H1159     1.0  0.06506  0.36000  0.93108  1.0000
  H   H1160     1.0  0.11565  0.40794  0.91185  1.0000
  H   H1161     1.0  0.15405  0.34893  0.91706  1.0000
  H   H1162     1.0  0.07625  0.38682  0.80838  1.0000
  S   S314      1.0  0.16995  0.33700  0.88209  1.0000
  H   H1163     1.0  0.13593  0.38402  0.98586  1.0000
  H   H1164     1.0  0.09826  0.38740  0.82746  1.0000
  C   C755      1.0  0.01266  0.38998  0.83761  1.0000
  H   H1165     1.0  0.12077  0.40335  0.95971  1.0000
  H   H1166     1.0  0.15750  0.33631  0.90920  1.0000
  C   C756      1.0  0.15086  0.33042  0.85961  1.0000
  C   C757      1.0  0.16834  0.32936  0.92887  1.0000
  S   S315      1.0  0.33049  0.42191  0.80322  1.0000
  H   H1167     1.0  0.00377  0.36415  0.87112  1.0000
  H   H1168     1.0  0.22859  0.39197  0.87748  1.0000
  C   C758      1.0  0.15785  0.33596  0.86438  1.0000
  H   H1169     1.0  0.30241  0.42093  0.90155  1.0000
  C   C759      1.0  0.31342  0.39261  0.85964  1.0000
  C   C760      1.0  0.21981  0.39093  0.90145  1.0000
  H   H1170     1.0  0.12235  0.41525  0.88933  1.0000
  H   H1171     1.0  0.03773  0.35695  0.85831  1.0000
  H   H1172     1.0  0.31503  0.38411  0.82522  1.0000
  H   H1173     1.0  0.10773  0.39524  0.91749  1.0000
  H   H1174     1.0  0.08093  0.40054  0.80900  1.0000
  H   H1175     1.0  0.10006  0.40986  0.90978  1.0000
  H   H1176     1.0  0.10684  0.41695  0.88709  1.0000
  H   H1177     1.0  0.00328  0.39424  0.83638  1.0000
  C   C761      1.0  0.16123  0.33037  0.87576  1.0000
  H   H1178     1.0  0.09615  0.39951  0.89458  1.0000
  H   H1179     1.0  0.31006  0.39077  0.91323  1.0000
  H   H1180     1.0  0.11973  0.40760  0.87864  1.0000
  H   H1181     1.0  0.33097  0.46056  0.82616  1.0000
  H   H1182     1.0  0.20890  0.40693  0.88378  1.0000
  H   H1183     1.0  0.17029  0.35306  0.92549  1.0000
  H   H1184     1.0  0.30196  0.45335  0.88451  1.0000
  H   H1185     1.0  0.33009  0.38608  0.97937  1.0000
  H   H1186     1.0  0.21292  0.39356  0.90968  1.0000
  H   H1187     1.0  0.13353  0.35019  0.87249  1.0000
  H   H1188     1.0  0.08725  0.40189  0.82775  1.0000
  C   C762      1.0  0.17736  0.34744  0.91927  1.0000
  C   C763      1.0  0.13921  0.40500  0.97010  1.0000
  H   H1189     1.0  0.10749  0.36270  0.88402  1.0000
  H   H1190     1.0  0.00950  0.35180  0.89082  1.0000
  C   C764      1.0  0.12369  0.33316  0.89024  1.0000
  H   H1191     1.0  0.16116  0.33459  0.93536  1.0000
  N   N69       1.0  0.32678  0.38683  0.85767  1.0000
  H   H1192     1.0  0.16425  0.34965  0.90217  1.0000
  H   H1193     1.0  0.06502  0.40272  0.82838  1.0000
  C   C765      1.0  0.05778  0.33455  0.89066  1.0000
  Fe  Fe156     1.0  0.12398  0.34912  0.94463  1.0000
  N   N70       1.0  0.31629  0.46015  0.81766  1.0000
  H   H1194     1.0  0.29729  0.46644  0.82638  1.0000
  H   H1195     1.0  0.01383  0.40346  0.84737  1.0000
  H   H1196     1.0  0.19972  0.39687  0.88218  1.0000
  H   H1197     1.0  0.22455  0.39887  0.89687  1.0000
  S   S316      1.0  0.33220  0.48950  0.87104  1.0000
  C   C766      1.0  0.08193  0.37327  0.82985  1.0000
  N   N71       1.0  0.29208  0.43873  0.89414  1.0000
  C   C767      1.0  0.28046  0.43719  0.90324  1.0000
  C   C768      1.0  0.29321  0.45186  0.89121  1.0000
  C   C769      1.0  0.29183  0.43494  0.88277  1.0000
  C   C770      1.0  0.30282  0.43092  0.89933  1.0000
  H   H1198     1.0  0.28026  0.44003  0.91193  1.0000
  H   H1199     1.0  0.27936  0.42738  0.90570  1.0000
  H   H1200     1.0  0.27217  0.44282  0.89952  1.0000
  H   H1201     1.0  0.28537  0.45804  0.88708  1.0000
  H   H1202     1.0  0.32202  0.44696  0.89790  1.0000
  H   H1203     1.0  0.02547  0.34486  0.89133  1.0000
  H   H1204     1.0  0.29094  0.42508  0.88468  1.0000
  H   H1205     1.0  0.30044  0.43595  0.87569  1.0000
  H   H1206     1.0  0.28381  0.44062  0.87860  1.0000
  H   H1207     1.0  0.30328  0.43342  0.90798  1.0000
  H   H1208     1.0  0.31176  0.43191  0.89274  1.0000
  H   H1209     1.0  0.03374  0.34203  0.86451  1.0000
  N   N72       1.0  0.13711  0.39391  0.96708  1.0000
  H   H1210     1.0  0.01559  0.36680  0.85762  1.0000
  H   H1211     1.0  0.08020  0.37039  0.84008  1.0000
  H   H1212     1.0  0.30195  0.44999  0.82762  1.0000
  C   C771      1.0  0.20753  0.37743  0.89915  1.0000
  C   C772      1.0  0.13158  0.35197  0.88201  1.0000
  H   H1213     1.0  0.04183  0.34801  0.87257  1.0000
  C   C773      1.0  0.16154  0.34341  0.91112  1.0000
  H   H1214     1.0  0.01500  0.37255  0.88213  1.0000
  C   C774      1.0  0.01301  0.35991  0.86615  1.0000
  H   H1215     1.0  0.13245  0.32853  0.89352  1.0000
  H   H1216     1.0  0.09169  0.36880  0.82638  1.0000
  H   H1217     1.0  0.11309  0.32710  0.94411  1.0000
  H   H1218     1.0  0.08655  0.38941  0.84093  1.0000
  H   H1219     1.0  0.29329  0.45508  0.89960  1.0000
  C   C775      1.0  0.18196  0.33038  0.90876  1.0000
  H   H1220     1.0  0.21423  0.36900  0.90245  1.0000
  N   N73       1.0  0.11408  0.39931  0.89775  1.0000
  C   C776      1.0  0.12616  0.39064  0.89809  1.0000
  C   C777      1.0  0.10522  0.39307  0.89542  1.0000
  C   C778      1.0  0.11580  0.41027  0.88778  1.0000
  C   C779      1.0  0.10916  0.40327  0.90972  1.0000
  H   H1221     1.0  0.13311  0.39512  0.89968  1.0000
  H   H1222     1.0  0.13011  0.38747  0.88918  1.0000
  H   H1223     1.0  0.12527  0.38232  0.90559  1.0000
  H   H1224     1.0  0.10882  0.38955  0.88670  1.0000
  H   H1225     1.0  0.10329  0.38507  0.90303  1.0000
  C   C780      1.0  0.14090  0.38285  0.97638  1.0000
  H   H1226     1.0  0.31075  0.39820  0.85088  1.0000
  C   C781      1.0  0.33206  0.44466  0.89590  1.0000
  C   C782      1.0  0.32200  0.40065  0.81549  1.0000
  H   H1227     1.0  0.29908  0.45967  0.81327  1.0000
  C   C783      1.0  0.06969  0.33452  0.88337  1.0000
  H   H1228     1.0  0.13882  0.37438  0.97480  1.0000
  S   S317      1.0  0.01196  0.37276  0.82446  1.0000
  N   N74       1.0  0.21379  0.38791  0.89286  1.0000
  H   H1229     1.0  0.15100  0.38105  0.97626  1.0000
  C   C784      1.0  0.20449  0.39883  0.88865  1.0000
  H   H1230     1.0  0.09221  0.38634  0.80827  1.0000
  H   H1231     1.0  0.16077  0.34446  0.85917  1.0000
  H   H1232     1.0  0.06451  0.38979  0.84107  1.0000
  H   H1233     1.0  0.07355  0.34278  0.88082  1.0000
  H   H1234     1.0  0.11785  0.39736  0.97605  1.0000
  H   H1235     1.0  0.23019  0.37597  0.88485  1.0000
  H   H1236     1.0  0.07566  0.36935  0.82650  1.0000
  H   H1237     1.0  0.11649  0.35883  0.90272  1.0000
  S   S318      1.0  0.04907  0.34794  0.89572  1.0000
  N   N75       1.0  0.12097  0.34661  0.88992  1.0000
  C   C785      1.0  0.08244  0.39031  0.81228  1.0000
  C   C786      1.0  0.08279  0.32613  0.90931  1.0000
  C   C787      1.0  0.31743  0.47199  0.80885  1.0000
  H   H1238     1.0  0.11084  0.35074  0.87536  1.0000
  H   H1239     1.0  0.06019  0.38929  0.82724  1.0000
  H   H1240     1.0  0.20289  0.37505  0.89281  1.0000
  H   H1241     1.0  0.19713  0.40164  0.89651  1.0000
  H   H1242     1.0  0.32781  0.37040  0.98513  1.0000
  N   N76       1.0  0.07989  0.38691  0.82591  1.0000
  Fe  Fe157     1.0  0.32105  0.48359  0.86060  1.0000
  C   C788      1.0  0.08835  0.39165  0.83068  1.0000
  H   H1243     1.0  0.12754  0.34483  0.90647  1.0000
  H   H1244     1.0  0.33252  0.40351  0.85730  1.0000
  H   H1245     1.0  0.21904  0.38274  0.87511  1.0000
  C   C789      1.0  0.32103  0.45985  0.82865  1.0000
  S   S319      1.0  0.13594  0.33595  0.93230  1.0000
  H   H1246     1.0  0.20019  0.37974  0.90723  1.0000
  C   C790      1.0  0.14451  0.39233  0.95473  1.0000
  H   H1247     1.0  0.12484  0.33121  0.88089  1.0000
  C   C791      1.0  0.30310  0.45905  0.82138  1.0000
  N   N77       1.0  0.02246  0.35648  0.87391  1.0000
  H   H1248     1.0  0.13636  0.41353  0.96331  1.0000
  H   H1249     1.0  0.18022  0.35397  0.91049  1.0000
  H   H1250     1.0  0.31182  0.48003  0.81299  1.0000
  H   H1251     1.0  0.32351  0.37053  0.85380  1.0000
  H   H1252     1.0  0.12981  0.36217  0.88126  1.0000
  C   C792      1.0  0.32939  0.37762  0.84979  1.0000
  N   N78       1.0  0.07681  0.32939  0.92147  1.0000
  C   C793      1.0  0.33014  0.38060  0.86970  1.0000
  H   H1253     1.0  0.18521  0.33639  0.89976  1.0000
  H   H1254     1.0  0.06412  0.34541  0.91408  1.0000
  H   H1255     1.0  0.10147  0.34877  0.89063  1.0000
  S   S320      1.0  0.33268  0.38640  0.92336  1.0000
  H   H1256     1.0  0.32754  0.38209  0.84044  1.0000
  S   S321      1.0  0.32308  0.37077  0.90056  1.0000
  H   H1257     1.0  0.14288  0.38419  0.95208  1.0000
  H   H1258     1.0  0.14917  0.40416  0.97014  1.0000
  C   C794      1.0  0.12379  0.39549  0.96709  1.0000
  S   S322      1.0  0.32575  0.49785  0.84352  1.0000
  H   H1259     1.0  0.32014  0.44939  0.80361  1.0000
  C   C795      1.0  0.10969  0.35247  0.88480  1.0000
  N   N79       1.0  0.17232  0.33763  0.91702  1.0000
  H   H1260     1.0  0.14836  0.33470  0.85074  1.0000
  H   H1261     1.0  0.32779  0.38710  0.87614  1.0000
  H   H1262     1.0  0.31090  0.39887  0.86633  1.0000
  H   H1263     1.0  0.31420  0.47246  0.80030  1.0000
  H   H1264     1.0  0.30748  0.38555  0.86328  1.0000
  C   C796      1.0  0.32362  0.44970  0.81178  1.0000
  H   H1265     1.0  0.32029  0.45109  0.83553  1.0000
  H   H1266     1.0  0.32519  0.37285  0.87426  1.0000
  C   C797      1.0  0.06408  0.33660  0.92108  1.0000
  H   H1267     1.0  0.31580  0.46771  0.83326  1.0000
  H   H1268     1.0  0.11147  0.34434  0.90898  1.0000
  H   H1269     1.0  0.18560  0.34345  0.92361  1.0000
  H   H1270     1.0  0.03080  0.36547  0.88320  1.0000
  H   H1271     1.0  0.14195  0.40059  0.94753  1.0000
  H   H1272     1.0  0.01726  0.33907  0.88322  1.0000
  C   C798      1.0  0.03446  0.35061  0.86702  1.0000
  H   H1273     1.0  0.11615  0.32862  0.89649  1.0000
  H   H1274     1.0  0.02720  0.37449  0.86880  1.0000
  C   C799      1.0  0.02392  0.36773  0.87715  1.0000
  H   H1275     1.0  0.05922  0.33907  0.93016  1.0000
  H   H1276     1.0  0.33179  0.40137  0.84243  1.0000
  H   H1277     1.0  0.08320  0.33454  0.90184  1.0000
  C   C800      1.0  0.01847  0.34766  0.88533  1.0000
  S   S323      1.0  0.32977  0.42204  0.91065  1.0000
  H   H1278     1.0  0.08428  0.34584  0.91775  1.0000
  H   H1279     1.0  0.33053  0.39567  0.81074  1.0000
  H   H1280     1.0  0.13377  0.40640  0.97942  1.0000
  C   C801      1.0  0.08407  0.33690  0.92450  1.0000
  H   H1281     1.0  0.09382  0.33191  0.92452  1.0000
  H   H1282     1.0  0.32723  0.47325  0.80611  1.0000
  H   H1283     1.0  0.05837  0.33133  0.91858  1.0000
  H   H1284     1.0  0.31652  0.92152  0.14276  1.0000
  Fe  Fe158     1.0  0.26041  0.90617  0.11008  1.0000
  S   S324      1.0  0.27653  0.89214  0.10276  1.0000
  S   S325      1.0  0.24023  0.90384  0.11474  1.0000
  Fe  Fe159     1.0  0.27686  0.92544  0.10566  1.0000
  S   S326      1.0  0.29386  0.91298  0.09755  1.0000
  S   S327      1.0  0.27814  0.94512  0.10500  1.0000
  Fe  Fe160     1.0  0.28150  0.90812  0.08788  1.0000
  S   S328      1.0  0.28532  0.90660  0.06805  1.0000
  Fe  Fe161     1.0  0.28739  0.89824  0.11334  1.0000
  S   S329      1.0  0.30276  0.88464  0.12171  1.0000
  S   S330      1.0  0.26491  0.92194  0.09451  1.0000
  S   S331      1.0  0.27083  0.91100  0.12218  1.0000
  H   H1285     1.0  0.14166  0.66605  0.09552  1.0000
  C   C802      1.0  0.13335  0.84379  0.12447  1.0000
  H   H1286     1.0  0.30545  0.97156  0.10664  1.0000
  C   C803      1.0  0.31218  0.86674  0.09911  1.0000
  N   N80       1.0  0.32343  0.94926  0.07211  1.0000
  Fe  Fe162     1.0  0.14426  0.76621  0.09108  1.0000
  S   S332      1.0  0.13120  0.77975  0.10202  1.0000
  S   S333      1.0  0.14724  0.74579  0.09986  1.0000
  Fe  Fe163     1.0  0.15106  0.78625  0.06904  1.0000
  S   S334      1.0  0.13824  0.80154  0.07772  1.0000
  S   S335      1.0  0.16378  0.79131  0.05079  1.0000
  Fe  Fe164     1.0  0.14556  0.79165  0.09479  1.0000
  S   S336      1.0  0.14800  0.80454  0.10573  1.0000
  Fe  Fe165     1.0  0.12486  0.78873  0.08428  1.0000
  S   S337      1.0  0.10466  0.79669  0.08457  1.0000
  S   S338      1.0  0.15951  0.77714  0.08568  1.0000
  S   S339      1.0  0.13683  0.77435  0.07367  1.0000
  H   H1287     1.0  0.31436  0.92427  0.16952  1.0000
  S   S340      1.0  0.15872  0.87531  0.99701  1.0000
  Fe  Fe166     1.0  0.14451  0.84623  0.00478  1.0000
  S   S341      1.0  0.14663  0.85479  0.01954  1.0000
  S   S342      1.0  0.13599  0.82941  0.01106  1.0000
  Fe  Fe167     1.0  0.13980  0.87273  0.00741  1.0000
  S   S343      1.0  0.12669  0.88786  0.01614  1.0000
  Fe  Fe168     1.0  0.16533  0.85648  0.00778  1.0000
  S   S344      1.0  0.18242  0.85157  0.01581  1.0000
  H   H1288     1.0  0.05976  0.68921  0.18408  1.0000
  H   H1289     1.0  0.04488  0.69747  0.18096  1.0000
  Fe  Fe169     1.0  0.09072  0.87954  0.09163  1.0000
  S   S345      1.0  0.09910  0.86070  0.08741  1.0000
  S   S346      1.0  0.10257  0.89233  0.09243  1.0000
  Fe  Fe170     1.0  0.06398  0.87624  0.09508  1.0000
  S   S347      1.0  0.07040  0.85715  0.09102  1.0000
  S   S348      1.0  0.04357  0.88474  0.10059  1.0000
  Fe  Fe171     1.0  0.08399  0.85465  0.10296  1.0000
  S   S349      1.0  0.08775  0.83740  0.11715  1.0000
  Fe  Fe172     1.0  0.08468  0.86531  0.07584  1.0000
  S   S350      1.0  0.08905  0.85986  0.05747  1.0000
  S   S351      1.0  0.07671  0.87311  0.10825  1.0000
  S   S352      1.0  0.07726  0.88475  0.07884  1.0000
  Fe  Fe173     1.0  0.19907  0.87023  0.08919  1.0000
  S   S353      1.0  0.20083  0.86312  0.07197  1.0000
  S   S354      1.0  0.21842  0.87035  0.09163  1.0000
  Fe  Fe174     1.0  0.17129  0.86907  0.09682  1.0000
  S   S355      1.0  0.17139  0.86158  0.08055  1.0000
  S   S356      1.0  0.15338  0.87150  0.11083  1.0000
  Fe  Fe175     1.0  0.18947  0.84959  0.08421  1.0000
  S   S357      1.0  0.19482  0.82947  0.08316  1.0000
  Fe  Fe176     1.0  0.18264  0.87584  0.07003  1.0000
  S   S358      1.0  0.17705  0.88685  0.05233  1.0000
  S   S359      1.0  0.18856  0.85579  0.10152  1.0000
  S   S360      1.0  0.18152  0.88432  0.08612  1.0000
  H   H1290     1.0  0.10357  0.85318  0.12023  1.0000
  Fe  Fe177     1.0  0.11222  0.67115  0.12383  1.0000
  S   S361      1.0  0.09869  0.67301  0.14163  1.0000
  H   H1291     1.0  0.10512  0.67163  0.16549  1.0000
  Fe  Fe178     1.0  0.10625  0.69847  0.11275  1.0000
  S   S362      1.0  0.09185  0.70270  0.12939  1.0000
  S   S363      1.0  0.11043  0.71379  0.09636  1.0000
  Fe  Fe179     1.0  0.10574  0.69008  0.14008  1.0000
  S   S364      1.0  0.10827  0.69687  0.15583  1.0000
  Fe  Fe180     1.0  0.08586  0.68535  0.12957  1.0000
  S   S365      1.0  0.06584  0.68375  0.13645  1.0000
  S   S366      1.0  0.12066  0.68709  0.12347  1.0000
  S   S367      1.0  0.09885  0.68223  0.11171  1.0000
  C   C804      1.0  0.12432  0.83974  0.10923  1.0000
  N   N81       1.0  0.13862  0.89752  0.06000  1.0000
  C   C805      1.0  0.09920  0.69000  0.16941  1.0000
  C   C806      1.0  0.09162  0.69732  0.17770  1.0000
  C   C807      1.0  0.08363  0.69207  0.18811  1.0000
  H   H1292     1.0  0.28663  0.96751  0.10235  1.0000
  H   H1293     1.0  0.09172  0.70708  0.17593  1.0000
  H   H1294     1.0  0.07758  0.69779  0.19439  1.0000
  H   H1295     1.0  0.10318  0.80564  0.05911  1.0000
  S   S368      1.0  0.01181  0.65930  0.13361  1.0000
  C   C808      1.0  0.04902  0.67095  0.13551  1.0000
  C   C809      1.0  0.06010  0.67492  0.12946  1.0000
  C   C810      1.0  0.06641  0.67164  0.11817  1.0000
  C   C811      1.0  0.13846  0.69084  0.08862  1.0000
  H   H1296     1.0  0.13163  0.84643  0.13358  1.0000
  C   C812      1.0  0.23155  0.90912  0.07455  1.0000
  H   H1297     1.0  0.07495  0.67471  0.11342  1.0000
  H   H1298     1.0  0.25623  0.90268  0.06933  1.0000
  C   C813      1.0  0.03244  0.87543  0.10379  1.0000
  C   C814      1.0  0.02030  0.87954  0.11000  1.0000
  H   H1299     1.0  0.11556  0.83329  0.14051  1.0000
  H   H1300     1.0  0.14083  0.91536  0.04874  1.0000
  C   C815      1.0  0.02684  0.85618  0.10394  1.0000
  C   C816      1.0  0.03557  0.86384  0.10053  1.0000
  H   H1301     1.0  0.01780  0.88853  0.11251  1.0000
  H   H1302     1.0  0.09948  0.74435  0.12308  1.0000
  H   H1303     1.0  0.02943  0.84710  0.10161  1.0000
  H   H1304     1.0  0.04473  0.86073  0.09542  1.0000
  C   C817      1.0  0.11659  0.88587  0.09759  1.0000
  C   C818      1.0  0.12498  0.87571  0.09338  1.0000
  C   C819      1.0  0.13660  0.87150  0.09696  1.0000
  C   C820      1.0  0.13960  0.87719  0.10507  1.0000
  C   C821      1.0  0.13107  0.88714  0.10939  1.0000
  C   C822      1.0  0.11977  0.89163  0.10545  1.0000
  H   H1305     1.0  0.12262  0.87129  0.08720  1.0000
  H   H1306     1.0  0.14311  0.86371  0.09368  1.0000
  H   H1307     1.0  0.13328  0.89151  0.11573  1.0000
  H   H1308     1.0  0.11339  0.89954  0.10865  1.0000
  C   C823      1.0  0.18120  0.86154  0.02569  1.0000
  C   C824      1.0  0.17177  0.87214  0.02586  1.0000
  C   C825      1.0  0.17080  0.88009  0.03377  1.0000
  C   C826      1.0  0.17890  0.87718  0.04195  1.0000
  C   C827      1.0  0.18820  0.86645  0.04195  1.0000
  C   C828      1.0  0.18951  0.85877  0.03364  1.0000
  H   H1309     1.0  0.16526  0.87432  0.01983  1.0000
  H   H1310     1.0  0.16364  0.88838  0.03363  1.0000
  H   H1311     1.0  0.19457  0.86420  0.04815  1.0000
  H   H1312     1.0  0.19686  0.85060  0.03351  1.0000
  C   C829      1.0  0.11572  0.88065  0.02748  1.0000
  C   C830      1.0  0.11265  0.87018  0.02571  1.0000
  C   C831      1.0  0.10416  0.86412  0.03482  1.0000
  C   C832      1.0  0.09908  0.86816  0.04597  1.0000
  C   C833      1.0  0.10220  0.87859  0.04781  1.0000
  C   C834      1.0  0.11037  0.88497  0.03846  1.0000
  H   H1313     1.0  0.11671  0.86682  0.01724  1.0000
  H   H1314     1.0  0.10163  0.85622  0.03321  1.0000
  H   H1315     1.0  0.09825  0.88180  0.05638  1.0000
  H   H1316     1.0  0.11270  0.89309  0.03981  1.0000
  C   C835      1.0  0.15619  0.80142  0.03942  1.0000
  C   C836      1.0  0.16189  0.81077  0.03129  1.0000
  C   C837      1.0  0.15569  0.81941  0.02260  1.0000
  C   C838      1.0  0.14408  0.81829  0.02150  1.0000
  C   C839      1.0  0.13869  0.80850  0.02914  1.0000
  C   C840      1.0  0.14454  0.80030  0.03838  1.0000
  H   H1317     1.0  0.17107  0.81141  0.03176  1.0000
  H   H1318     1.0  0.16001  0.82680  0.01660  1.0000
  H   H1319     1.0  0.12994  0.80737  0.02797  1.0000
  H   H1320     1.0  0.14026  0.79288  0.04444  1.0000
  C   C841      1.0  0.16132  0.81104  0.09973  1.0000
  C   C842      1.0  0.16139  0.82236  0.10241  1.0000
  C   C843      1.0  0.17171  0.82797  0.09746  1.0000
  C   C844      1.0  0.18216  0.82214  0.08998  1.0000
  C   C845      1.0  0.18225  0.81066  0.08753  1.0000
  C   C846      1.0  0.17177  0.80519  0.09227  1.0000
  H   H1321     1.0  0.15339  0.82687  0.10820  1.0000
  H   H1322     1.0  0.17159  0.83678  0.09948  1.0000
  H   H1323     1.0  0.19033  0.80609  0.08178  1.0000
  H   H1324     1.0  0.17184  0.79639  0.09027  1.0000
  C   C847      1.0  0.09947  0.80716  0.09459  1.0000
  C   C848      1.0  0.08758  0.81466  0.09522  1.0000
  C   C849      1.0  0.08390  0.82390  0.10226  1.0000
  C   C850      1.0  0.09186  0.82523  0.10918  1.0000
  C   C851      1.0  0.10353  0.81742  0.10893  1.0000
  C   C852      1.0  0.10744  0.80863  0.10141  1.0000
  H   H1325     1.0  0.08140  0.81360  0.08992  1.0000
  H   H1326     1.0  0.07493  0.83001  0.10223  1.0000
  H   H1327     1.0  0.10979  0.81840  0.11416  1.0000
  H   H1328     1.0  0.11671  0.80316  0.10079  1.0000
  C   C853      1.0  0.13749  0.73687  0.09800  1.0000
  C   C854      1.0  0.12832  0.74198  0.09094  1.0000
  C   C855      1.0  0.12024  0.73475  0.09026  1.0000
  C   C856      1.0  0.12105  0.72249  0.09691  1.0000
  C   C857      1.0  0.13026  0.71739  0.10391  1.0000
  C   C858      1.0  0.13859  0.72448  0.10425  1.0000
  H   H1329     1.0  0.12737  0.75153  0.08609  1.0000
  H   H1330     1.0  0.11316  0.73877  0.08479  1.0000
  H   H1331     1.0  0.13107  0.70797  0.10903  1.0000
  H   H1332     1.0  0.14575  0.72045  0.10960  1.0000
  C   C859      1.0  0.30831  0.88928  0.13255  1.0000
  C   C860      1.0  0.32055  0.88435  0.13419  1.0000
  C   C861      1.0  0.32501  0.88757  0.14311  1.0000
  C   C862      1.0  0.31710  0.89540  0.15075  1.0000
  C   C863      1.0  0.30484  0.90027  0.14915  1.0000
  C   C864      1.0  0.30052  0.89741  0.13994  1.0000
  H   H1333     1.0  0.32660  0.87799  0.12856  1.0000
  H   H1334     1.0  0.04265  0.66421  0.18826  1.0000
  H   H1335     1.0  0.30304  0.88420  0.08101  1.0000
  H   H1336     1.0  0.29103  0.90113  0.13884  1.0000
  C   C865      1.0  0.29887  0.91173  0.05963  1.0000
  C   C866      1.0  0.29981  0.91706  0.04707  1.0000
  C   C867      1.0  0.31065  0.92113  0.04021  1.0000
  C   C868      1.0  0.32071  0.91940  0.04582  1.0000
  C   C869      1.0  0.31989  0.91385  0.05832  1.0000
  C   C870      1.0  0.30884  0.91029  0.06529  1.0000
  H   H1337     1.0  0.29210  0.91818  0.04268  1.0000
  H   H1338     1.0  0.31130  0.92541  0.03053  1.0000
  S   S369      1.0  0.07269  0.67327  0.20287  1.0000
  H   H1339     1.0  0.30817  0.90614  0.07495  1.0000
  C   C871      1.0  0.23426  0.89413  0.10871  1.0000
  C   C872      1.0  0.22133  0.89576  0.10999  1.0000
  C   C873      1.0  0.21625  0.88859  0.10486  1.0000
  C   C874      1.0  0.22409  0.87960  0.09849  1.0000
  C   C875      1.0  0.23701  0.87785  0.09737  1.0000
  C   C876      1.0  0.24207  0.88507  0.10242  1.0000
  H   H1340     1.0  0.21519  0.90269  0.11491  1.0000
  H   H1341     1.0  0.20630  0.89000  0.10586  1.0000
  H   H1342     1.0  0.24316  0.87090  0.09251  1.0000
  H   H1343     1.0  0.25202  0.88359  0.10149  1.0000
  C   C877      1.0  0.31323  0.95227  0.11251  1.0000
  C   C878      1.0  0.31153  0.94008  0.11437  1.0000
  C   C879      1.0  0.30090  0.93777  0.11193  1.0000
  C   C880      1.0  0.29182  0.94765  0.10770  1.0000
  C   C881      1.0  0.29364  0.95982  0.10560  1.0000
  C   C882      1.0  0.30435  0.96213  0.10790  1.0000
  H   H1344     1.0  0.31833  0.93237  0.11792  1.0000
  H   H1345     1.0  0.29958  0.92836  0.11363  1.0000
  H   H1346     1.0  0.14109  0.67318  0.06781  1.0000
  H   H1347     1.0  0.12134  0.90016  0.05426  1.0000
  N   N82       1.0  0.00775  0.68158  0.09916  1.0000
  C   C883      1.0  0.06237  0.67128  0.17157  1.0000
  H   H1348     1.0  0.30364  0.94880  0.13725  1.0000
  H   H1349     1.0  0.32828  0.92324  0.14974  1.0000
  H   H1350     1.0  0.14133  0.90383  0.04028  1.0000
  H   H1351     1.0  0.10991  0.85591  0.13196  1.0000
  C   C884      1.0  0.31224  0.87820  0.07820  1.0000
  C   C885      1.0  0.12492  0.90103  0.06214  1.0000
  C   C886      1.0  0.09129  0.67206  0.18231  1.0000
  H   H1352     1.0  0.32488  0.93377  0.13598  1.0000
  H   H1353     1.0  0.14039  0.90922  0.07133  1.0000
  H   H1354     1.0  0.12581  0.67289  0.10068  1.0000
  S   S370      1.0  0.33344  0.98599  0.09247  1.0000
  H   H1355     1.0  0.31051  0.87020  0.07543  1.0000
  H   H1356     1.0  0.00890  0.68479  0.11657  1.0000
  N   N83       1.0  0.22333  0.83113  0.10130  1.0000
  C   C887      1.0  0.21329  0.82399  0.10599  1.0000
  C   C888      1.0  0.23551  0.82254  0.10096  1.0000
  C   C889      1.0  0.22205  0.83976  0.10950  1.0000
  C   C890      1.0  0.22247  0.83827  0.08871  1.0000
  H   H1357     1.0  0.21363  0.81844  0.11547  1.0000
  H   H1358     1.0  0.21386  0.81754  0.09990  1.0000
  H   H1359     1.0  0.20397  0.83020  0.10632  1.0000
  H   H1360     1.0  0.24327  0.82767  0.09742  1.0000
  H   H1361     1.0  0.23650  0.81699  0.11032  1.0000
  H   H1362     1.0  0.23676  0.81594  0.09481  1.0000
  H   H1363     1.0  0.22939  0.84542  0.10613  1.0000
  H   H1364     1.0  0.22266  0.83475  0.11911  1.0000
  H   H1365     1.0  0.21299  0.84645  0.10990  1.0000
  H   H1366     1.0  0.22979  0.84392  0.08487  1.0000
  H   H1367     1.0  0.21341  0.84483  0.08873  1.0000
  H   H1368     1.0  0.22320  0.83214  0.08225  1.0000
  N   N84       1.0  0.04799  0.84536  0.13268  1.0000
  C   C891      1.0  0.05381  0.85630  0.12761  1.0000
  C   C892      1.0  0.05133  0.83745  0.12341  1.0000
  C   C893      1.0  0.03434  0.84947  0.13574  1.0000
  C   C894      1.0  0.05255  0.83821  0.14395  1.0000
  H   H1369     1.0  0.05130  0.86267  0.13420  1.0000
  H   H1370     1.0  0.05085  0.86177  0.11892  1.0000
  H   H1371     1.0  0.06411  0.85352  0.12544  1.0000
  H   H1372     1.0  0.12036  0.90484  0.99061  1.0000
  H   H1373     1.0  0.06155  0.83397  0.12118  1.0000
  H   H1374     1.0  0.04685  0.82925  0.12676  1.0000
  H   H1375     1.0  0.03147  0.85517  0.14297  1.0000
  H   H1376     1.0  0.02955  0.84148  0.13910  1.0000
  H   H1377     1.0  0.03070  0.85529  0.12753  1.0000
  H   H1378     1.0  0.05030  0.84392  0.15112  1.0000
  H   H1379     1.0  0.06283  0.83495  0.14188  1.0000
  C   C895      1.0  0.11791  0.82955  0.04465  1.0000
  H   H1380     1.0  0.23509  0.90275  0.06791  1.0000
  H   H1381     1.0  0.31213  0.89089  0.09518  1.0000
  C   C896      1.0  0.05041  0.66057  0.11898  1.0000
  H   H1382     1.0  0.25172  0.90404  0.08527  1.0000
  N   N85       1.0  0.24032  0.91715  0.07341  1.0000
  H   H1383     1.0  0.30479  0.95453  0.08207  1.0000
  H   H1384     1.0  0.24180  0.93123  0.08216  1.0000
  H   H1385     1.0  0.03587  0.66046  0.13530  1.0000
  H   H1386     1.0  0.23388  0.91957  0.09221  1.0000
  C   C897      1.0  0.25242  0.90940  0.07560  1.0000
  H   H1387     1.0  0.14525  0.68801  0.06507  1.0000
  H   H1388     1.0  0.33166  0.92161  0.01180  1.0000
  H   H1389     1.0  0.32640  0.88223  0.09936  1.0000
  H   H1390     1.0  0.32492  0.94199  0.15875  1.0000
  H   H1391     1.0  0.32042  0.95197  0.14505  1.0000
  H   H1392     1.0  0.18249  0.86261  0.98762  1.0000
  H   H1393     1.0  0.10751  0.90082  0.98709  1.0000
  C   C898      1.0  0.11230  0.85383  0.12254  1.0000
  C   C899      1.0  0.01483  0.86014  0.11044  1.0000
  H   H1394     1.0  0.10474  0.72886  0.12025  1.0000
  H   H1395     1.0  0.11561  0.86195  0.11602  1.0000
  C   C900      1.0  0.01011  0.88091  0.08111  1.0000
  H   H1396     1.0  0.13749  0.85115  0.11742  1.0000
  H   H1397     1.0  0.13889  0.89384  0.07935  1.0000
  H   H1398     1.0  0.12816  0.84723  0.10212  1.0000
  H   H1399     1.0  0.11532  0.73926  0.11605  1.0000
  H   H1400     1.0  0.04411  0.67340  0.14425  1.0000
  H   H1401     1.0  0.10199  0.72496  0.15417  1.0000
  H   H1402     1.0  0.09190  0.73668  0.14535  1.0000
  C   C901      1.0  0.08342  0.67946  0.19039  1.0000
  H   H1403     1.0  0.11568  0.83899  0.10680  1.0000
  H   H1404     1.0  0.13108  0.83084  0.10843  1.0000
  N   N86       1.0  0.16847  0.82994  0.05589  1.0000
  C   C902      1.0  0.16925  0.81647  0.05789  1.0000
  C   C903      1.0  0.16417  0.83616  0.04426  1.0000
  C   C904      1.0  0.18086  0.83235  0.05509  1.0000
  C   C905      1.0  0.15961  0.83477  0.06634  1.0000
  H   H1405     1.0  0.16012  0.81432  0.05828  1.0000
  H   H1406     1.0  0.17217  0.81145  0.06670  1.0000
  H   H1407     1.0  0.17610  0.81237  0.05040  1.0000
  H   H1408     1.0  0.15491  0.83443  0.04444  1.0000
  H   H1409     1.0  0.16349  0.84636  0.04243  1.0000
  H   H1410     1.0  0.17070  0.83276  0.03618  1.0000
  H   H1411     1.0  0.18757  0.82966  0.04678  1.0000
  H   H1412     1.0  0.18481  0.82703  0.06329  1.0000
  H   H1413     1.0  0.18044  0.84231  0.05462  1.0000
  H   H1414     1.0  0.16265  0.83026  0.07521  1.0000
  H   H1415     1.0  0.15020  0.83294  0.06729  1.0000
  H   H1416     1.0  0.15877  0.84492  0.06516  1.0000
  N   N87       1.0  0.11070  0.73190  0.13549  1.0000
  C   C906      1.0  0.12091  0.72088  0.13530  1.0000
  C   C907      1.0  0.11479  0.74183  0.13865  1.0000
  C   C908      1.0  0.09976  0.72859  0.14481  1.0000
  C   C909      1.0  0.10739  0.73627  0.12320  1.0000
  H   H1417     1.0  0.12316  0.71689  0.14462  1.0000
  H   H1418     1.0  0.12954  0.72318  0.12891  1.0000
  H   H1419     1.0  0.11842  0.71340  0.13232  1.0000
  H   H1420     1.0  0.11744  0.73880  0.14785  1.0000
  H   H1421     1.0  0.12304  0.74453  0.13172  1.0000
  H   H1422     1.0  0.10734  0.75031  0.13887  1.0000
  H   H1423     1.0  0.09645  0.72116  0.14259  1.0000
  N   N88       1.0  0.12180  0.84232  0.12177  1.0000
  H   H1424     1.0  0.12395  0.82294  0.13022  1.0000
  C   C910      1.0  0.05347  0.69101  0.17751  1.0000
  H   H1425     1.0  0.05132  0.67054  0.19536  1.0000
  H   H1426     1.0  0.14047  0.83506  0.12467  1.0000
  C   C911      1.0  0.11720  0.83187  0.13090  1.0000
  H   H1427     1.0  0.10827  0.83076  0.12941  1.0000
  H   H1428     1.0  0.13957  0.88267  0.05109  1.0000
  H   H1429     1.0  0.13859  0.87822  0.06753  1.0000
  C   C912      1.0  0.14257  0.88435  0.05898  1.0000
  H   H1430     1.0  0.15432  0.90329  0.04682  1.0000
  C   C913      1.0  0.04206  0.68224  0.16792  1.0000
  H   H1431     1.0  0.15284  0.88133  0.05752  1.0000
  N   N89       1.0  0.31924  0.87407  0.08828  1.0000
  H   H1432     1.0  0.23000  0.90324  0.08395  1.0000
  H   H1433     1.0  0.02068  0.68765  0.08271  1.0000
  C   C914      1.0  0.14399  0.90535  0.04844  1.0000
  C   C915      1.0  0.32939  0.95071  0.08161  1.0000
  H   H1434     1.0  0.23310  0.93089  0.05883  1.0000
  C   C916      1.0  0.32111  0.88499  0.09178  1.0000
  H   H1435     1.0  0.31738  0.88366  0.06985  1.0000
  H   H1436     1.0  0.06708  0.67588  0.16239  1.0000
  H   H1437     1.0  0.12149  0.91073  0.06354  1.0000
  H   H1438     1.0  0.15328  0.89647  0.06924  1.0000
  H   H1439     1.0  0.12315  0.69756  0.07271  1.0000
  H   H1440     1.0  0.33004  0.89398  0.01944  1.0000
  H   H1441     1.0  0.30280  0.87222  0.10233  1.0000
  H   H1442     1.0  0.29668  0.93553  0.14398  1.0000
  C   C917      1.0  0.14298  0.89935  0.07043  1.0000
  C   C918      1.0  0.09907  0.67737  0.17174  1.0000
  H   H1443     1.0  0.12680  0.82512  0.04778  1.0000
  C   C919      1.0  0.30068  0.94253  0.14613  1.0000
  H   H1444     1.0  0.12056  0.89497  0.07051  1.0000
  H   H1445     1.0  0.31008  0.95255  0.15975  1.0000
  N   N90       1.0  0.31119  0.93659  0.15243  1.0000
  C   C920      1.0  0.09625  0.82908  0.04733  1.0000
  H   H1446     1.0  0.29962  0.93495  0.17065  1.0000
  C   C921      1.0  0.32061  0.92844  0.14490  1.0000
  H   H1447     1.0  0.09128  0.66228  0.18409  1.0000
  C   C922      1.0  0.14386  0.67949  0.07218  1.0000
  C   C923      1.0  0.31689  0.94620  0.15411  1.0000
  S   S371      1.0  0.32534  0.95490  0.11796  1.0000
  H   H1448     1.0  0.05814  0.69587  0.16844  1.0000
  S   S372      1.0  0.32223  0.89923  0.16240  1.0000
  H   H1449     1.0  0.29859  0.90619  0.15510  1.0000
  H   H1450     1.0  0.29310  0.94822  0.15185  1.0000
  S   S373      1.0  0.16395  0.84629  0.99397  1.0000
  H   H1451     1.0  0.33009  0.94231  0.08910  1.0000
  H   H1452     1.0  0.13938  0.69982  0.08209  1.0000
  H   H1453     1.0  0.03319  0.68842  0.17126  1.0000
  C   C924      1.0  0.01149  0.87193  0.11331  1.0000
  N   N91       1.0  0.05070  0.67937  0.17644  1.0000
  H   H1454     1.0  0.31661  0.96882  0.06665  1.0000
  H   H1455     1.0  0.04842  0.84262  0.11463  1.0000
  C   C925      1.0  0.24204  0.92493  0.06085  1.0000
  H   H1456     1.0  0.01857  0.87396  0.08310  1.0000
  C   C926      1.0  0.30663  0.92913  0.16461  1.0000
  C   C927      1.0  0.11078  0.81026  0.05311  1.0000
  H   H1457     1.0  0.11610  0.83960  0.04472  1.0000
  H   H1458     1.0  0.31089  0.85821  0.09700  1.0000
  H   H1459     1.0  0.01325  0.88893  0.07423  1.0000
  C   C928      1.0  0.06151  0.66453  0.11288  1.0000
  H   H1460     1.0  0.32407  0.95870  0.08595  1.0000
  H   H1461     1.0  0.11927  0.80587  0.05700  1.0000
  H   H1462     1.0  0.33174  0.92993  0.07320  1.0000
  H   H1463     1.0  0.09339  0.83921  0.04696  1.0000
  H   H1464     1.0  0.09775  0.82759  0.03775  1.0000
  C   C929      1.0  0.01606  0.69011  0.09184  1.0000
  H   H1465     1.0  0.12982  0.66434  0.08859  1.0000
  N   N92       1.0  0.10755  0.82377  0.05254  1.0000
  H   H1466     1.0  0.31123  0.93825  0.08535  1.0000
  H   H1467     1.0  0.10347  0.83626  0.06504  1.0000
  H   H1468     1.0  0.11929  0.82876  0.03488  1.0000
  H   H1469     1.0  0.11244  0.80807  0.04382  1.0000
  H   H1470     1.0  0.04832  0.82989  0.14802  1.0000
  N   N93       1.0  0.13442  0.68247  0.08312  1.0000
  H   H1471     1.0  0.33047  0.85797  0.08144  1.0000
  H   H1472     1.0  0.32770  0.91242  0.06264  1.0000
  H   H1473     1.0  0.01087  0.69987  0.09016  1.0000
  H   H1474     1.0  0.32698  0.93764  0.05886  1.0000
  H   H1475     1.0  0.02355  0.68973  0.09670  1.0000
  H   H1476     1.0  0.30626  0.94524  0.07102  1.0000
  H   H1477     1.0  0.11319  0.82151  0.06972  1.0000
  H   H1478     1.0  0.08829  0.82484  0.05303  1.0000
  H   H1479     1.0  0.30225  0.92183  0.16363  1.0000
  H   H1480     1.0  0.33170  0.96318  0.05830  1.0000
  H   H1481     1.0  0.03967  0.67369  0.16696  1.0000
  C   C930      1.0  0.10522  0.82619  0.06512  1.0000
  H   H1482     1.0  0.31697  0.86396  0.10707  1.0000
  H   H1483     1.0  0.24861  0.93112  0.05972  1.0000
  S   S374      1.0  0.13609  0.86413  0.99343  1.0000
  C   C931      1.0  0.23533  0.92517  0.08263  1.0000
  H   H1484     1.0  0.09691  0.82273  0.07100  1.0000
  H   H1485     1.0  0.25944  0.91518  0.07402  1.0000
  H   H1486     1.0  0.24594  0.91913  0.05371  1.0000
  H   H1487     1.0  0.11910  0.68267  0.07515  1.0000
  H   H1488     1.0  0.22232  0.91463  0.07292  1.0000
  H   H1489     1.0  0.32637  0.89081  0.08385  1.0000
  H   H1490     1.0  0.22622  0.93121  0.08127  1.0000
  H   H1491     1.0  0.20510  0.84401  0.99410  1.0000
  H   H1492     1.0  0.04618  0.68695  0.15851  1.0000
  S   S375      1.0  0.00458  0.84982  0.11533  1.0000
  H   H1493     1.0  0.06634  0.66207  0.10410  1.0000
  C   C932      1.0  0.31089  0.94671  0.07788  1.0000
  H   H1494     1.0  0.32596  0.91335  0.00364  1.0000
  H   H1495     1.0  0.03623  0.67887  0.19279  1.0000
  H   H1496     1.0  0.11509  0.69094  0.08749  1.0000
  C   C933      1.0  0.33145  0.86637  0.08408  1.0000
  C   C934      1.0  0.32243  0.96080  0.06260  1.0000
  C   C935      1.0  0.13289  0.67094  0.09233  1.0000
  C   C936      1.0  0.12244  0.68865  0.07941  1.0000
  H   H1497     1.0  0.14753  0.68658  0.09145  1.0000
  H   H1498     1.0  0.06903  0.66892  0.17786  1.0000
  C   C937      1.0  0.33101  0.93882  0.06632  1.0000
  C   C938      1.0  0.04496  0.67298  0.18874  1.0000
  H   H1499     1.0  0.19595  0.86637  0.98985  1.0000
  H   H1500     1.0  0.31828  0.95997  0.05509  1.0000
  H   H1501     1.0  0.15301  0.67480  0.07469  1.0000
  H   H1502     1.0  0.06065  0.66246  0.17050  1.0000
  H   H1503     1.0  0.13160  0.69309  0.09698  1.0000
  H   H1504     1.0  0.19168  0.84041  0.99155  1.0000
  H   H1505     1.0  0.02242  0.66799  0.10642  1.0000
  C   C939      1.0  0.01510  0.66880  0.10123  1.0000
  C   C940      1.0  0.04428  0.66367  0.13037  1.0000
  H   H1506     1.0  0.01987  0.66577  0.09239  1.0000
  H   H1507     1.0  0.12041  0.88903  0.99116  1.0000
  N   N94       1.0  0.00196  0.87556  0.07658  1.0000
  C   C941      1.0  0.20086  0.84283  0.98680  1.0000
  H   H1508     1.0  0.00914  0.66208  0.10663  1.0000
  H   H1509     1.0  0.01181  0.87901  0.05772  1.0000
  H   H1510     1.0  0.00617  0.85744  0.08799  1.0000
  H   H1511     1.0  0.01723  0.86406  0.06666  1.0000
  C   C942      1.0  0.00878  0.87125  0.06509  1.0000
  H   H1512     1.0  0.00225  0.87501  0.11840  1.0000
  H   H1513     1.0  0.00525  0.88421  0.08980  1.0000
  H   H1514     1.0  0.00214  0.67939  0.08335  1.0000
  H   H1515     1.0  0.00288  0.86709  0.06148  1.0000
  C   C943      1.0  0.00184  0.68520  0.11118  1.0000
  H   H1516     1.0  0.28012  0.69078  0.40101  1.0000
  H   H1517     1.0  0.31942  0.77653  0.41022  1.0000
  H   H1518     1.0  0.27757  0.67803  0.43993  1.0000
  S   S376      1.0  0.30246  0.68112  0.38508  1.0000
  C   C944      1.0  0.27280  0.68394  0.43241  1.0000
  H   H1519     1.0  0.09240  0.66922  0.28465  1.0000
  H   H1520     1.0  0.08029  0.68858  0.47988  1.0000
  H   H1521     1.0  0.28872  0.66388  0.42574  1.0000
  H   H1522     1.0  0.27027  0.69360  0.43399  1.0000
  H   H1523     1.0  0.11214  0.67337  0.46597  1.0000
  C   C945      1.0  0.31382  0.68986  0.37682  1.0000
  C   C946      1.0  0.31559  0.69932  0.38165  1.0000
  H   H1524     1.0  0.32995  0.75415  0.41207  1.0000
  H   H1525     1.0  0.29869  0.68689  0.41006  1.0000
  C   C947      1.0  0.33162  0.70431  0.36364  1.0000
  H   H1526     1.0  0.30994  0.70121  0.39039  1.0000
  H   H1527     1.0  0.31961  0.68045  0.36159  1.0000
  C   C948      1.0  0.32104  0.68760  0.36545  1.0000
  H   H1528     1.0  0.08157  0.66638  0.48281  1.0000
  H   H1529     1.0  0.27184  0.70105  0.41130  1.0000
  N   N95       1.0  0.09232  0.67709  0.46748  1.0000
  C   C949      1.0  0.28392  0.67023  0.41845  1.0000
  H   H1530     1.0  0.07901  0.66513  0.30557  1.0000
  H   H1531     1.0  0.29016  0.66929  0.40935  1.0000
  N   N96       1.0  0.28084  0.68319  0.42012  1.0000
  H   H1532     1.0  0.29041  0.69718  0.42034  1.0000
  H   H1533     1.0  0.27547  0.66681  0.41882  1.0000
  H   H1534     1.0  0.26403  0.68076  0.43346  1.0000
  H   H1535     1.0  0.32863  0.94123  0.37069  1.0000
  H   H1536     1.0  0.09074  0.69636  0.46744  1.0000
  C   C950      1.0  0.32876  0.77897  0.40737  1.0000
  C   C951      1.0  0.09112  0.66032  0.28329  1.0000
  H   H1537     1.0  0.26554  0.68825  0.41075  1.0000
  H   H1538     1.0  0.32478  0.76644  0.39219  1.0000
  C   C952      1.0  0.08980  0.68743  0.47400  1.0000
  H   H1539     1.0  0.07367  0.68072  0.46461  1.0000
  C   C953      1.0  0.08341  0.67970  0.45927  1.0000
  C   C954      1.0  0.27427  0.69118  0.41040  1.0000
  C   C955      1.0  0.32457  0.70643  0.37515  1.0000
  C   C956      1.0  0.29238  0.68741  0.41922  1.0000
  C   C957      1.0  0.10513  0.67572  0.46004  1.0000
  H   H1540     1.0  0.10726  0.66818  0.45479  1.0000
  H   H1541     1.0  0.10666  0.68439  0.45327  1.0000
  H   H1542     1.0  0.32786  0.78833  0.40124  1.0000
  H   H1543     1.0  0.08304  0.66234  0.27876  1.0000
  H   H1544     1.0  0.29757  0.68163  0.42647  1.0000
  H   H1545     1.0  0.31185  0.66675  0.41544  1.0000
  H   H1546     1.0  0.08420  0.68840  0.45226  1.0000
  C   C958      1.0  0.32982  0.69488  0.35882  1.0000
  H   H1547     1.0  0.32866  0.69189  0.40235  1.0000
  S   S377      1.0  0.32011  0.66432  0.43751  1.0000
  H   H1548     1.0  0.09633  0.68574  0.48030  1.0000
  Fe  Fe181     1.0  0.30403  0.66303  0.37941  1.0000
  H   H1549     1.0  0.32583  0.71376  0.37889  1.0000
  H   H1550     1.0  0.33147  0.77968  0.41583  1.0000
  H   H1551     1.0  0.09781  0.66306  0.48269  1.0000
  H   H1552     1.0  0.08508  0.67207  0.45421  1.0000
  H   H1553     1.0  0.32912  0.95852  0.38055  1.0000
  H   H1554     1.0  0.33193  0.70971  0.43231  1.0000
  C   C959      1.0  0.09093  0.66550  0.47662  1.0000
  H   H1555     1.0  0.33292  0.93661  0.39169  1.0000
  H   H1556     1.0  0.33339  0.77814  0.38319  1.0000
  Fe  Fe182     1.0  0.11036  0.87360  0.68697  1.0000
  S   S378      1.0  0.09609  0.86912  0.70420  1.0000
  S   S379      1.0  0.12220  0.86150  0.67372  1.0000
  Fe  Fe183     1.0  0.10757  0.89977  0.69007  1.0000
  S   S380      1.0  0.09267  0.89801  0.70713  1.0000
  S   S381      1.0  0.11647  0.91613  0.68146  1.0000
  Fe  Fe184     1.0  0.10492  0.87963  0.71293  1.0000
  Fe  Fe185     1.0  0.08509  0.88788  0.69688  1.0000
  S   S382      1.0  0.06466  0.89202  0.69604  1.0000
  S   S383      1.0  0.12022  0.88212  0.69629  1.0000
  S   S384      1.0  0.09892  0.89160  0.67928  1.0000
  Fe  Fe186     1.0  0.02345  0.91401  0.62814  1.0000
  S   S385      1.0  0.02343  0.93384  0.62747  1.0000
  Fe  Fe187     1.0  0.03587  0.89334  0.61453  1.0000
  S   S386      1.0  0.02746  0.87911  0.62958  1.0000
  S   S387      1.0  0.05007  0.89005  0.59752  1.0000
  Fe  Fe188     1.0  0.03226  0.88834  0.64256  1.0000
  S   S388      1.0  0.04337  0.87666  0.65694  1.0000
  S   S389      1.0  0.01809  0.90727  0.61382  1.0000
  S   S390      1.0  0.04199  0.90130  0.62738  1.0000
  Fe  Fe189     1.0  0.10276  0.83153  0.62905  1.0000
  S   S391      1.0  0.12173  0.82900  0.61673  1.0000
  S   S392      1.0  0.09631  0.83435  0.64877  1.0000
  Fe  Fe190     1.0  0.08995  0.83191  0.60864  1.0000
  S   S393      1.0  0.10751  0.83014  0.59443  1.0000
  S   S394      1.0  0.07124  0.83291  0.60513  1.0000
  Fe  Fe191     1.0  0.11509  0.81557  0.60945  1.0000
  S   S395      1.0  0.12680  0.79713  0.60527  1.0000
  Fe  Fe192     1.0  0.11251  0.84369  0.60277  1.0000
  S   S396      1.0  0.12075  0.85989  0.59076  1.0000
  S   S397      1.0  0.09708  0.81664  0.62327  1.0000
  S   S398      1.0  0.09402  0.84695  0.61543  1.0000
  Fe  Fe193     1.0  0.10957  0.92426  0.61220  1.0000
  S   S399      1.0  0.08902  0.92897  0.61900  1.0000
  S   S400      1.0  0.11803  0.90373  0.61715  1.0000
  Fe  Fe194     1.0  0.11136  0.95182  0.60359  1.0000
  S   S401      1.0  0.09071  0.95844  0.60934  1.0000
  S   S402      1.0  0.12356  0.96613  0.59419  1.0000
  Fe  Fe195     1.0  0.09274  0.94379  0.62633  1.0000
  S   S403      1.0  0.08175  0.94654  0.64501  1.0000
  Fe  Fe196     1.0  0.08874  0.94307  0.60145  1.0000
  S   S404      1.0  0.07402  0.94322  0.59135  1.0000
  S   S405      1.0  0.11344  0.93796  0.62127  1.0000
  S   S406      1.0  0.10924  0.93752  0.59395  1.0000
  Fe  Fe197     1.0  0.13158  0.67253  0.50242  1.0000
  S   S407      1.0  0.14313  0.68576  0.50319  1.0000
  H   H1557     1.0  0.13347  0.92431  0.69088  1.0000
  Fe  Fe198     1.0  0.11625  0.74753  0.57135  1.0000
  S   S408      1.0  0.10729  0.73346  0.58623  1.0000
  S   S409      1.0  0.11047  0.76790  0.57307  1.0000
  Fe  Fe199     1.0  0.12669  0.72871  0.55382  1.0000
  S   S410      1.0  0.11820  0.71372  0.56737  1.0000
  S   S411      1.0  0.13833  0.72578  0.53515  1.0000
  Fe  Fe200     1.0  0.10153  0.72874  0.57096  1.0000
  S   S412      1.0  0.08219  0.72637  0.57232  1.0000
  Fe  Fe201     1.0  0.12491  0.71997  0.58113  1.0000
  S   S413      1.0  0.13327  0.70473  0.59514  1.0000
  S   S414      1.0  0.10942  0.74338  0.55622  1.0000
  S   S415      1.0  0.13457  0.73428  0.56741  1.0000
  H   H1558     1.0  0.11134  0.90814  0.65599  1.0000
  S   S416      1.0  0.07865  0.67311  0.60471  1.0000
  H   H1559     1.0  0.13673  0.90264  0.66180  1.0000
  C   C960      1.0  0.14077  0.98692  0.61330  1.0000
  H   H1560     1.0  0.11564  0.88540  0.65608  1.0000
  S   S417      1.0  0.17797  0.67043  0.56662  1.0000
  C   C961      1.0  0.14585  0.69526  0.58734  1.0000
  C   C962      1.0  0.15128  0.69961  0.57508  1.0000
  C   C963      1.0  0.16126  0.69199  0.56879  1.0000
  C   C964      1.0  0.16553  0.67984  0.57461  1.0000
  C   C965      1.0  0.15986  0.67532  0.58675  1.0000
  C   C966      1.0  0.15020  0.68312  0.59321  1.0000
  H   H1561     1.0  0.14792  0.70893  0.57045  1.0000
  H   H1562     1.0  0.16556  0.69551  0.55938  1.0000
  H   H1563     1.0  0.09808  0.83597  0.70333  1.0000
  H   H1564     1.0  0.14597  0.67971  0.60268  1.0000
  C   C967      1.0  0.08069  0.71173  0.58147  1.0000
  C   C968      1.0  0.08590  0.70743  0.59199  1.0000
  C   C969      1.0  0.08484  0.69570  0.59929  1.0000
  C   C970      1.0  0.07906  0.68802  0.59580  1.0000
  C   C971      1.0  0.07389  0.69226  0.58524  1.0000
  C   C972      1.0  0.07453  0.70422  0.57818  1.0000
  H   H1565     1.0  0.09067  0.71319  0.59457  1.0000
  H   H1566     1.0  0.08876  0.69248  0.60751  1.0000
  H   H1567     1.0  0.06942  0.68635  0.58250  1.0000
  H   H1568     1.0  0.07057  0.70751  0.56999  1.0000
  C   C973      1.0  0.14026  0.69701  0.51239  1.0000
  C   C974      1.0  0.14794  0.70569  0.50854  1.0000
  C   C975      1.0  0.14705  0.71433  0.51566  1.0000
  C   C976      1.0  0.13849  0.71449  0.52685  1.0000
  C   C977      1.0  0.13069  0.70581  0.53088  1.0000
  C   C978      1.0  0.13156  0.69706  0.52361  1.0000
  H   H1569     1.0  0.15472  0.70572  0.49997  1.0000
  H   H1570     1.0  0.15309  0.72096  0.51246  1.0000
  H   H1571     1.0  0.12400  0.70589  0.53950  1.0000
  H   H1572     1.0  0.12561  0.69035  0.52672  1.0000
  H   H1573     1.0  0.10128  0.89868  0.73285  1.0000
  C   C979      1.0  0.20556  0.67305  0.58222  1.0000
  C   C980      1.0  0.12177  0.78871  0.59695  1.0000
  C   C981      1.0  0.11144  0.79384  0.59144  1.0000
  C   C982      1.0  0.10812  0.78730  0.58424  1.0000
  C   C983      1.0  0.11490  0.77543  0.58266  1.0000
  C   C984      1.0  0.12509  0.77018  0.58835  1.0000
  C   C985      1.0  0.12857  0.77684  0.59536  1.0000
  H   H1574     1.0  0.10607  0.80292  0.59261  1.0000
  H   H1575     1.0  0.10025  0.79148  0.57987  1.0000
  H   H1576     1.0  0.13042  0.76108  0.58718  1.0000
  H   H1577     1.0  0.13656  0.77277  0.59959  1.0000
  C   C986      1.0  0.11973  0.87214  0.59811  1.0000
  C   C987      1.0  0.11616  0.87074  0.61095  1.0000
  C   C988      1.0  0.11553  0.88055  0.61664  1.0000
  C   C989      1.0  0.11822  0.89193  0.60954  1.0000
  C   C990      1.0  0.12176  0.89335  0.59669  1.0000
  C   C991      1.0  0.12252  0.88348  0.59100  1.0000
  H   H1578     1.0  0.11407  0.86203  0.61654  1.0000
  H   H1579     1.0  0.11291  0.87927  0.62659  1.0000
  H   H1580     1.0  0.12416  0.90196  0.59115  1.0000
  H   H1581     1.0  0.12538  0.88460  0.58107  1.0000
  C   C992      1.0  0.03687  0.93752  0.61689  1.0000
  C   C993      1.0  0.04374  0.94488  0.61941  1.0000
  C   C994      1.0  0.05522  0.94663  0.61167  1.0000
  C   C995      1.0  0.05944  0.94170  0.60095  1.0000
  C   C996      1.0  0.05215  0.93500  0.59806  1.0000
  C   C997      1.0  0.04112  0.93256  0.60621  1.0000
  H   H1582     1.0  0.04031  0.94901  0.62746  1.0000
  H   H1583     1.0  0.06071  0.95198  0.61386  1.0000
  H   H1584     1.0  0.05522  0.93133  0.58970  1.0000
  H   H1585     1.0  0.03585  0.92694  0.60413  1.0000
  C   C998      1.0  0.05541  0.87417  0.59812  1.0000
  C   C999      1.0  0.04758  0.86585  0.60429  1.0000
  C   C1000     1.0  0.05228  0.85307  0.60579  1.0000
  C   C1001     1.0  0.06488  0.84866  0.60141  1.0000
  C   C1002     1.0  0.07262  0.85696  0.59493  1.0000
  C   C1003     1.0  0.06781  0.86972  0.59303  1.0000
  H   H1586     1.0  0.03788  0.86928  0.60778  1.0000
  H   H1587     1.0  0.04627  0.84662  0.61069  1.0000
  H   H1588     1.0  0.08234  0.85354  0.59139  1.0000
  H   H1589     1.0  0.07378  0.87612  0.58789  1.0000
  C   C1004     1.0  0.05914  0.88826  0.68453  1.0000
  C   C1005     1.0  0.04632  0.89117  0.68482  1.0000
  C   C1006     1.0  0.04151  0.88850  0.67580  1.0000
  C   C1007     1.0  0.04946  0.88255  0.66657  1.0000
  C   C1008     1.0  0.06230  0.87954  0.66632  1.0000
  C   C1009     1.0  0.06715  0.88255  0.67514  1.0000
  H   H1590     1.0  0.04004  0.89546  0.69211  1.0000
  H   H1591     1.0  0.03158  0.89049  0.67636  1.0000
  H   H1592     1.0  0.06851  0.87462  0.65944  1.0000
  H   H1593     1.0  0.07704  0.88018  0.67485  1.0000
  C   C1010     1.0  0.10643  0.92633  0.67242  1.0000
  C   C1011     1.0  0.11109  0.93435  0.66176  1.0000
  C   C1012     1.0  0.10341  0.94088  0.65339  1.0000
  C   C1013     1.0  0.09099  0.93977  0.65600  1.0000
  C   C1014     1.0  0.08612  0.93250  0.66714  1.0000
  C   C1015     1.0  0.09391  0.92555  0.67522  1.0000
  H   H1594     1.0  0.12076  0.93503  0.65963  1.0000
  H   H1595     1.0  0.10711  0.94675  0.64491  1.0000
  H   H1596     1.0  0.07645  0.93185  0.66932  1.0000
  H   H1597     1.0  0.09024  0.91947  0.68354  1.0000
  C   C1016     1.0  0.11454  0.85599  0.66524  1.0000
  C   C1017     1.0  0.12159  0.84965  0.65589  1.0000
  C   C1018     1.0  0.11591  0.84373  0.65010  1.0000
  C   C1019     1.0  0.10317  0.84389  0.65383  1.0000
  C   C1020     1.0  0.09604  0.85061  0.66288  1.0000
  C   C1021     1.0  0.10167  0.85681  0.66843  1.0000
  H   H1598     1.0  0.13154  0.84902  0.65335  1.0000
  H   H1599     1.0  0.12147  0.83852  0.64318  1.0000
  H   H1600     1.0  0.08618  0.85078  0.66581  1.0000
  H   H1601     1.0  0.09614  0.86175  0.67558  1.0000
  H   H1602     1.0  0.08236  0.75333  0.56315  1.0000
  H   H1603     1.0  0.13398  0.92835  0.72208  1.0000
  S   S418      1.0  0.08603  0.67299  0.50583  1.0000
  C   C1022     1.0  0.13008  0.97395  0.60183  1.0000
  H   H1604     1.0  0.19820  0.67657  0.57659  1.0000
  C   C1023     1.0  0.07525  0.66637  0.54329  1.0000
  H   H1605     1.0  0.10539  0.66195  0.59393  1.0000
  H   H1606     1.0  0.21469  0.67317  0.57573  1.0000
  H   H1607     1.0  0.14720  0.89012  0.63925  1.0000
  Fe  Fe202     1.0  0.00983  0.89368  0.62982  1.0000
  H   H1608     1.0  0.12312  0.91686  0.64782  1.0000
  H   H1609     1.0  0.18493  0.66385  0.59253  1.0000
  C   C1024     1.0  0.15493  0.66230  0.53003  1.0000
  H   H1610     1.0  0.13711  0.90060  0.62973  1.0000
  C   C1025     1.0  0.14072  0.82509  0.58462  1.0000
  C   C1026     1.0  0.13143  0.81758  0.57187  1.0000
  S   S419      1.0  0.11960  0.67636  0.48840  1.0000
  H   H1611     1.0  0.14556  0.91458  0.71998  1.0000
  N   N97       1.0  0.12903  0.89718  0.64912  1.0000
  H   H1612     1.0  0.14391  0.90651  0.63896  1.0000
  H   H1613     1.0  0.12511  0.89358  0.66892  1.0000
  H   H1614     1.0  0.14940  0.82643  0.58643  1.0000
  H   H1615     1.0  0.14359  0.83615  0.56073  1.0000
  H   H1616     1.0  0.05071  0.67293  0.64520  1.0000
  C   C1027     1.0  0.12883  0.97126  0.61468  1.0000
  H   H1617     1.0  0.14716  0.92085  0.69723  1.0000
  C   C1028     1.0  0.10784  0.83696  0.69913  1.0000
  H   H1618     1.0  0.12782  0.89913  0.71832  1.0000
  C   C1029     1.0  0.07729  0.67027  0.52099  1.0000
  H   H1619     1.0  0.13777  0.66369  0.59320  1.0000
  H   H1620     1.0  0.12132  0.80638  0.70264  1.0000
  H   H1621     1.0  0.14026  0.88618  0.66214  1.0000
  S   S420      1.0  0.01385  0.90165  0.64437  1.0000
  H   H1622     1.0  0.10322  0.67455  0.58110  1.0000
  C   C1030     1.0  0.11938  0.90866  0.64808  1.0000
  H   H1623     1.0  0.17786  0.67888  0.52099  1.0000
  N   N98       1.0  0.11544  0.82564  0.69486  1.0000
  S   S421      1.0  0.11791  0.66426  0.51821  1.0000
  C   C1031     1.0  0.04825  0.68058  0.62152  1.0000
  H   H1624     1.0  0.09089  0.76463  0.56318  1.0000
  N   N99       1.0  0.08348  0.90355  0.59609  1.0000
  C   C1032     1.0  0.08832  0.89003  0.59847  1.0000
  C   C1033     1.0  0.07402  0.90681  0.60693  1.0000
  C   C1034     1.0  0.07784  0.90725  0.58506  1.0000
  C   C1035     1.0  0.09372  0.91014  0.59393  1.0000
  H   H1625     1.0  0.09516  0.88706  0.59035  1.0000
  H   H1626     1.0  0.08070  0.88484  0.60072  1.0000
  H   H1627     1.0  0.09309  0.88705  0.60642  1.0000
  H   H1628     1.0  0.07086  0.91700  0.60586  1.0000
  H   H1629     1.0  0.06571  0.90277  0.60822  1.0000
  H   H1630     1.0  0.07777  0.90343  0.61554  1.0000
  H   H1631     1.0  0.06997  0.90258  0.58635  1.0000
  H   H1632     1.0  0.08471  0.90484  0.57674  1.0000
  H   H1633     1.0  0.07416  0.91743  0.58302  1.0000
  H   H1634     1.0  0.10133  0.90741  0.58622  1.0000
  H   H1635     1.0  0.09768  0.90824  0.60232  1.0000
  H   H1636     1.0  0.09051  0.92034  0.59147  1.0000
  H   H1637     1.0  0.10613  0.81345  0.70992  1.0000
  H   H1638     1.0  0.12507  0.82670  0.56980  1.0000
  H   H1639     1.0  0.15341  0.80178  0.56878  1.0000
  H   H1640     1.0  0.13433  0.81906  0.68618  1.0000
  H   H1641     1.0  0.04824  0.66596  0.53591  1.0000
  H   H1642     1.0  0.11182  0.91817  0.72098  1.0000
  H   H1643     1.0  0.12057  0.68534  0.56995  1.0000
  H   H1644     1.0  0.11970  0.81679  0.71270  1.0000
  C   C1036     1.0  0.15134  0.80666  0.57659  1.0000
  N   N100      1.0  0.14324  0.81902  0.57398  1.0000
  H   H1645     1.0  0.04071  0.68891  0.62237  1.0000
  H   H1646     1.0  0.13331  0.97538  0.63028  1.0000
  H   H1647     1.0  0.12380  0.96418  0.62023  1.0000
  H   H1648     1.0  0.13087  0.87779  0.64960  1.0000
  H   H1649     1.0  0.11539  0.81441  0.68228  1.0000
  H   H1650     1.0  0.15846  0.82795  0.56410  1.0000
  H   H1651     1.0  0.16031  0.80733  0.57836  1.0000
  N   N101      1.0  0.07400  0.76449  0.57688  1.0000
  C   C1037     1.0  0.08007  0.75551  0.58647  1.0000
  C   C1038     1.0  0.06144  0.76227  0.57816  1.0000
  C   C1039     1.0  0.07321  0.77721  0.57836  1.0000
  H   H1652     1.0  0.08954  0.75698  0.58583  1.0000
  H   H1653     1.0  0.08100  0.74580  0.58552  1.0000
  H   H1654     1.0  0.07473  0.75635  0.59592  1.0000
  H   H1655     1.0  0.05659  0.76883  0.57103  1.0000
  H   H1656     1.0  0.06191  0.75268  0.57705  1.0000
  H   H1657     1.0  0.05561  0.76331  0.58740  1.0000
  H   H1658     1.0  0.06876  0.78427  0.57124  1.0000
  H   H1659     1.0  0.08264  0.77903  0.57744  1.0000
  H   H1660     1.0  0.06778  0.77875  0.58762  1.0000
  N   N102      1.0  0.05993  0.84562  0.64385  1.0000
  C   C1040     1.0  0.06631  0.85579  0.63662  1.0000
  C   C1041     1.0  0.06048  0.84361  0.65701  1.0000
  C   C1042     1.0  0.06613  0.83414  0.63922  1.0000
  C   C1043     1.0  0.04684  0.84889  0.64251  1.0000
  H   H1661     1.0  0.07610  0.85379  0.63777  1.0000
  H   H1662     1.0  0.06166  0.86468  0.63961  1.0000
  H   H1663     1.0  0.06638  0.85728  0.62658  1.0000
  H   H1664     1.0  0.05567  0.83608  0.66275  1.0000
  H   H1665     1.0  0.07025  0.84105  0.65831  1.0000
  H   H1666     1.0  0.05605  0.85212  0.66080  1.0000
  H   H1667     1.0  0.06169  0.82621  0.64449  1.0000
  H   H1668     1.0  0.07608  0.83150  0.63989  1.0000
  H   H1669     1.0  0.06580  0.83530  0.62936  1.0000
  H   H1670     1.0  0.04181  0.84131  0.64759  1.0000
  H   H1671     1.0  0.04615  0.85079  0.63264  1.0000
  H   H1672     1.0  0.04180  0.85734  0.64619  1.0000
  N   N103      1.0  0.05435  0.92418  0.65332  1.0000
  C   C1044     1.0  0.04915  0.92267  0.66672  1.0000
  C   C1045     1.0  0.06739  0.91736  0.65129  1.0000
  C   C1046     1.0  0.05383  0.93748  0.64790  1.0000
  C   C1047     1.0  0.04704  0.91919  0.64742  1.0000
  H   H1673     1.0  0.03935  0.92774  0.66862  1.0000
  H   H1674     1.0  0.05460  0.92614  0.67148  1.0000
  H   H1675     1.0  0.04935  0.91279  0.67109  1.0000
  H   H1676     1.0  0.07147  0.91796  0.64128  1.0000
  H   H1677     1.0  0.07331  0.92124  0.65511  1.0000
  H   H1678     1.0  0.06815  0.90738  0.65577  1.0000
  H   H1679     1.0  0.04409  0.94269  0.64823  1.0000
  H   H1680     1.0  0.05889  0.93897  0.63810  1.0000
  H   H1681     1.0  0.05816  0.94182  0.65298  1.0000
  H   H1682     1.0  0.05056  0.92049  0.63725  1.0000
  H   H1683     1.0  0.03709  0.92397  0.64890  1.0000
  H   H1684     1.0  0.04737  0.90911  0.65118  1.0000
  N   N104      1.0  0.13050  0.91779  0.71057  1.0000
  H   H1685     1.0  0.16301  0.66589  0.59126  1.0000
  C   C1048     1.0  0.11706  0.92323  0.71244  1.0000
  C   C1049     1.0  0.13700  0.92471  0.69900  1.0000
  C   C1050     1.0  0.13543  0.91859  0.72108  1.0000
  Fe  Fe203     1.0  0.10667  0.66662  0.50393  1.0000
  Fe  Fe204     1.0  0.07316  0.66043  0.59583  1.0000
  H   H1686     1.0  0.10750  0.84511  0.69137  1.0000
  H   H1687     1.0  0.20429  0.67975  0.58825  1.0000
  H   H1688     1.0  0.05678  0.68257  0.62307  1.0000
  H   H1689     1.0  0.06383  0.66011  0.63009  1.0000
  H   H1690     1.0  0.11168  0.83929  0.70610  1.0000
  H   H1691     1.0  0.06081  0.67056  0.51481  1.0000
  C   C1051     1.0  0.13672  0.98315  0.59477  1.0000
  H   H1692     1.0  0.12878  0.90373  0.70198  1.0000
  N   N105      1.0  0.16496  0.66738  0.53180  1.0000
  H   H1693     1.0  0.16297  0.68301  0.51683  1.0000
  C   C1052     1.0  0.12709  0.67745  0.57443  1.0000
  H   H1694     1.0  0.10023  0.82194  0.68926  1.0000
  H   H1695     1.0  0.14715  0.66982  0.52722  1.0000
  H   H1696     1.0  0.11306  0.92286  0.70463  1.0000
  C   C1053     1.0  0.11003  0.82301  0.68555  1.0000
  H   H1697     1.0  0.09189  0.66993  0.53002  1.0000
  C   C1054     1.0  0.12825  0.82750  0.68928  1.0000
  C   C1055     1.0  0.08245  0.66888  0.53129  1.0000
  C   C1056     1.0  0.12964  0.66072  0.59198  1.0000
  S   S422      1.0  0.05385  0.66196  0.59350  1.0000
  H   H1698     1.0  0.11005  0.83064  0.67726  1.0000
  H   H1699     1.0  0.17372  0.66962  0.51257  1.0000
  C   C1057     1.0  0.11566  0.81509  0.70550  1.0000
  H   H1700     1.0  0.14256  0.90027  0.70821  1.0000
  H   H1701     1.0  0.13787  0.98519  0.58482  1.0000
  C   C1058     1.0  0.13252  0.90466  0.70973  1.0000
  H   H1702     1.0  0.12844  0.83520  0.68103  1.0000
  H   H1703     1.0  0.18250  0.66052  0.53759  1.0000
  C   C1059     1.0  0.13424  0.97763  0.62035  1.0000
  C   C1060     1.0  0.14947  0.82673  0.56285  1.0000
  C   C1061     1.0  0.12393  0.88665  0.64861  1.0000
  H   H1704     1.0  0.13617  0.81942  0.59321  1.0000
  H   H1705     1.0  0.12644  0.81192  0.58016  1.0000
  H   H1706     1.0  0.11573  0.91052  0.63951  1.0000
  H   H1707     1.0  0.13296  0.81282  0.56406  1.0000
  C   C1062     1.0  0.13981  0.89866  0.63884  1.0000
  H   H1708     1.0  0.13448  0.83438  0.58308  1.0000
  C   C1063     1.0  0.13301  0.89478  0.66099  1.0000
  H   H1709     1.0  0.13251  0.82992  0.69589  1.0000
  C   C1064     1.0  0.08138  0.76291  0.56452  1.0000
  H   H1710     1.0  0.12103  0.88802  0.63971  1.0000
  H   H1711     1.0  0.07704  0.76943  0.55703  1.0000
  H   H1712     1.0  0.15142  0.82249  0.55461  1.0000
  H   H1713     1.0  0.14684  0.80060  0.58491  1.0000
  N   N106      1.0  0.12075  0.67129  0.58655  1.0000
  H   H1714     1.0  0.11517  0.93311  0.71319  1.0000
  H   H1715     1.0  0.16725  0.67907  0.54288  1.0000
  N   N107      1.0  0.20481  0.66045  0.58957  1.0000
  H   H1716     1.0  0.15242  0.68300  0.53851  1.0000
  C   C1065     1.0  0.04232  0.67124  0.64306  1.0000
  C   C1066     1.0  0.11026  0.66677  0.58495  1.0000
  C   C1067     1.0  0.19248  0.66073  0.59788  1.0000
  C   C1068     1.0  0.06489  0.66938  0.52272  1.0000
  H   H1717     1.0  0.13563  0.93467  0.69928  1.0000
  C   C1069     1.0  0.11601  0.68024  0.59486  1.0000
  C   C1070     1.0  0.15992  0.67509  0.54130  1.0000
  H   H1718     1.0  0.12371  0.68312  0.59705  1.0000
  C   C1071     1.0  0.17015  0.67504  0.52003  1.0000
  C   C1072     1.0  0.14202  0.98962  0.60045  1.0000
  H   H1719     1.0  0.13482  0.68126  0.57541  1.0000
  H   H1720     1.0  0.13106  0.67089  0.56802  1.0000
  H   H1721     1.0  0.15603  0.66957  0.55034  1.0000
  S   S423      1.0  0.11157  0.87281  0.73119  1.0000
  H   H1722     1.0  0.11013  0.68883  0.59056  1.0000
  H   H1723     1.0  0.02546  0.67487  0.62903  1.0000
  C   C1073     1.0  0.05777  0.66678  0.53466  1.0000
  H   H1724     1.0  0.03506  0.66565  0.61815  1.0000
  H   H1725     1.0  0.19075  0.66718  0.60426  1.0000
  C   C1074     1.0  0.06295  0.66514  0.54498  1.0000
  C   C1075     1.0  0.03350  0.66704  0.62778  1.0000
  N   N108      1.0  0.04476  0.66939  0.63026  1.0000
  H   H1726     1.0  0.07915  0.66553  0.55122  1.0000
  H   H1727     1.0  0.03464  0.67931  0.64462  1.0000
  H   H1728     1.0  0.11346  0.66004  0.57867  1.0000
  H   H1729     1.0  0.03969  0.66293  0.64985  1.0000
  H   H1730     1.0  0.00146  0.93087  0.61577  1.0000
  H   H1731     1.0  0.05034  0.67940  0.61177  1.0000
  S   S424      1.0  0.05379  0.66130  0.55976  1.0000
  H   H1732     1.0  0.11033  0.67624  0.60376  1.0000
  H   H1733     1.0  0.21355  0.66227  0.60350  1.0000
  H   H1734     1.0  0.13079  0.91343  0.72996  1.0000
  S   S425      1.0  0.32159  0.83744  0.89502  1.0000
  Fe  Fe205     1.0  0.31804  0.85676  0.88360  1.0000
  S   S426      1.0  0.31533  0.86294  0.86402  1.0000
  H   H1735     1.0  0.11083  0.87625  0.78892  1.0000
  Fe  Fe206     1.0  0.31698  0.88288  0.88644  1.0000
  S   S427      1.0  0.31409  0.89152  0.86714  1.0000
  S   S428      1.0  0.32051  0.89301  0.89938  1.0000
  Fe  Fe207     1.0  0.30084  0.87860  0.87082  1.0000
  S   S429      1.0  0.28075  0.88414  0.86865  1.0000
  H   H1736     1.0  0.20491  0.90581  0.78793  1.0000
  S   S430      1.0  0.30255  0.87137  0.89069  1.0000
  H   H1737     1.0  0.17526  0.92149  0.77763  1.0000
  Fe  Fe208     1.0  0.13269  0.97686  0.83441  1.0000
  N   N109      1.0  0.32755  0.82434  0.93583  1.0000
  S   S431      1.0  0.12524  0.96289  0.82906  1.0000
  H   H1738     1.0  0.11046  0.89302  0.96779  1.0000
  Fe  Fe209     1.0  0.15585  0.86506  0.98396  1.0000
  H   H1739     1.0  0.11789  0.88917  0.78068  1.0000
  Fe  Fe210     1.0  0.15460  0.97891  0.84356  1.0000
  S   S432      1.0  0.17308  0.96835  0.84773  1.0000
  C   C1076     1.0  0.11779  0.89865  0.98594  1.0000
  S   S433      1.0  0.13895  0.96896  0.85231  1.0000
  Fe  Fe211     1.0  0.23594  0.89582  0.82752  1.0000
  S   S434      1.0  0.22419  0.88579  0.84402  1.0000
  S   S435      1.0  0.25686  0.88996  0.82285  1.0000
  Fe  Fe212     1.0  0.21397  0.91654  0.82167  1.0000
  S   S436      1.0  0.20087  0.90837  0.83795  1.0000
  S   S437      1.0  0.20426  0.93375  0.81057  1.0000
  Fe  Fe213     1.0  0.21613  0.90469  0.84820  1.0000
  S   S438      1.0  0.21491  0.90847  0.86682  1.0000
  Fe  Fe214     1.0  0.21015  0.89045  0.83197  1.0000
  S   S439      1.0  0.19665  0.87866  0.83296  1.0000
  S   S440      1.0  0.22857  0.91455  0.83242  1.0000
  S   S441      1.0  0.22250  0.89881  0.81492  1.0000
  Fe  Fe215     1.0  0.13385  0.90424  0.80128  1.0000
  S   S442      1.0  0.15262  0.90850  0.79846  1.0000
  S   S443      1.0  0.12102  0.90284  0.82005  1.0000
  Fe  Fe216     1.0  0.13543  0.90656  0.77356  1.0000
  S   S444      1.0  0.15443  0.91132  0.76860  1.0000
  S   S445      1.0  0.12328  0.90892  0.75952  1.0000
  Fe  Fe217     1.0  0.15849  0.89613  0.78480  1.0000
  S   S446      1.0  0.17787  0.88479  0.78370  1.0000
  Fe  Fe218     1.0  0.14720  0.92329  0.78274  1.0000
  S   S447      1.0  0.15309  0.94106  0.78142  1.0000
  S   S448      1.0  0.14006  0.89029  0.78889  1.0000
  S   S449      1.0  0.12784  0.92007  0.78642  1.0000
  Fe  Fe219     1.0  0.14088  0.90225  0.88063  1.0000
  S   S450      1.0  0.13868  0.92250  0.87970  1.0000
  S   S451      1.0  0.14970  0.89506  0.86316  1.0000
  Fe  Fe220     1.0  0.13319  0.89634  0.90867  1.0000
  S   S452      1.0  0.13028  0.91610  0.91023  1.0000
  S   S453      1.0  0.12949  0.88163  0.92574  1.0000
  Fe  Fe221     1.0  0.12124  0.92047  0.89399  1.0000
  S   S454      1.0  0.10365  0.93491  0.89397  1.0000
  Fe  Fe222     1.0  0.14785  0.91644  0.89600  1.0000
  S   S455      1.0  0.16193  0.92583  0.89820  1.0000
  S   S456      1.0  0.12253  0.90060  0.89344  1.0000
  S   S457      1.0  0.15173  0.89626  0.89581  1.0000
  S   S458      1.0  0.16385  0.87275  0.96419  1.0000
  C   C1077     1.0  0.18825  0.93534  0.78336  1.0000
  C   C1078     1.0  0.13927  0.87901  0.93624  1.0000
  C   C1079     1.0  0.13724  0.87050  0.94745  1.0000
  C   C1080     1.0  0.14475  0.86851  0.95610  1.0000
  C   C1081     1.0  0.15444  0.87487  0.95346  1.0000
  C   C1082     1.0  0.15655  0.88328  0.94220  1.0000
  C   C1083     1.0  0.14891  0.88543  0.93365  1.0000
  H   H1740     1.0  0.12982  0.86548  0.94945  1.0000
  H   H1741     1.0  0.14315  0.86192  0.96472  1.0000
  H   H1742     1.0  0.16404  0.88822  0.94012  1.0000
  H   H1743     1.0  0.15052  0.89201  0.92503  1.0000
  C   C1084     1.0  0.12009  0.89843  0.75213  1.0000
  H   H1744     1.0  0.32781  0.69315  0.83680  1.0000
  H   H1745     1.0  0.32324  0.81705  0.92216  1.0000
  C   C1085     1.0  0.11474  0.88284  0.73914  1.0000
  N   N110      1.0  0.19950  0.85421  0.97711  1.0000
  C   C1086     1.0  0.12642  0.88609  0.75302  1.0000
  H   H1746     1.0  0.30997  0.87157  0.91212  1.0000
  H   H1747     1.0  0.17462  0.89410  0.86510  1.0000
  H   H1748     1.0  0.14490  0.97748  0.88176  1.0000
  C   C1087     1.0  0.12880  0.90067  0.83219  1.0000
  C   C1088     1.0  0.14150  0.89560  0.83069  1.0000
  C   C1089     1.0  0.14766  0.89383  0.84036  1.0000
  C   C1090     1.0  0.14126  0.89721  0.85157  1.0000
  C   C1091     1.0  0.12854  0.90232  0.85316  1.0000
  C   C1092     1.0  0.12229  0.90395  0.84349  1.0000
  H   H1749     1.0  0.14654  0.89266  0.82220  1.0000
  H   H1750     1.0  0.15744  0.88976  0.83919  1.0000
  H   H1751     1.0  0.12351  0.90477  0.86189  1.0000
  H   H1752     1.0  0.11241  0.90768  0.84476  1.0000
  C   C1093     1.0  0.20000  0.91353  0.87505  1.0000
  C   C1094     1.0  0.18938  0.91232  0.87176  1.0000
  C   C1095     1.0  0.17758  0.91598  0.87891  1.0000
  C   C1096     1.0  0.17647  0.92109  0.88917  1.0000
  C   C1097     1.0  0.18708  0.92250  0.89229  1.0000
  C   C1098     1.0  0.19883  0.91860  0.88532  1.0000
  H   H1753     1.0  0.19028  0.90841  0.86385  1.0000
  H   H1754     1.0  0.16937  0.91492  0.87649  1.0000
  H   H1755     1.0  0.18624  0.92632  0.90029  1.0000
  H   H1756     1.0  0.20703  0.91947  0.88792  1.0000
  C   C1099     1.0  0.19166  0.88035  0.81915  1.0000
  C   C1100     1.0  0.17944  0.87951  0.81972  1.0000
  C   C1101     1.0  0.17511  0.88108  0.80885  1.0000
  C   C1102     1.0  0.18319  0.88283  0.79737  1.0000
  C   C1103     1.0  0.19556  0.88321  0.79680  1.0000
  C   C1104     1.0  0.19971  0.88229  0.80765  1.0000
  H   H1757     1.0  0.17335  0.87753  0.82858  1.0000
  H   H1758     1.0  0.16563  0.88051  0.80938  1.0000
  H   H1759     1.0  0.20190  0.88432  0.78794  1.0000
  H   H1760     1.0  0.20926  0.88261  0.80715  1.0000
  C   C1105     1.0  0.18185  0.95907  0.83714  1.0000
  C   C1106     1.0  0.17944  0.96122  0.82528  1.0000
  C   C1107     1.0  0.18661  0.95369  0.81696  1.0000
  C   C1108     1.0  0.19601  0.94381  0.82059  1.0000
  C   C1109     1.0  0.19837  0.94164  0.83246  1.0000
  C   C1110     1.0  0.19136  0.94930  0.84069  1.0000
  H   H1761     1.0  0.17225  0.96883  0.82240  1.0000
  H   H1762     1.0  0.18479  0.95546  0.80776  1.0000
  H   H1763     1.0  0.20565  0.93410  0.83532  1.0000
  H   H1764     1.0  0.19328  0.94759  0.84984  1.0000
  C   C1111     1.0  0.11209  0.97362  0.88259  1.0000
  C   C1112     1.0  0.09975  0.97215  0.88665  1.0000
  C   C1113     1.0  0.09712  0.96021  0.89069  1.0000
  C   C1114     1.0  0.10682  0.94980  0.89099  1.0000
  C   C1115     1.0  0.11911  0.95138  0.88768  1.0000
  C   C1116     1.0  0.12173  0.96324  0.88314  1.0000
  H   H1765     1.0  0.09226  0.98018  0.88623  1.0000
  H   H1766     1.0  0.08758  0.95903  0.89337  1.0000
  H   H1767     1.0  0.12663  0.94347  0.88831  1.0000
  H   H1768     1.0  0.13123  0.96433  0.87998  1.0000
  C   C1117     1.0  0.13351  0.95686  0.81592  1.0000
  C   C1118     1.0  0.14263  0.96247  0.80724  1.0000
  C   C1119     1.0  0.14872  0.95760  0.79662  1.0000
  C   C1120     1.0  0.14574  0.94708  0.79475  1.0000
  C   C1121     1.0  0.13691  0.94129  0.80364  1.0000
  C   C1122     1.0  0.13078  0.94621  0.81414  1.0000
  H   H1769     1.0  0.14477  0.97072  0.80852  1.0000
  H   H1770     1.0  0.15557  0.96209  0.78977  1.0000
  H   H1771     1.0  0.13461  0.93314  0.80235  1.0000
  H   H1772     1.0  0.12383  0.94174  0.82080  1.0000
  C   C1123     1.0  0.27561  0.88278  0.85581  1.0000
  C   C1124     1.0  0.26336  0.88128  0.85763  1.0000
  C   C1125     1.0  0.25772  0.88311  0.84756  1.0000
  C   C1126     1.0  0.26435  0.88620  0.83550  1.0000
  C   C1127     1.0  0.27689  0.88690  0.83361  1.0000
  C   C1128     1.0  0.28251  0.88525  0.84375  1.0000
  H   H1773     1.0  0.25805  0.87912  0.86692  1.0000
  H   H1774     1.0  0.24818  0.88229  0.84916  1.0000
  H   H1775     1.0  0.28211  0.88920  0.82430  1.0000
  H   H1776     1.0  0.29194  0.88651  0.84223  1.0000
  C   C1129     1.0  0.32424  0.86657  0.93622  1.0000
  H   H1777     1.0  0.15863  0.94999  0.90299  1.0000
  C   C1130     1.0  0.31550  0.87312  0.91775  1.0000
  C   C1131     1.0  0.32121  0.88334  0.91395  1.0000
  H   H1778     1.0  0.10584  0.91231  0.74432  1.0000
  C   C1132     1.0  0.12366  0.87831  0.74665  1.0000
  C   C1133     1.0  0.33288  0.70426  0.85970  1.0000
  H   H1779     1.0  0.16627  0.97708  0.87009  1.0000
  C   C1134     1.0  0.21187  0.85705  0.97105  1.0000
  H   H1780     1.0  0.32931  0.83739  0.91848  1.0000
  H   H1781     1.0  0.32203  0.68899  0.85321  1.0000
  H   H1782     1.0  0.19784  0.88289  0.87510  1.0000
  H   H1783     1.0  0.13351  0.88255  0.75852  1.0000
  H   H1784     1.0  0.17218  0.97645  0.88342  1.0000
  H   H1785     1.0  0.08915  0.87998  0.80095  1.0000
  H   H1786     1.0  0.18651  0.92019  0.80584  1.0000
  H   H1787     1.0  0.16733  0.94855  0.87570  1.0000
  C   C1135     1.0  0.32953  0.69283  0.84607  1.0000
  H   H1788     1.0  0.12469  0.91413  0.95623  1.0000
  H   H1789     1.0  0.20711  0.91904  0.79224  1.0000
  H   H1790     1.0  0.08088  0.89553  0.80181  1.0000
  H   H1791     1.0  0.17829  0.93985  0.78375  1.0000
  H   H1792     1.0  0.12252  0.91964  0.97020  1.0000
  C   C1136     1.0  0.31448  0.83018  0.94007  1.0000
  H   H1793     1.0  0.18665  0.90737  0.77905  1.0000
  H   H1794     1.0  0.19020  0.87334  0.97578  1.0000
  C   C1137     1.0  0.32995  0.87683  0.93249  1.0000
  C   C1138     1.0  0.18536  0.91764  0.77723  1.0000
  H   H1795     1.0  0.21115  0.86562  0.96372  1.0000
  C   C1139     1.0  0.33087  0.82652  0.88634  1.0000
  H   H1796     1.0  0.21799  0.84937  0.96663  1.0000
  H   H1797     1.0  0.20890  0.91884  0.77623  1.0000
  H   H1798     1.0  0.19909  0.84458  0.96328  1.0000
  H   H1799     1.0  0.10645  0.88381  0.80839  1.0000
  N   N111      1.0  0.10131  0.94462  0.85706  1.0000
  C   C1140     1.0  0.10223  0.93106  0.86071  1.0000
  C   C1141     1.0  0.09044  0.95086  0.86508  1.0000
  C   C1142     1.0  0.09986  0.94887  0.84408  1.0000
  C   C1143     1.0  0.11275  0.94768  0.85833  1.0000
  H   H1800     1.0  0.11039  0.92611  0.85486  1.0000
  H   H1801     1.0  0.09380  0.92834  0.85986  1.0000
  H   H1802     1.0  0.10332  0.92756  0.87050  1.0000
  H   H1803     1.0  0.09097  0.94749  0.87498  1.0000
  H   H1804     1.0  0.08983  0.96107  0.86296  1.0000
  H   H1805     1.0  0.08162  0.94909  0.86404  1.0000
  H   H1806     1.0  0.09127  0.94684  0.84274  1.0000
  H   H1807     1.0  0.10784  0.94425  0.83778  1.0000
  H   H1808     1.0  0.09946  0.95903  0.84094  1.0000
  H   H1809     1.0  0.11223  0.95788  0.85621  1.0000
  H   H1810     1.0  0.12103  0.94362  0.85193  1.0000
  H   H1811     1.0  0.11450  0.94403  0.86783  1.0000
  H   H1812     1.0  0.18248  0.88617  0.88424  1.0000
  H   H1813     1.0  0.32886  0.81320  0.95390  1.0000
  H   H1814     1.0  0.17417  0.94889  0.89417  1.0000
  H   H1815     1.0  0.16736  0.96132  0.90242  1.0000
  H   H1816     1.0  0.09812  0.89938  0.80915  1.0000
  H   H1817     1.0  0.16561  0.87761  0.88122  1.0000
  H   H1818     1.0  0.17289  0.92197  0.79965  1.0000
  H   H1819     1.0  0.14058  0.90351  0.97603  1.0000
  S   S459      1.0  0.11553  0.98828  0.87596  1.0000
  C   C1144     1.0  0.20330  0.91610  0.78561  1.0000
  H   H1820     1.0  0.31205  0.85726  0.93191  1.0000
  H   H1821     1.0  0.18370  0.90743  0.80116  1.0000
  H   H1822     1.0  0.19162  0.93870  0.79002  1.0000
  C   C1145     1.0  0.18293  0.91765  0.79881  1.0000
  H   H1823     1.0  0.30921  0.82336  0.94662  1.0000
  S   S460      1.0  0.14908  0.98579  0.82511  1.0000
  H   H1824     1.0  0.08402  0.89019  0.78759  1.0000
  Fe  Fe223     1.0  0.32874  0.87527  0.86194  1.0000
  H   H1825     1.0  0.11356  0.89670  0.80031  1.0000
  H   H1826     1.0  0.31386  0.83769  0.94497  1.0000
  H   H1827     1.0  0.19343  0.93872  0.77394  1.0000
  N   N112      1.0  0.25038  0.91765  0.85965  1.0000
  C   C1146     1.0  0.25805  0.91440  0.84794  1.0000
  C   C1147     1.0  0.24678  0.90643  0.86819  1.0000
  C   C1148     1.0  0.23908  0.92685  0.85712  1.0000
  C   C1149     1.0  0.25763  0.92289  0.86538  1.0000
  H   H1828     1.0  0.26682  0.90775  0.84947  1.0000
  H   H1829     1.0  0.26067  0.92268  0.84114  1.0000
  H   H1830     1.0  0.25308  0.90999  0.84354  1.0000
  H   H1831     1.0  0.24014  0.90866  0.87671  1.0000
  H   H1832     1.0  0.24217  0.90162  0.86380  1.0000
  H   H1833     1.0  0.25501  0.89970  0.87110  1.0000
  H   H1834     1.0  0.23294  0.92937  0.86577  1.0000
  H   H1835     1.0  0.23349  0.92308  0.85279  1.0000
  H   H1836     1.0  0.24140  0.93547  0.85073  1.0000
  H   H1837     1.0  0.25217  0.92534  0.87430  1.0000
  H   H1838     1.0  0.26055  0.93136  0.85921  1.0000
  H   H1839     1.0  0.26624  0.91608  0.86735  1.0000
  H   H1840     1.0  0.17863  0.96466  0.87430  1.0000
  C   C1150     1.0  0.16985  0.97069  0.87813  1.0000
  H   H1841     1.0  0.19012  0.86309  0.85785  1.0000
  H   H1842     1.0  0.15532  0.96060  0.87016  1.0000
  H   H1843     1.0  0.17685  0.88427  0.85432  1.0000
  H   H1844     1.0  0.17483  0.86226  0.88432  1.0000
  C   C1151     1.0  0.19365  0.86586  0.86480  1.0000
  C   C1152     1.0  0.17294  0.87054  0.87693  1.0000
  N   N113      1.0  0.33021  0.70519  0.84744  1.0000
  N   N114      1.0  0.16126  0.92771  0.83443  1.0000
  C   C1153     1.0  0.16701  0.93085  0.84318  1.0000
  C   C1154     1.0  0.16700  0.91492  0.83270  1.0000
  C   C1155     1.0  0.16325  0.93643  0.82244  1.0000
  C   C1156     1.0  0.14779  0.92866  0.83940  1.0000
  H   H1845     1.0  0.16561  0.92453  0.85239  1.0000
  H   H1846     1.0  0.16306  0.94052  0.84456  1.0000
  H   H1847     1.0  0.17720  0.93013  0.83975  1.0000
  H   H1848     1.0  0.16278  0.91218  0.82626  1.0000
  H   H1849     1.0  0.17715  0.91386  0.82888  1.0000
  H   H1850     1.0  0.16577  0.90812  0.84161  1.0000
  H   H1851     1.0  0.15874  0.93455  0.81571  1.0000
  H   H1852     1.0  0.17330  0.93579  0.81830  1.0000
  H   H1853     1.0  0.15930  0.94621  0.82346  1.0000
  H   H1854     1.0  0.14324  0.92598  0.83318  1.0000
  H   H1855     1.0  0.14314  0.93831  0.84041  1.0000
  H   H1856     1.0  0.14595  0.92242  0.84861  1.0000
  C   C1157     1.0  0.18121  0.88645  0.86101  1.0000
  H   H1857     1.0  0.19190  0.87089  0.88701  1.0000
  H   H1858     1.0  0.20229  0.86931  0.85979  1.0000
  H   H1859     1.0  0.15007  0.97797  0.89520  1.0000
  N   N115      1.0  0.18429  0.87544  0.87062  1.0000
  H   H1860     1.0  0.19625  0.85738  0.87175  1.0000
  H   H1861     1.0  0.14173  0.96631  0.89579  1.0000
  N   N116      1.0  0.16068  0.96327  0.88587  1.0000
  C   C1158     1.0  0.18936  0.87898  0.87964  1.0000
  H   H1862     1.0  0.18968  0.88993  0.85564  1.0000
  C   C1159     1.0  0.16543  0.95557  0.89686  1.0000
  H   H1863     1.0  0.19029  0.92067  0.76761  1.0000
  H   H1864     1.0  0.15160  0.94952  0.88415  1.0000
  N   N117      1.0  0.18997  0.92168  0.78624  1.0000
  C   C1160     1.0  0.14883  0.97163  0.88984  1.0000
  C   C1161     1.0  0.15861  0.95514  0.87866  1.0000
  H   H1865     1.0  0.16888  0.86788  0.87031  1.0000
  H   H1866     1.0  0.18413  0.85023  0.97206  1.0000
  C   C1162     1.0  0.33375  0.81979  0.94651  1.0000
  H   H1867     1.0  0.10990  0.91522  0.96670  1.0000
  H   H1868     1.0  0.30967  0.83435  0.93216  1.0000
  H   H1869     1.0  0.33369  0.71339  0.86097  1.0000
  H   H1870     1.0  0.32754  0.83751  0.86873  1.0000
  C   C1163     1.0  0.19174  0.86463  0.98280  1.0000
  H   H1871     1.0  0.14269  0.89817  0.96196  1.0000
  C   C1164     1.0  0.12011  0.91283  0.96620  1.0000
  H   H1872     1.0  0.12860  0.86878  0.74739  1.0000
  N   N118      1.0  0.12405  0.90000  0.97277  1.0000
  S   S461      1.0  0.32664  0.85543  0.94963  1.0000
  H   H1873     1.0  0.10551  0.88623  0.77554  1.0000
  H   H1874     1.0  0.14097  0.88759  0.97650  1.0000
  C   C1165     1.0  0.31675  0.86495  0.92899  1.0000
  C   C1166     1.0  0.11093  0.90283  0.74492  1.0000
  H   H1875     1.0  0.31852  0.72326  0.84722  1.0000
  N   N119      1.0  0.09981  0.89405  0.79188  1.0000
  C   C1167     1.0  0.09781  0.90700  0.78492  1.0000
  C   C1168     1.0  0.10888  0.88605  0.78394  1.0000
  C   C1169     1.0  0.08793  0.88975  0.79573  1.0000
  C   C1170     1.0  0.10465  0.89343  0.80292  1.0000
  H   H1876     1.0  0.09065  0.91324  0.79043  1.0000
  H   H1877     1.0  0.09487  0.90776  0.77613  1.0000
  H   H1878     1.0  0.10649  0.91071  0.78239  1.0000
  C   C1171     1.0  0.32813  0.88540  0.92151  1.0000
  H   H1879     1.0  0.31049  0.71062  0.85351  1.0000
  H   H1880     1.0  0.12513  0.89220  0.95715  1.0000
  C   C1172     1.0  0.10834  0.89514  0.73837  1.0000
  H   H1881     1.0  0.19215  0.86084  0.96048  1.0000
  C   C1173     1.0  0.19351  0.85236  0.96782  1.0000
  C   C1174     1.0  0.31826  0.71384  0.84628  1.0000
  C   C1175     1.0  0.13765  0.89724  0.97177  1.0000
  C   C1176     1.0  0.12066  0.89131  0.96713  1.0000
  H   H1882     1.0  0.31602  0.71475  0.83711  1.0000
  H   H1883     1.0  0.12366  0.88151  0.97172  1.0000
  Fe  Fe224     1.0  0.12852  0.98678  0.85782  1.0000
  H   H1884     1.0  0.32341  0.80663  0.93690  1.0000
  H   H1885     1.0  0.33233  0.89346  0.91872  1.0000
  H   H1886     1.0  0.20673  0.83474  0.98291  1.0000
  C   C1177     1.0  0.32799  0.81387  0.93017  1.0000
  H   H1887     1.0  0.32553  0.70079  0.86733  1.0000
  C   C1178     1.0  0.33253  0.82902  0.87345  1.0000
  H   H1888     1.0  0.21663  0.85851  0.97781  1.0000
  S   S462      1.0  0.33262  0.86769  0.88089  1.0000
  H   H1889     1.0  0.66013  0.21728  0.04484  1.0000
  H   H1890     1.0  0.43424  0.11688  0.22426  1.0000
  H   H1891     1.0  0.36406  0.31710  0.04245  1.0000
  H   H1892     1.0  0.39605  0.32187  0.06778  1.0000
  C   C1179     1.0  0.63925  0.28902  0.12536  1.0000
  H   H1893     1.0  0.66660  0.29541  0.12628  1.0000
  S   S463      1.0  0.62430  0.30754  0.10199  1.0000
  S   S464      1.0  0.60958  0.31574  0.13345  1.0000
  Fe  Fe225     1.0  0.48435  0.10942  0.12624  1.0000
  S   S465      1.0  0.47044  0.10661  0.11676  1.0000
  S   S466      1.0  0.50524  0.10595  0.11962  1.0000
  Fe  Fe226     1.0  0.46457  0.11730  0.14783  1.0000
  S   S467      1.0  0.44887  0.11579  0.14018  1.0000
  S   S468      1.0  0.46383  0.12262  0.16565  1.0000
  Fe  Fe227     1.0  0.46103  0.09804  0.13563  1.0000
  S   S469      1.0  0.45162  0.08165  0.14159  1.0000
  Fe  Fe228     1.0  0.45938  0.12447  0.12204  1.0000
  S   S470      1.0  0.44934  0.13856  0.10856  1.0000
  S   S471      1.0  0.47611  0.09890  0.14469  1.0000
  S   S472      1.0  0.47385  0.12797  0.13010  1.0000
  Fe  Fe229     1.0  0.39846  0.12939  0.19966  1.0000
  S   S473      1.0  0.38967  0.12693  0.18525  1.0000
  S   S474      1.0  0.41155  0.14185  0.19750  1.0000
  Fe  Fe230     1.0  0.38751  0.10981  0.21965  1.0000
  S   S475      1.0  0.37809  0.10496  0.20695  1.0000
  H   H1894     1.0  0.64900  0.30502  0.14129  1.0000
  Fe  Fe231     1.0  0.39556  0.10667  0.19269  1.0000
  S   S476      1.0  0.40538  0.09562  0.17803  1.0000
  Fe  Fe232     1.0  0.37284  0.12550  0.20045  1.0000
  S   S477      1.0  0.35279  0.13296  0.19963  1.0000
  S   S478      1.0  0.40569  0.10922  0.20609  1.0000
  S   S479      1.0  0.38096  0.13025  0.21411  1.0000
  Fe  Fe233     1.0  0.38007  0.05628  0.11937  1.0000
  S   S480      1.0  0.39450  0.05494  0.13038  1.0000
  S   S481      1.0  0.38252  0.03961  0.11057  1.0000
  Fe  Fe234     1.0  0.36974  0.08368  0.12056  1.0000
  S   S482      1.0  0.38353  0.08440  0.13104  1.0000
  S   S483      1.0  0.35627  0.10177  0.11745  1.0000
  Fe  Fe235     1.0  0.39744  0.07327  0.11833  1.0000
  S   S484      1.0  0.41580  0.07856  0.10850  1.0000
  Fe  Fe236     1.0  0.37921  0.06626  0.14211  1.0000
  S   S485      1.0  0.37498  0.06464  0.16266  1.0000
  S   S486      1.0  0.38398  0.07416  0.10662  1.0000
  S   S487      1.0  0.36443  0.06604  0.13237  1.0000
  Fe  Fe237     1.0  0.38480  0.17127  0.12780  1.0000
  S   S488      1.0  0.38588  0.17650  0.10738  1.0000
  S   S489      1.0  0.40121  0.17026  0.13579  1.0000
  Fe  Fe238     1.0  0.35894  0.16629  0.13303  1.0000
  S   S490      1.0  0.35789  0.17108  0.11300  1.0000
  C   C1180     1.0  0.58128  0.32542  0.17659  1.0000
  Fe  Fe239     1.0  0.37733  0.16007  0.11027  1.0000
  S   S491      1.0  0.38523  0.14578  0.09850  1.0000
  Fe  Fe240     1.0  0.36650  0.18706  0.11213  1.0000
  S   S492      1.0  0.36190  0.20560  0.09963  1.0000
  S   S493      1.0  0.37774  0.15397  0.13032  1.0000
  S   S494      1.0  0.36593  0.18323  0.13253  1.0000
  H   H1895     1.0  0.62099  0.19215  0.08527  1.0000
  H   H1896     1.0  0.63085  0.13395  0.04565  1.0000
  Fe  Fe241     1.0  0.38935  0.26260  0.09395  1.0000
  S   S495      1.0  0.38715  0.27707  0.10502  1.0000
  S   S496      1.0  0.39269  0.24273  0.10436  1.0000
  Fe  Fe242     1.0  0.38564  0.28184  0.07060  1.0000
  S   S497      1.0  0.38328  0.29769  0.07968  1.0000
  S   S498      1.0  0.38204  0.28742  0.05139  1.0000
  Fe  Fe243     1.0  0.39922  0.28624  0.08821  1.0000
  S   S499      1.0  0.41540  0.29456  0.08760  1.0000
  Fe  Fe244     1.0  0.37146  0.28708  0.09541  1.0000
  S   S500      1.0  0.35240  0.29633  0.10371  1.0000
  S   S501      1.0  0.40270  0.27101  0.07775  1.0000
  S   S502      1.0  0.37258  0.27196  0.08573  1.0000
  Fe  Fe245     1.0  0.62821  0.15853  0.01062  1.0000
  C   C1181     1.0  0.65485  0.14016  0.03710  1.0000
  Fe  Fe246     1.0  0.60232  0.17317  0.00962  1.0000
  Fe  Fe247     1.0  0.34610  0.99361  0.09990  1.0000
  S   S503      1.0  0.58256  0.17547  0.01984  1.0000
  C   C1182     1.0  0.35652  0.16534  0.08427  1.0000
  Fe  Fe248     1.0  0.62344  0.18655  0.00332  1.0000
  S   S504      1.0  0.62996  0.20321  0.00483  1.0000
  S   S505      1.0  0.61349  0.15664  0.00174  1.0000
  S   S506      1.0  0.61621  0.17351  0.02027  1.0000
  Fe  Fe249     1.0  0.60670  0.23856  0.05954  1.0000
  S   S507      1.0  0.61525  0.22176  0.07183  1.0000
  S   S508      1.0  0.59898  0.23520  0.04457  1.0000
  Fe  Fe250     1.0  0.60832  0.25611  0.07569  1.0000
  S   S509      1.0  0.61714  0.24028  0.08906  1.0000
  S   S510      1.0  0.59985  0.27516  0.08040  1.0000
  Fe  Fe251     1.0  0.62835  0.23340  0.07198  1.0000
  S   S511      1.0  0.64836  0.22388  0.06893  1.0000
  Fe  Fe252     1.0  0.60312  0.23036  0.08739  1.0000
  S   S512      1.0  0.59157  0.21930  0.10306  1.0000
  S   S513      1.0  0.62065  0.24993  0.05848  1.0000
  S   S514      1.0  0.59353  0.24645  0.07517  1.0000
  S   S515      1.0  0.64197  0.12261  0.09452  1.0000
  S   S516      1.0  0.63665  0.17151  0.99440  1.0000
  Fe  Fe253     1.0  0.54880  0.15316  0.10631  1.0000
  S   S517      1.0  0.55266  0.16097  0.08598  1.0000
  S   S518      1.0  0.52886  0.15190  0.11506  1.0000
  Fe  Fe254     1.0  0.57516  0.15164  0.10849  1.0000
  S   S519      1.0  0.58129  0.15905  0.08837  1.0000
  S   S520      1.0  0.58915  0.14844  0.12029  1.0000
  Fe  Fe255     1.0  0.56337  0.17277  0.09033  1.0000
  S   S521      1.0  0.56443  0.19199  0.07935  1.0000
  Fe  Fe256     1.0  0.57027  0.14666  0.08560  1.0000
  S   S522      1.0  0.57853  0.13635  0.07009  1.0000
  S   S523      1.0  0.55791  0.16642  0.11080  1.0000
  S   S524      1.0  0.56569  0.13773  0.10569  1.0000
  C   C1183     1.0  0.62733  0.12930  0.10220  1.0000
  C   C1184     1.0  0.61659  0.12755  0.09954  1.0000
  C   C1185     1.0  0.60483  0.13348  0.10501  1.0000
  C   C1186     1.0  0.60375  0.14061  0.11369  1.0000
  C   C1187     1.0  0.61446  0.14191  0.11677  1.0000
  C   C1188     1.0  0.62626  0.13657  0.11075  1.0000
  H   H1897     1.0  0.61736  0.12167  0.09318  1.0000
  H   H1898     1.0  0.59657  0.13230  0.10275  1.0000
  H   H1899     1.0  0.61364  0.14721  0.12366  1.0000
  H   H1900     1.0  0.63453  0.13779  0.11297  1.0000
  C   C1189     1.0  0.58318  0.21234  0.09674  1.0000
  C   C1190     1.0  0.57689  0.20313  0.10421  1.0000
  C   C1191     1.0  0.57109  0.19683  0.09893  1.0000
  C   C1192     1.0  0.57132  0.19995  0.08623  1.0000
  C   C1193     1.0  0.57732  0.20940  0.07884  1.0000
  C   C1194     1.0  0.58332  0.21549  0.08406  1.0000
  H   H1901     1.0  0.57671  0.20067  0.11403  1.0000
  H   H1902     1.0  0.56635  0.18964  0.10472  1.0000
  H   H1903     1.0  0.57754  0.21190  0.06903  1.0000
  H   H1904     1.0  0.58812  0.22257  0.07818  1.0000
  C   C1195     1.0  0.65031  0.20980  0.07959  1.0000
  H   H1905     1.0  0.34920  0.17152  0.08973  1.0000
  H   H1906     1.0  0.35182  0.14014  0.22296  1.0000
  C   C1196     1.0  0.65322  0.18687  0.09615  1.0000
  C   C1197     1.0  0.64319  0.19646  0.09902  1.0000
  C   C1198     1.0  0.64158  0.20781  0.09062  1.0000
  C   C1199     1.0  0.65443  0.16556  0.03226  1.0000
  H   H1907     1.0  0.63659  0.19509  0.10767  1.0000
  H   H1908     1.0  0.63372  0.21511  0.09279  1.0000
  C   C1200     1.0  0.62170  0.21165  0.01640  1.0000
  C   C1201     1.0  0.61486  0.20613  0.02756  1.0000
  C   C1202     1.0  0.60855  0.21317  0.03663  1.0000
  C   C1203     1.0  0.60889  0.22578  0.03450  1.0000
  C   C1204     1.0  0.61591  0.23119  0.02345  1.0000
  C   C1205     1.0  0.62242  0.22411  0.01453  1.0000
  H   H1909     1.0  0.61447  0.19647  0.02918  1.0000
  H   H1910     1.0  0.60314  0.20895  0.04517  1.0000
  H   H1911     1.0  0.61603  0.24096  0.02163  1.0000
  H   H1912     1.0  0.62773  0.22842  0.00595  1.0000
  C   C1206     1.0  0.57924  0.14683  0.05584  1.0000
  C   C1207     1.0  0.57056  0.15797  0.05456  1.0000
  C   C1208     1.0  0.57136  0.16651  0.04333  1.0000
  C   C1209     1.0  0.58118  0.16419  0.03346  1.0000
  C   C1210     1.0  0.58990  0.15303  0.03467  1.0000
  C   C1211     1.0  0.58874  0.14421  0.04578  1.0000
  H   H1913     1.0  0.56307  0.16000  0.06211  1.0000
  H   H1914     1.0  0.56449  0.17502  0.04239  1.0000
  H   H1915     1.0  0.59741  0.15111  0.02700  1.0000
  H   H1916     1.0  0.59529  0.13547  0.04663  1.0000
  H   H1917     1.0  0.37549  0.99355  0.14741  1.0000
  C   C1212     1.0  0.41257  0.30694  0.09516  1.0000
  C   C1213     1.0  0.40097  0.31071  0.10248  1.0000
  H   H1918     1.0  0.37199  0.30865  0.10205  1.0000
  H   H1919     1.0  0.35451  0.11767  0.22341  1.0000
  H   H1920     1.0  0.35348  0.13192  0.14757  1.0000
  H   H1921     1.0  0.63505  0.22255  0.03733  1.0000
  H   H1922     1.0  0.64339  0.19863  0.02730  1.0000
  N   N120      1.0  0.36015  0.11246  0.15403  1.0000
  H   H1923     1.0  0.61887  0.32197  0.19240  1.0000
  C   C1214     1.0  0.35248  0.31200  0.10210  1.0000
  H   H1924     1.0  0.34798  0.12179  0.14140  1.0000
  H   H1925     1.0  0.60099  0.14794  0.06476  1.0000
  H   H1926     1.0  0.48983  0.14985  0.14781  1.0000
  H   H1927     1.0  0.59299  0.18012  0.10560  1.0000
  H   H1928     1.0  0.34726  0.10043  0.16322  1.0000
  H   H1929     1.0  0.63108  0.20785  0.04520  1.0000
  H   H1930     1.0  0.37030  0.15885  0.06317  1.0000
  C   C1215     1.0  0.40311  0.29723  0.04429  1.0000
  C   C1216     1.0  0.39180  0.29714  0.04160  1.0000
  H   H1931     1.0  0.66383  0.19053  0.04292  1.0000
  H   H1932     1.0  0.40618  0.29090  0.05225  1.0000
  C   C1217     1.0  0.36017  0.99878  0.13153  1.0000
  C   C1218     1.0  0.37021  0.21614  0.10094  1.0000
  C   C1219     1.0  0.37602  0.21370  0.11095  1.0000
  C   C1220     1.0  0.38271  0.22205  0.11196  1.0000
  C   C1221     1.0  0.38382  0.23280  0.10288  1.0000
  C   C1222     1.0  0.37795  0.23533  0.09288  1.0000
  C   C1223     1.0  0.37107  0.22703  0.09196  1.0000
  H   H1933     1.0  0.37529  0.20540  0.11797  1.0000
  H   H1934     1.0  0.38698  0.22019  0.11985  1.0000
  H   H1935     1.0  0.37884  0.24357  0.08578  1.0000
  H   H1936     1.0  0.36660  0.22896  0.08419  1.0000
  C   C1224     1.0  0.37088  0.03273  0.10867  1.0000
  C   C1225     1.0  0.37453  0.02295  0.10223  1.0000
  C   C1226     1.0  0.36572  0.01687  0.10086  1.0000
  C   C1227     1.0  0.35313  0.02047  0.10596  1.0000
  C   C1228     1.0  0.34945  0.03040  0.11221  1.0000
  C   C1229     1.0  0.35826  0.03648  0.11360  1.0000
  H   H1937     1.0  0.38423  0.02003  0.09829  1.0000
  H   H1938     1.0  0.36867  0.00937  0.09589  1.0000
  H   H1939     1.0  0.42951  0.13263  0.21652  1.0000
  H   H1940     1.0  0.35529  0.04401  0.11854  1.0000
  C   C1230     1.0  0.36421  0.11405  0.11179  1.0000
  C   C1231     1.0  0.35844  0.12577  0.11439  1.0000
  C   C1232     1.0  0.36499  0.13545  0.11061  1.0000
  C   C1233     1.0  0.37709  0.13362  0.10361  1.0000
  C   C1234     1.0  0.38273  0.12200  0.10067  1.0000
  C   C1235     1.0  0.37642  0.11214  0.10504  1.0000
  H   H1941     1.0  0.34895  0.12731  0.11948  1.0000
  H   H1942     1.0  0.36055  0.14436  0.11296  1.0000
  H   H1943     1.0  0.39203  0.12057  0.09514  1.0000
  H   H1944     1.0  0.38090  0.10312  0.10296  1.0000
  C   C1236     1.0  0.35034  0.14033  0.18474  1.0000
  C   C1237     1.0  0.37457  0.16376  0.06776  1.0000
  H   H1945     1.0  0.33973  0.03331  0.11615  1.0000
  C   C1238     1.0  0.34591  0.15212  0.16109  1.0000
  C   C1239     1.0  0.35753  0.15099  0.16381  1.0000
  C   C1240     1.0  0.35975  0.14507  0.17564  1.0000
  H   H1946     1.0  0.41640  0.06887  0.07331  1.0000
  H   H1947     1.0  0.37501  0.12113  0.14252  1.0000
  H   H1948     1.0  0.36474  0.15485  0.15687  1.0000
  H   H1949     1.0  0.36862  0.14450  0.17778  1.0000
  C   C1241     1.0  0.39668  0.08720  0.17386  1.0000
  C   C1242     1.0  0.40118  0.08287  0.16281  1.0000
  C   C1243     1.0  0.39450  0.07598  0.15932  1.0000
  C   C1244     1.0  0.38342  0.07321  0.16698  1.0000
  C   C1245     1.0  0.37894  0.07751  0.17806  1.0000
  C   C1246     1.0  0.38551  0.08460  0.18145  1.0000
  H   H1950     1.0  0.40989  0.08474  0.15698  1.0000
  H   H1951     1.0  0.39809  0.07251  0.15087  1.0000
  H   H1952     1.0  0.37037  0.07534  0.18402  1.0000
  H   H1953     1.0  0.38205  0.08780  0.19005  1.0000
  N   N121      1.0  0.49861  0.13084  0.15356  1.0000
  H   H1954     1.0  0.36087  0.30589  0.06380  1.0000
  C   C1247     1.0  0.44905  0.12828  0.17386  1.0000
  C   C1248     1.0  0.43842  0.12498  0.17268  1.0000
  C   C1249     1.0  0.42682  0.12909  0.17995  1.0000
  C   C1250     1.0  0.42582  0.13686  0.18806  1.0000
  C   C1251     1.0  0.43643  0.14037  0.18899  1.0000
  C   C1252     1.0  0.44804  0.13591  0.18207  1.0000
  H   H1955     1.0  0.43915  0.11917  0.16629  1.0000
  H   H1956     1.0  0.41862  0.12643  0.17914  1.0000
  H   H1957     1.0  0.43568  0.14645  0.19514  1.0000
  H   H1958     1.0  0.45623  0.13851  0.18298  1.0000
  C   C1253     1.0  0.43620  0.14742  0.11627  1.0000
  C   C1254     1.0  0.42620  0.15283  0.11042  1.0000
  C   C1255     1.0  0.41533  0.15944  0.11662  1.0000
  C   C1256     1.0  0.41454  0.16110  0.12851  1.0000
  C   C1257     1.0  0.42463  0.15581  0.13435  1.0000
  C   C1258     1.0  0.43541  0.14879  0.12830  1.0000
  H   H1959     1.0  0.42676  0.15170  0.10116  1.0000
  H   H1960     1.0  0.40767  0.16331  0.11205  1.0000
  H   H1961     1.0  0.42407  0.15703  0.14358  1.0000
  H   H1962     1.0  0.44317  0.14462  0.13286  1.0000
  C   C1259     1.0  0.44171  0.08084  0.13234  1.0000
  C   C1260     1.0  0.43206  0.07430  0.13755  1.0000
  C   C1261     1.0  0.42394  0.07370  0.13036  1.0000
  C   C1262     1.0  0.42563  0.07937  0.11785  1.0000
  C   C1263     1.0  0.43535  0.08580  0.11262  1.0000
  C   C1264     1.0  0.44328  0.08666  0.11987  1.0000
  H   H1963     1.0  0.43082  0.06972  0.14718  1.0000
  H   H1964     1.0  0.41654  0.06862  0.13443  1.0000
  H   H1965     1.0  0.43675  0.09016  0.10292  1.0000
  H   H1966     1.0  0.45077  0.09163  0.11576  1.0000
  C   C1265     1.0  0.51223  0.11877  0.11701  1.0000
  C   C1266     1.0  0.52464  0.11688  0.11806  1.0000
  C   C1267     1.0  0.53005  0.12702  0.11699  1.0000
  C   C1268     1.0  0.52308  0.13910  0.11474  1.0000
  C   C1269     1.0  0.51079  0.14097  0.11343  1.0000
  C   C1270     1.0  0.50542  0.13085  0.11444  1.0000
  H   H1967     1.0  0.52994  0.10753  0.12012  1.0000
  H   H1968     1.0  0.53944  0.12550  0.11835  1.0000
  H   H1969     1.0  0.50534  0.15029  0.11175  1.0000
  H   H1970     1.0  0.49600  0.13242  0.11322  1.0000
  C   C1271     1.0  0.61722  0.29821  0.09669  1.0000
  C   C1272     1.0  0.60451  0.30113  0.09665  1.0000
  C   C1273     1.0  0.59934  0.29390  0.09174  1.0000
  C   C1274     1.0  0.60675  0.28355  0.08702  1.0000
  C   C1275     1.0  0.61939  0.28040  0.08739  1.0000
  C   C1276     1.0  0.62461  0.28777  0.09210  1.0000
  H   H1971     1.0  0.59872  0.30916  0.10010  1.0000
  H   H1972     1.0  0.58957  0.29646  0.09143  1.0000
  H   H1973     1.0  0.62521  0.27251  0.08373  1.0000
  H   H1974     1.0  0.63445  0.28547  0.09202  1.0000
  N   N122      1.0  0.41694  0.12673  0.23333  1.0000
  S   S525      1.0  0.64063  0.14242  0.02022  1.0000
  H   H1975     1.0  0.42187  0.12096  0.21591  1.0000
  H   H1976     1.0  0.37922  0.10453  0.14740  1.0000
  H   H1977     1.0  0.37368  0.32440  0.06831  1.0000
  H   H1978     1.0  0.64879  0.30705  0.10838  1.0000
  H   H1979     1.0  0.42845  0.31783  0.05142  1.0000
  N   N123      1.0  0.65058  0.20719  0.03802  1.0000
  C   C1277     1.0  0.35793  0.18178  0.06618  1.0000
  C   C1278     1.0  0.65890  0.13806  0.99040  1.0000
  C   C1279     1.0  0.38797  0.30523  0.03120  1.0000
  H   H1980     1.0  0.55748  0.26539  0.12059  1.0000
  N   N124      1.0  0.57278  0.20706  0.03940  1.0000
  C   C1280     1.0  0.57778  0.21853  0.03594  1.0000
  C   C1281     1.0  0.57027  0.20449  0.02832  1.0000
  C   C1282     1.0  0.56114  0.20865  0.04876  1.0000
  C   C1283     1.0  0.58193  0.19657  0.04458  1.0000
  H   H1981     1.0  0.58020  0.22058  0.04398  1.0000
  H   H1982     1.0  0.57097  0.22672  0.03237  1.0000
  H   H1983     1.0  0.58635  0.21783  0.02859  1.0000
  H   H1984     1.0  0.57896  0.20276  0.02126  1.0000
  H   H1985     1.0  0.56617  0.19608  0.03064  1.0000
  H   H1986     1.0  0.56370  0.21234  0.02391  1.0000
  H   H1987     1.0  0.55743  0.19995  0.05206  1.0000
  H   H1988     1.0  0.55382  0.21614  0.04505  1.0000
  H   H1989     1.0  0.56263  0.21108  0.05704  1.0000
  H   H1990     1.0  0.58395  0.19814  0.05304  1.0000
  H   H1991     1.0  0.59083  0.19509  0.03775  1.0000
  H   H1992     1.0  0.57844  0.18778  0.04724  1.0000
  H   H1993     1.0  0.38988  0.32394  0.11357  1.0000
  C   C1284     1.0  0.49007  0.14041  0.14657  1.0000
  C   C1285     1.0  0.49875  0.11852  0.15144  1.0000
  N   N125      1.0  0.41310  0.11852  0.12500  1.0000
  C   C1286     1.0  0.42551  0.12001  0.11752  1.0000
  C   C1287     1.0  0.41447  0.10896  0.13632  1.0000
  C   C1288     1.0  0.40622  0.11470  0.11769  1.0000
  C   C1289     1.0  0.40622  0.13044  0.12841  1.0000
  H   H1994     1.0  0.42486  0.12735  0.10904  1.0000
  H   H1995     1.0  0.43091  0.11131  0.11454  1.0000
  H   H1996     1.0  0.43106  0.12266  0.12280  1.0000
  H   H1997     1.0  0.41953  0.09985  0.13404  1.0000
  H   H1998     1.0  0.41978  0.11147  0.14197  1.0000
  H   H1999     1.0  0.40531  0.10763  0.14225  1.0000
  H   H2000     1.0  0.39675  0.11360  0.12293  1.0000
  H   H2001     1.0  0.41112  0.10569  0.11499  1.0000
  H   H2002     1.0  0.40515  0.12170  0.10904  1.0000
  H   H2003     1.0  0.40468  0.13775  0.12007  1.0000
  H   H2004     1.0  0.41138  0.13384  0.13354  1.0000
  H   H2005     1.0  0.39696  0.12961  0.13438  1.0000
  Fe  Fe257     1.0  0.65614  0.13439  0.09096  1.0000
  C   C1290     1.0  0.34160  0.32099  0.10114  1.0000
  H   H2006     1.0  0.65943  0.19952  0.02181  1.0000
  C   C1291     1.0  0.49434  0.13096  0.16687  1.0000
  C   C1292     1.0  0.51126  0.13347  0.14935  1.0000
  H   H2007     1.0  0.49414  0.14012  0.16879  1.0000
  H   H2008     1.0  0.50051  0.12379  0.17244  1.0000
  H   H2009     1.0  0.48040  0.13877  0.14961  1.0000
  H   H2010     1.0  0.51150  0.14282  0.15050  1.0000
  H   H2011     1.0  0.51479  0.13327  0.13940  1.0000
  H   H2012     1.0  0.51796  0.12652  0.15448  1.0000
  N   N126      1.0  0.57419  0.25891  0.10817  1.0000
  H   H2013     1.0  0.62473  0.16396  0.10970  1.0000
  H   H2014     1.0  0.65433  0.17537  0.03027  1.0000
  C   C1293     1.0  0.57131  0.26897  0.09762  1.0000
  H   H2015     1.0  0.35073  0.18847  0.07119  1.0000
  H   H2016     1.0  0.38223  0.00216  0.13286  1.0000
  H   H2017     1.0  0.61493  0.14065  0.04529  1.0000
  C   C1294     1.0  0.35598  0.10067  0.15611  1.0000
  H   H2018     1.0  0.59282  0.25291  0.09885  1.0000
  C   C1295     1.0  0.42195  0.31361  0.09318  1.0000
  S   S526      1.0  0.65475  0.17242  0.10635  1.0000
  H   H2019     1.0  0.57459  0.27741  0.09760  1.0000
  H   H2020     1.0  0.56118  0.27163  0.09776  1.0000
  H   H2021     1.0  0.57603  0.26619  0.08864  1.0000
  H   H2022     1.0  0.55986  0.24965  0.10812  1.0000
  H   H2023     1.0  0.36428  0.18511  0.08612  1.0000
  H   H2024     1.0  0.58236  0.32177  0.16814  1.0000
  N   N127      1.0  0.54216  0.12819  0.07902  1.0000
  C   C1296     1.0  0.52899  0.12740  0.08405  1.0000
  C   C1297     1.0  0.54850  0.11794  0.07249  1.0000
  C   C1298     1.0  0.54830  0.12729  0.08925  1.0000
  C   C1299     1.0  0.54293  0.14017  0.07033  1.0000
  H   H2025     1.0  0.52400  0.13499  0.08910  1.0000
  H   H2026     1.0  0.52805  0.11849  0.09070  1.0000
  H   H2027     1.0  0.52401  0.12807  0.07661  1.0000
  H   H2028     1.0  0.54413  0.11830  0.06469  1.0000
  H   H2029     1.0  0.55848  0.11835  0.06859  1.0000
  H   H2030     1.0  0.54818  0.10876  0.07882  1.0000
  H   H2031     1.0  0.55836  0.12729  0.08590  1.0000
  H   H2032     1.0  0.54748  0.11860  0.09627  1.0000
  H   H2033     1.0  0.54418  0.13524  0.09400  1.0000
  H   H2034     1.0  0.53848  0.14117  0.06241  1.0000
  H   H2035     1.0  0.55276  0.14108  0.06646  1.0000
  H   H2036     1.0  0.53825  0.14812  0.07496  1.0000
  N   N128      1.0  0.44193  0.08369  0.17836  1.0000
  C   C1300     1.0  0.44708  0.07365  0.18784  1.0000
  C   C1301     1.0  0.45215  0.08880  0.16934  1.0000
  C   C1302     1.0  0.43339  0.09363  0.18431  1.0000
  C   C1303     1.0  0.43511  0.07870  0.17193  1.0000
  H   H2037     1.0  0.45230  0.07709  0.19286  1.0000
  H   H2038     1.0  0.45356  0.06602  0.18361  1.0000
  H   H2039     1.0  0.43957  0.06959  0.19477  1.0000
  H   H2040     1.0  0.45734  0.09298  0.17372  1.0000
  H   H2041     1.0  0.45887  0.08154  0.16474  1.0000
  H   H2042     1.0  0.44852  0.09616  0.16192  1.0000
  H   H2043     1.0  0.42908  0.10118  0.17741  1.0000
  H   H2044     1.0  0.43826  0.09790  0.18894  1.0000
  H   H2045     1.0  0.42564  0.09008  0.19131  1.0000
  H   H2046     1.0  0.43120  0.08601  0.16460  1.0000
  H   H2047     1.0  0.42718  0.07494  0.17840  1.0000
  H   H2048     1.0  0.44126  0.07117  0.16734  1.0000
  C   C1304     1.0  0.66031  0.28992  0.12509  1.0000
  N   N129      1.0  0.36505  0.17238  0.07471  1.0000
  C   C1305     1.0  0.66054  0.20036  0.07691  1.0000
  H   H2049     1.0  0.59124  0.26405  0.10794  1.0000
  C   C1306     1.0  0.64607  0.30850  0.11807  1.0000
  C   C1307     1.0  0.56773  0.26299  0.11986  1.0000
  H   H2050     1.0  0.38006  0.15652  0.07399  1.0000
  H   H2051     1.0  0.64794  0.18898  0.04802  1.0000
  H   H2052     1.0  0.65676  0.13044  0.99840  1.0000
  H   H2053     1.0  0.37019  0.11107  0.13563  1.0000
  C   C1308     1.0  0.42608  0.12416  0.22205  1.0000
  H   H2054     1.0  0.43098  0.31065  0.08765  1.0000
  C   C1309     1.0  0.33656  0.14730  0.17018  1.0000
  C   C1310     1.0  0.34476  0.25040  0.13382  1.0000
  H   H2055     1.0  0.36408  0.18724  0.05883  1.0000
  C   C1311     1.0  0.37999  0.99293  0.13766  1.0000
  H   H2056     1.0  0.63632  0.31370  0.11930  1.0000
  N   N130      1.0  0.41820  0.19924  0.11101  1.0000
  C   C1312     1.0  0.42392  0.19044  0.12095  1.0000
  C   C1313     1.0  0.42698  0.19894  0.09904  1.0000
  C   C1314     1.0  0.41515  0.21190  0.11351  1.0000
  C   C1315     1.0  0.40673  0.19567  0.11053  1.0000
  H   H2057     1.0  0.42684  0.18090  0.11905  1.0000
  H   H2058     1.0  0.41727  0.18989  0.13002  1.0000
  H   H2059     1.0  0.43229  0.19312  0.12199  1.0000
  H   H2060     1.0  0.42296  0.20554  0.09135  1.0000
  H   H2061     1.0  0.43579  0.20150  0.09909  1.0000
  H   H2062     1.0  0.42940  0.18952  0.09683  1.0000
  H   H2063     1.0  0.41069  0.21877  0.10625  1.0000
  H   H2064     1.0  0.42358  0.21499  0.11380  1.0000
  H   H2065     1.0  0.40860  0.21244  0.12253  1.0000
  H   H2066     1.0  0.39985  0.19580  0.11942  1.0000
  H   H2067     1.0  0.40869  0.18611  0.10881  1.0000
  H   H2068     1.0  0.40218  0.20203  0.10308  1.0000
  C   C1316     1.0  0.62263  0.15514  0.05511  1.0000
  C   C1317     1.0  0.63085  0.13607  0.06802  1.0000
  H   H2069     1.0  0.62229  0.16059  0.06205  1.0000
  H   H2070     1.0  0.63178  0.15508  0.04866  1.0000
  H   H2071     1.0  0.61537  0.16016  0.04966  1.0000
  H   H2072     1.0  0.64022  0.13562  0.06193  1.0000
  H   H2073     1.0  0.62997  0.12637  0.07253  1.0000
  N   N131      1.0  0.35101  0.25506  0.12107  1.0000
  H   H2074     1.0  0.66473  0.13880  0.05138  1.0000
  C   C1318     1.0  0.35131  0.24659  0.11306  1.0000
  H   H2075     1.0  0.39203  0.32013  0.01591  1.0000
  C   C1319     1.0  0.34417  0.26755  0.11635  1.0000
  H   H2076     1.0  0.64418  0.29034  0.14683  1.0000
  H   H2077     1.0  0.42382  0.31380  0.06789  1.0000
  C   C1320     1.0  0.35522  0.31470  0.06650  1.0000
  H   H2078     1.0  0.57150  0.32230  0.12208  1.0000
  H   H2079     1.0  0.35421  0.09921  0.14746  1.0000
  H   H2080     1.0  0.62931  0.29380  0.12678  1.0000
  H   H2081     1.0  0.35180  0.16043  0.08014  1.0000
  C   C1321     1.0  0.40641  0.13657  0.22985  1.0000
  H   H2082     1.0  0.34973  0.24098  0.13762  1.0000
  C   C1322     1.0  0.39517  0.31374  0.02378  1.0000
  H   H2083     1.0  0.34439  0.25660  0.14009  1.0000
  C   C1323     1.0  0.64335  0.29907  0.13975  1.0000
  C   C1324     1.0  0.35042  0.12292  0.14983  1.0000
  H   H2084     1.0  0.36402  0.26219  0.12681  1.0000
  C   C1325     1.0  0.66184  0.18883  0.08504  1.0000
  H   H2085     1.0  0.37759  0.18413  0.07372  1.0000
  H   H2086     1.0  0.34181  0.24576  0.11292  1.0000
  H   H2087     1.0  0.34540  0.31505  0.06633  1.0000
  S   S527      1.0  0.34184  0.01242  0.10536  1.0000
  H   H2088     1.0  0.38125  0.16870  0.06053  1.0000
  H   H2089     1.0  0.63813  0.21576  0.05245  1.0000
  H   H2090     1.0  0.62397  0.17926  0.11166  1.0000
  C   C1326     1.0  0.66026  0.14496  0.04416  1.0000
  C   C1327     1.0  0.36254  0.11396  0.16565  1.0000
  H   H2091     1.0  0.64176  0.28723  0.11579  1.0000
  H   H2092     1.0  0.60812  0.14764  0.07722  1.0000
  H   H2093     1.0  0.62140  0.17064  0.08330  1.0000
  C   C1328     1.0  0.57005  0.24779  0.10759  1.0000
  H   H2094     1.0  0.40760  0.11209  0.23457  1.0000
  N   N132      1.0  0.35977  0.32559  0.05821  1.0000
  H   H2095     1.0  0.60048  0.18448  0.11546  1.0000
  H   H2096     1.0  0.61905  0.12624  0.05574  1.0000
  H   H2097     1.0  0.64752  0.21317  0.01939  1.0000
  H   H2098     1.0  0.65486  0.14688  0.99377  1.0000
  C   C1329     1.0  0.66002  0.15768  0.04176  1.0000
  S   S528      1.0  0.65000  0.15466  0.08395  1.0000
  N   N133      1.0  0.62089  0.14240  0.06108  1.0000
  H   H2099     1.0  0.36206  0.00820  0.12715  1.0000
  N   N134      1.0  0.64725  0.29662  0.12708  1.0000
  H   H2100     1.0  0.50523  0.11106  0.15639  1.0000
  H   H2101     1.0  0.48478  0.12907  0.17032  1.0000
  H   H2102     1.0  0.43335  0.04450  0.08245  1.0000
  H   H2103     1.0  0.42410  0.06591  0.08605  1.0000
  H   H2104     1.0  0.65701  0.22419  0.02970  1.0000
  H   H2105     1.0  0.63070  0.14094  0.07537  1.0000
  H   H2106     1.0  0.36310  0.09256  0.15929  1.0000
  C   C1330     1.0  0.39881  0.32111  0.10782  1.0000
  H   H2107     1.0  0.35573  0.31410  0.07624  1.0000
  H   H2108     1.0  0.35478  0.99921  0.14106  1.0000
  C   C1331     1.0  0.64886  0.14813  0.02790  1.0000
  H   H2109     1.0  0.63994  0.27992  0.13191  1.0000
  C   C1332     1.0  0.41065  0.30532  0.03646  1.0000
  H   H2110     1.0  0.41956  0.30516  0.03831  1.0000
  H   H2111     1.0  0.42135  0.04811  0.10317  1.0000
  C   C1333     1.0  0.65024  0.20452  0.02611  1.0000
  C   C1334     1.0  0.65963  0.21517  0.03598  1.0000
  H   H2112     1.0  0.50171  0.11815  0.14147  1.0000
  H   H2113     1.0  0.49292  0.14047  0.13650  1.0000
  H   H2114     1.0  0.42547  0.04746  0.06989  1.0000
  H   H2115     1.0  0.35590  0.24992  0.10335  1.0000
  H   H2116     1.0  0.35404  0.99685  0.12633  1.0000
  H   H2117     1.0  0.36886  0.25908  0.11156  1.0000
  H   H2118     1.0  0.34858  0.27126  0.10667  1.0000
  C   C1335     1.0  0.42450  0.04430  0.08007  1.0000
  C   C1336     1.0  0.41560  0.06511  0.08339  1.0000
  H   H2119     1.0  0.40769  0.07130  0.08826  1.0000
  C   C1337     1.0  0.63815  0.21360  0.04348  1.0000
  C   C1338     1.0  0.40655  0.31375  0.02635  1.0000
  H   H2120     1.0  0.42343  0.03447  0.08244  1.0000
  H   H2121     1.0  0.48938  0.11616  0.15460  1.0000
  N   N135      1.0  0.41382  0.05216  0.08674  1.0000
  H   H2122     1.0  0.60430  0.19506  0.08830  1.0000
  C   C1339     1.0  0.60869  0.14291  0.06964  1.0000
  H   H2123     1.0  0.60464  0.17388  0.08651  1.0000
  C   C1340     1.0  0.41292  0.04762  0.10018  1.0000
  H   H2124     1.0  0.59033  0.24818  0.11530  1.0000
  H   H2125     1.0  0.61216  0.19755  0.09895  1.0000
  C   C1341     1.0  0.37169  0.11230  0.14447  1.0000
  C   C1342     1.0  0.61254  0.19134  0.09267  1.0000
  C   C1343     1.0  0.62142  0.13551  0.05155  1.0000
  H   H2126     1.0  0.58076  0.31751  0.18462  1.0000
  H   H2127     1.0  0.63096  0.31774  0.17204  1.0000
  H   H2128     1.0  0.40490  0.05329  0.10541  1.0000
  H   H2129     1.0  0.41150  0.03790  0.10313  1.0000
  H   H2130     1.0  0.40256  0.05494  0.07331  1.0000
  C   C1344     1.0  0.40227  0.05160  0.08338  1.0000
  H   H2131     1.0  0.61297  0.16081  0.09566  1.0000
  H   H2132     1.0  0.60684  0.13346  0.07404  1.0000
  Fe  Fe258     1.0  0.66184  0.15705  0.09574  1.0000
  H   H2133     1.0  0.39399  0.05738  0.08832  1.0000
  N   N136      1.0  0.61275  0.17840  0.09943  1.0000
  H   H2134     1.0  0.40054  0.04199  0.08596  1.0000
  C   C1345     1.0  0.41969  0.32417  0.09823  1.0000
  H   H2135     1.0  0.35403  0.11415  0.17308  1.0000
  C   C1346     1.0  0.64874  0.16083  0.02544  1.0000
  H   H2136     1.0  0.63255  0.17443  0.09761  1.0000
  H   H2137     1.0  0.39372  0.30557  0.10408  1.0000
  C   C1347     1.0  0.36362  0.31558  0.10115  1.0000
  H   H2138     1.0  0.65505  0.13032  0.03899  1.0000
  H   H2139     1.0  0.60193  0.16845  0.11534  1.0000
  H   H2140     1.0  0.57469  0.24453  0.09883  1.0000
  C   C1348     1.0  0.60156  0.17787  0.10939  1.0000
  C   C1349     1.0  0.62397  0.17381  0.10484  1.0000
  C   C1350     1.0  0.61296  0.17059  0.09080  1.0000
  H   H2141     1.0  0.56973  0.25561  0.12800  1.0000
  H   H2142     1.0  0.36934  0.24647  0.12452  1.0000
  H   H2143     1.0  0.64422  0.16706  0.01832  1.0000
  H   H2144     1.0  0.57070  0.27136  0.12054  1.0000
  S   S529      1.0  0.41525  0.32483  0.01745  1.0000
  C   C1351     1.0  0.65431  0.19544  0.04655  1.0000
  H   H2145     1.0  0.37936  0.30502  0.02894  1.0000
  Fe  Fe259     1.0  0.61326  0.32236  0.11289  1.0000
  C   C1352     1.0  0.36384  0.25572  0.12104  1.0000
  H   H2146     1.0  0.65187  0.31457  0.11910  1.0000
  H   H2147     1.0  0.40955  0.14521  0.22436  1.0000
  H   H2148     1.0  0.66351  0.28797  0.11558  1.0000
  H   H2149     1.0  0.35971  0.13685  0.23555  1.0000
  S   S530      1.0  0.60870  0.18731  0.99306  1.0000
  H   H2150     1.0  0.57235  0.23989  0.11524  1.0000
  C   C1353     1.0  0.37117  0.17862  0.08064  1.0000
  C   C1354     1.0  0.58772  0.25587  0.10761  1.0000
  H   H2151     1.0  0.63761  0.13144  0.99169  1.0000
  H   H2152     1.0  0.63350  0.30407  0.14157  1.0000
  S   S531      1.0  0.34289  0.15927  0.14638  1.0000
  H   H2153     1.0  0.34402  0.27432  0.12195  1.0000
  S   S532      1.0  0.66646  0.13680  0.10431  1.0000
  C   C1355     1.0  0.35051  0.13797  0.23323  1.0000
  H   H2154     1.0  0.34175  0.12371  0.15704  1.0000
  C   C1356     1.0  0.33875  0.14148  0.18200  1.0000
  H   H2155     1.0  0.36985  0.10623  0.16909  1.0000
  H   H2156     1.0  0.65429  0.19705  0.05576  1.0000
  H   H2157     1.0  0.35310  0.17742  0.06159  1.0000
  H   H2158     1.0  0.40165  0.13368  0.22399  1.0000
  H   H2159     1.0  0.36160  0.15819  0.09087  1.0000
  H   H2160     1.0  0.37675  0.17178  0.08701  1.0000
  H   H2161     1.0  0.35656  0.23710  0.11623  1.0000
  C   C1357     1.0  0.42026  0.31754  0.05920  1.0000
  H   H2162     1.0  0.55766  0.32313  0.18751  1.0000
  C   C1358     1.0  0.37282  0.32466  0.05875  1.0000
  H   H2163     1.0  0.66155  0.28088  0.13171  1.0000
  H   H2164     1.0  0.63574  0.14789  0.98646  1.0000
  S   S533      1.0  0.57428  0.32328  0.14609  1.0000
  H   H2165     1.0  0.36567  0.12279  0.16437  1.0000
  C   C1359     1.0  0.35361  0.11612  0.23358  1.0000
  H   H2166     1.0  0.38119  0.99740  0.11352  1.0000
  H   H2167     1.0  0.41524  0.31068  0.05835  1.0000
  H   H2168     1.0  0.37885  0.31611  0.05581  1.0000
  S   S534      1.0  0.66634  0.16404  0.05064  1.0000
  C   C1360     1.0  0.62338  0.32569  0.17249  1.0000
  H   H2169     1.0  0.36308  0.11462  0.23536  1.0000
  H   H2170     1.0  0.33439  0.26751  0.11639  1.0000
  H   H2171     1.0  0.33505  0.24976  0.13420  1.0000
  H   H2172     1.0  0.40291  0.32586  0.07827  1.0000
  H   H2173     1.0  0.36253  0.15906  0.41693  1.0000
  H   H2174     1.0  0.39830  0.13510  0.41212  1.0000
  S   S535      1.0  0.35551  0.99433  0.38723  1.0000
  H   H2175     1.0  0.39378  0.15164  0.42444  1.0000
  H   H2176     1.0  0.35158  0.16526  0.45441  1.0000
  Fe  Fe260     1.0  0.34759  0.01484  0.38554  1.0000
  S   S536      1.0  0.35824  0.02632  0.39065  1.0000
  H   H2177     1.0  0.36038  0.01207  0.34680  1.0000
  H   H2178     1.0  0.41617  0.13292  0.24983  1.0000
  Fe  Fe261     1.0  0.35521  0.03917  0.37282  1.0000
  S   S537      1.0  0.37017  0.04858  0.36021  1.0000
  H   H2179     1.0  0.39789  0.01588  0.34171  1.0000
  S   S538      1.0  0.34578  0.02711  0.36711  1.0000
  Fe  Fe262     1.0  0.36148  0.12576  0.29979  1.0000
  H   H2180     1.0  0.39054  0.01976  0.32865  1.0000
  S   S539      1.0  0.37037  0.13376  0.28031  1.0000
  Fe  Fe263     1.0  0.36295  0.11807  0.32715  1.0000
  H   H2181     1.0  0.36419  0.02718  0.34253  1.0000
  S   S540      1.0  0.37327  0.11369  0.34275  1.0000
  Fe  Fe264     1.0  0.35017  0.10448  0.31604  1.0000
  S   S541      1.0  0.34555  0.08599  0.31801  1.0000
  C   C1361     1.0  0.41238  0.11533  0.24018  1.0000
  S   S542      1.0  0.36956  0.10791  0.31137  1.0000
  S   S543      1.0  0.35675  0.13641  0.31514  1.0000
  Fe  Fe265     1.0  0.35569  0.12197  0.43093  1.0000
  S   S544      1.0  0.34572  0.10618  0.43454  1.0000
  S   S545      1.0  0.36621  0.12324  0.44506  1.0000
  Fe  Fe266     1.0  0.35108  0.13103  0.40454  1.0000
  S   S546      1.0  0.34089  0.13654  0.42265  1.0000
  S   S547      1.0  0.35550  0.14375  0.38604  1.0000
  H   H2182     1.0  0.38091  0.16748  0.40399  1.0000
  Fe  Fe267     1.0  0.35531  0.10350  0.41536  1.0000
  S   S548      1.0  0.36439  0.08650  0.40718  1.0000
  H   H2183     1.0  0.36884  0.01720  0.33158  1.0000
  S   S549      1.0  0.36667  0.11785  0.41248  1.0000
  C   C1362     1.0  0.36750  0.12248  0.35441  1.0000
  C   C1363     1.0  0.36451  0.11633  0.36669  1.0000
  C   C1364     1.0  0.36110  0.12279  0.37635  1.0000
  C   C1365     1.0  0.36034  0.13558  0.37384  1.0000
  C   C1366     1.0  0.36327  0.14184  0.36154  1.0000
  C   C1367     1.0  0.36693  0.13528  0.35183  1.0000
  H   H2184     1.0  0.36487  0.10651  0.36880  1.0000
  H   H2185     1.0  0.35929  0.11776  0.38574  1.0000
  H   H2186     1.0  0.36286  0.15172  0.35951  1.0000
  H   H2187     1.0  0.36950  0.14008  0.34239  1.0000
  C   C1368     1.0  0.34401  0.12397  0.25223  1.0000
  C   C1369     1.0  0.34265  0.05583  0.41422  1.0000
  S   S550      1.0  0.34419  0.11319  0.33262  1.0000
  C   C1370     1.0  0.34613  0.07339  0.42049  1.0000
  C   C1371     1.0  0.35592  0.07472  0.41027  1.0000
  C   C1372     1.0  0.35910  0.06649  0.40221  1.0000
  C   C1373     1.0  0.35243  0.05719  0.40408  1.0000
  Fe  Fe268     1.0  0.33955  0.03665  0.39874  1.0000
  H   H2188     1.0  0.35319  0.12228  0.25485  1.0000
  H   H2189     1.0  0.36673  0.06726  0.39445  1.0000
  S   S551      1.0  0.34253  0.12150  0.30323  1.0000
  C   C1374     1.0  0.36390  0.05862  0.34794  1.0000
  C   C1375     1.0  0.35493  0.05552  0.34349  1.0000
  C   C1376     1.0  0.34976  0.06370  0.33384  1.0000
  C   C1377     1.0  0.35306  0.07526  0.32908  1.0000
  C   C1378     1.0  0.36192  0.07840  0.33364  1.0000
  C   C1379     1.0  0.36754  0.06997  0.34285  1.0000
  H   H2190     1.0  0.35202  0.04682  0.34738  1.0000
  S   S552      1.0  0.33402  0.04446  0.41605  1.0000
  H   H2191     1.0  0.36446  0.08732  0.33008  1.0000
  H   H2192     1.0  0.37446  0.07242  0.34620  1.0000
  H   H2193     1.0  0.38617  0.00820  0.36274  1.0000
  H   H2194     1.0  0.38291  0.12690  0.23813  1.0000
  C   C1380     1.0  0.38098  0.10983  0.25105  1.0000
  C   C1381     1.0  0.37779  0.10439  0.26358  1.0000
  C   C1382     1.0  0.37420  0.11167  0.27267  1.0000
  C   C1383     1.0  0.37399  0.12441  0.26925  1.0000
  C   C1384     1.0  0.37704  0.12985  0.25672  1.0000
  H   H2195     1.0  0.37818  0.09450  0.26630  1.0000
  H   H2196     1.0  0.37184  0.10739  0.28232  1.0000
  H   H2197     1.0  0.37685  0.13970  0.25404  1.0000
  C   C1385     1.0  0.36387  0.15358  0.46621  1.0000
  C   C1386     1.0  0.37091  0.14167  0.46926  1.0000
  C   C1387     1.0  0.37126  0.13245  0.46288  1.0000
  C   C1388     1.0  0.36442  0.13491  0.45354  1.0000
  C   C1389     1.0  0.35714  0.14675  0.45069  1.0000
  C   C1390     1.0  0.35704  0.15607  0.45685  1.0000
  H   H2198     1.0  0.33740  0.15595  0.47744  1.0000
  H   H2199     1.0  0.37701  0.12336  0.46510  1.0000
  H   H2200     1.0  0.35178  0.14881  0.44359  1.0000
  N   N137      1.0  0.38721  0.07928  0.36874  1.0000
  C   C1391     1.0  0.39421  0.07452  0.35753  1.0000
  C   C1392     1.0  0.37376  0.08096  0.36932  1.0000
  C   C1393     1.0  0.39024  0.09128  0.36829  1.0000
  C   C1394     1.0  0.39062  0.07035  0.37982  1.0000
  H   H2201     1.0  0.40441  0.07312  0.35674  1.0000
  H   H2202     1.0  0.39184  0.08113  0.34902  1.0000
  H   H2203     1.0  0.39206  0.06549  0.35757  1.0000
  H   H2204     1.0  0.36816  0.08467  0.37761  1.0000
  H   H2205     1.0  0.37092  0.08757  0.36100  1.0000
  H   H2206     1.0  0.37113  0.07204  0.36978  1.0000
  H   H2207     1.0  0.38802  0.09820  0.35992  1.0000
  H   H2208     1.0  0.40028  0.09033  0.36805  1.0000
  H   H2209     1.0  0.38488  0.09527  0.37650  1.0000
  H   H2210     1.0  0.38581  0.07391  0.38841  1.0000
  H   H2211     1.0  0.40077  0.06855  0.37950  1.0000
  H   H2212     1.0  0.38805  0.06130  0.38073  1.0000
  H   H2213     1.0  0.37631  0.13964  0.47634  1.0000
  H   H2214     1.0  0.39591  0.15736  0.40177  1.0000
  H   H2215     1.0  0.34378  0.07956  0.42692  1.0000
  C   C1395     1.0  0.37751  0.01229  0.35909  1.0000
  S   S553      1.0  0.38597  0.10048  0.23981  1.0000
  H   H2216     1.0  0.35499  0.05097  0.39770  1.0000
  H   H2217     1.0  0.34175  0.00217  0.36753  1.0000
  C   C1396     1.0  0.42287  0.13089  0.24124  1.0000
  C   C1397     1.0  0.36796  0.14967  0.41576  1.0000
  H   H2218     1.0  0.35020  0.10734  0.23776  1.0000
  N   N138      1.0  0.38141  0.14884  0.41436  1.0000
  H   H2219     1.0  0.42009  0.10761  0.24275  1.0000
  H   H2220     1.0  0.39281  0.99484  0.34727  1.0000
  C   C1398     1.0  0.38379  0.15166  0.42539  1.0000
  H   H2221     1.0  0.38493  0.12914  0.42127  1.0000
  C   C1399     1.0  0.36771  0.01737  0.34150  1.0000
  H   H2222     1.0  0.38573  0.02940  0.33997  1.0000
  C   C1400     1.0  0.34860  0.99390  0.36600  1.0000
  H   H2223     1.0  0.36581  0.14763  0.40757  1.0000
  H   H2224     1.0  0.38659  0.13370  0.40479  1.0000
  C   C1401     1.0  0.38575  0.15782  0.40323  1.0000
  C   C1402     1.0  0.38884  0.01960  0.33871  1.0000
  H   H2225     1.0  0.38119  0.14466  0.43382  1.0000
  H   H2226     1.0  0.37704  0.99336  0.34932  1.0000
  C   C1403     1.0  0.38041  0.12261  0.24767  1.0000
  N   N139      1.0  0.37951  0.01210  0.34584  1.0000
  H   H2227     1.0  0.37433  0.02191  0.36077  1.0000
  S   S554      1.0  0.36340  0.16569  0.47365  1.0000
  C   C1404     1.0  0.33573  0.14011  0.35270  1.0000
  S   S555      1.0  0.33756  0.05058  0.38127  1.0000
  H   H2228     1.0  0.34297  0.06122  0.33027  1.0000
  C   C1405     1.0  0.38812  0.13615  0.41305  1.0000
  H   H2229     1.0  0.37833  0.16088  0.42714  1.0000
  C   C1406     1.0  0.33954  0.06387  0.42251  1.0000
  H   H2230     1.0  0.36443  0.14294  0.42400  1.0000
  H   H2231     1.0  0.40562  0.11685  0.24887  1.0000
  C   C1407     1.0  0.38394  0.99918  0.34405  1.0000
  H   H2232     1.0  0.38393  0.15599  0.39478  1.0000
  N   N140      1.0  0.34527  0.12669  0.23866  1.0000
  H   H2233     1.0  0.37038  0.00692  0.36476  1.0000
  H   H2234     1.0  0.64617  0.32508  0.48502  1.0000
  H   H2235     1.0  0.43086  0.12369  0.24407  1.0000
  H   H2236     1.0  0.34434  0.14618  0.23667  1.0000
  H   H2237     1.0  0.39939  0.13892  0.23812  1.0000
  H   H2238     1.0  0.34357  0.14488  0.34793  1.0000
  H   H2239     1.0  0.34321  0.99327  0.34944  1.0000
  H   H2240     1.0  0.33931  0.13163  0.35918  1.0000
  H   H2241     1.0  0.34004  0.11554  0.25666  1.0000
  S   S556      1.0  0.34033  0.11651  0.40640  1.0000
  Fe  Fe269     1.0  0.33841  0.13063  0.31940  1.0000
  H   H2242     1.0  0.33789  0.13180  0.25639  1.0000
  H   H2243     1.0  0.38551  0.99865  0.33417  1.0000
  H   H2244     1.0  0.33729  0.15586  0.36596  1.0000
  H   H2245     1.0  0.42638  0.13950  0.23635  1.0000
  H   H2246     1.0  0.42392  0.19325  0.53882  1.0000
  S   S557      1.0  0.36843  0.16179  0.52738  1.0000
  H   H2247     1.0  0.34611  0.13212  0.50469  1.0000
  H   H2248     1.0  0.57044  0.08381  0.69398  1.0000
  Fe  Fe270     1.0  0.35851  0.15243  0.51895  1.0000
  H   H2249     1.0  0.65192  0.01062  0.58440  1.0000
  H   H2250     1.0  0.62830  0.32437  0.59372  1.0000
  S   S558      1.0  0.40397  0.14966  0.51482  1.0000
  S   S559      1.0  0.42062  0.31260  0.61625  1.0000
  Fe  Fe271     1.0  0.35754  0.25040  0.58023  1.0000
  S   S560      1.0  0.34669  0.23938  0.59684  1.0000
  S   S561      1.0  0.36256  0.26911  0.57881  1.0000
  Fe  Fe272     1.0  0.36559  0.22854  0.56616  1.0000
  S   S562      1.0  0.35556  0.21618  0.58184  1.0000
  S   S563      1.0  0.37813  0.21891  0.55100  1.0000
  C   C1408     1.0  0.66693  0.32082  0.59965  1.0000
  Fe  Fe273     1.0  0.36299  0.22375  0.59403  1.0000
  S   S564      1.0  0.37223  0.21082  0.60894  1.0000
  S   S565      1.0  0.34973  0.24502  0.56632  1.0000
  S   S566      1.0  0.37425  0.23501  0.57836  1.0000
  S   S567      1.0  0.34836  0.13040  0.58921  1.0000
  Fe  Fe274     1.0  0.42333  0.13757  0.57907  1.0000
  S   S568      1.0  0.42205  0.12599  0.59824  1.0000
  S   S569      1.0  0.42792  0.12888  0.56242  1.0000
  Fe  Fe275     1.0  0.42093  0.16093  0.58812  1.0000
  S   S570      1.0  0.41913  0.15153  0.60806  1.0000
  S   S571      1.0  0.42070  0.18095  0.58049  1.0000
  Fe  Fe276     1.0  0.43488  0.13689  0.60099  1.0000
  S   S572      1.0  0.45336  0.12758  0.60685  1.0000
  Fe  Fe277     1.0  0.40653  0.14162  0.60340  1.0000
  S   S573      1.0  0.38791  0.13869  0.61536  1.0000
  S   S574      1.0  0.43731  0.14717  0.58127  1.0000
  S   S575      1.0  0.40709  0.15245  0.58401  1.0000
  H   H2251     1.0  0.60174  0.15462  0.72533  1.0000
  C   C1409     1.0  0.34566  0.14036  0.49699  1.0000
  S   S576      1.0  0.62930  0.02465  0.57579  1.0000
  Fe  Fe278     1.0  0.37575  0.30921  0.62135  1.0000
  S   S577      1.0  0.38696  0.30614  0.63598  1.0000
  S   S578      1.0  0.36519  0.29443  0.62186  1.0000
  Fe  Fe279     1.0  0.39984  0.31654  0.62099  1.0000
  H   H2252     1.0  0.64252  0.20613  0.59120  1.0000
  H   H2253     1.0  0.40678  0.32194  0.67104  1.0000
  H   H2254     1.0  0.65485  0.05669  0.63110  1.0000
  C   C1410     1.0  0.64125  0.32356  0.51917  1.0000
  H   H2255     1.0  0.37070  0.24975  0.59826  1.0000
  Fe  Fe280     1.0  0.64534  0.26731  0.58741  1.0000
  S   S579      1.0  0.63503  0.28104  0.59933  1.0000
  S   S580      1.0  0.64631  0.24720  0.59717  1.0000
  C   C1411     1.0  0.65303  0.30371  0.53533  1.0000
  S   S581      1.0  0.64117  0.30309  0.57512  1.0000
  C   C1412     1.0  0.66136  0.00950  0.58612  1.0000
  H   H2256     1.0  0.36675  0.24909  0.61465  1.0000
  Fe  Fe281     1.0  0.62671  0.29148  0.58304  1.0000
  S   S582      1.0  0.60635  0.29975  0.58538  1.0000
  S   S583      1.0  0.63575  0.27700  0.57163  1.0000
  Fe  Fe282     1.0  0.49890  0.14128  0.64243  1.0000
  S   S584      1.0  0.51103  0.14994  0.62530  1.0000
  S   S585      1.0  0.47820  0.14409  0.64279  1.0000
  Fe  Fe283     1.0  0.52002  0.13386  0.65716  1.0000
  S   S586      1.0  0.53339  0.14203  0.64100  1.0000
  S   S587      1.0  0.52842  0.12365  0.67387  1.0000
  Fe  Fe284     1.0  0.51739  0.15778  0.63816  1.0000
  S   S588      1.0  0.52014  0.17725  0.63471  1.0000
  Fe  Fe285     1.0  0.52570  0.13322  0.62998  1.0000
  S   S589      1.0  0.53885  0.12334  0.61561  1.0000
  S   S590      1.0  0.50440  0.15039  0.65514  1.0000
  S   S591      1.0  0.51323  0.12382  0.64626  1.0000
  Fe  Fe286     1.0  0.59759  0.13895  0.69763  1.0000
  S   S592      1.0  0.58412  0.14597  0.71360  1.0000
  S   S593      1.0  0.61150  0.14940  0.68448  1.0000
  Fe  Fe287     1.0  0.58835  0.11497  0.70314  1.0000
  S   S594      1.0  0.57437  0.11979  0.71985  1.0000
  S   S595      1.0  0.58853  0.09819  0.69612  1.0000
  Fe  Fe288     1.0  0.57035  0.13859  0.70763  1.0000
  S   S596      1.0  0.55139  0.14903  0.70405  1.0000
  Fe  Fe289     1.0  0.58959  0.12654  0.72417  1.0000
  S   S597      1.0  0.58355  0.13333  0.69075  1.0000
  S   S598      1.0  0.60389  0.11998  0.70829  1.0000
  Fe  Fe290     1.0  0.59107  0.18991  0.62847  1.0000
  S   S599      1.0  0.61080  0.19136  0.61948  1.0000
  S   S600      1.0  0.58216  0.19083  0.64816  1.0000
  Fe  Fe291     1.0  0.58556  0.18438  0.60620  1.0000
  S   S601      1.0  0.60474  0.18527  0.59515  1.0000
  S   S602      1.0  0.57219  0.17836  0.59863  1.0000
  Fe  Fe292     1.0  0.61107  0.17454  0.61250  1.0000
  S   S603      1.0  0.62674  0.15799  0.61340  1.0000
  Fe  Fe293     1.0  0.60277  0.20207  0.60293  1.0000
  S   S604      1.0  0.60886  0.21860  0.58919  1.0000
  S   S605      1.0  0.59208  0.17216  0.62293  1.0000
  S   S606      1.0  0.58286  0.20212  0.61254  1.0000
  Fe  Fe294     1.0  0.62298  0.07007  0.61823  1.0000
  S   S607      1.0  0.61370  0.07085  0.63788  1.0000
  S   S608      1.0  0.63410  0.05088  0.61658  1.0000
  Fe  Fe295     1.0  0.61535  0.09785  0.60997  1.0000
  S   S609      1.0  0.60571  0.10085  0.62896  1.0000
  S   S610      1.0  0.61504  0.11503  0.59511  1.0000
  Fe  Fe296     1.0  0.62212  0.08731  0.63491  1.0000
  S   S611      1.0  0.63085  0.08994  0.64934  1.0000
  Fe  Fe297     1.0  0.59811  0.08417  0.63023  1.0000
  S   S612      1.0  0.57895  0.08337  0.64137  1.0000
  S   S613      1.0  0.63264  0.08576  0.61578  1.0000
  S   S614      1.0  0.60641  0.08204  0.61066  1.0000
  C   C1413     1.0  0.62386  0.14613  0.60789  1.0000
  C   C1414     1.0  0.62973  0.13384  0.61166  1.0000
  C   C1415     1.0  0.62691  0.12420  0.60793  1.0000
  C   C1416     1.0  0.61874  0.12693  0.59985  1.0000
  C   C1417     1.0  0.61328  0.13927  0.59567  1.0000
  C   C1418     1.0  0.61556  0.14883  0.59994  1.0000
  H   H2257     1.0  0.63635  0.13173  0.61760  1.0000
  H   H2258     1.0  0.63128  0.11469  0.61106  1.0000
  H   H2259     1.0  0.60721  0.14142  0.58920  1.0000
  H   H2260     1.0  0.61107  0.15829  0.59689  1.0000
  C   C1419     1.0  0.60053  0.09575  0.68336  1.0000
  C   C1420     1.0  0.61193  0.09904  0.68199  1.0000
  C   C1421     1.0  0.62144  0.09686  0.67173  1.0000
  C   C1422     1.0  0.61936  0.09182  0.66263  1.0000
  C   C1423     1.0  0.60790  0.08870  0.66395  1.0000
  C   C1424     1.0  0.59860  0.09046  0.67440  1.0000
  H   H2261     1.0  0.61349  0.10303  0.68897  1.0000
  H   H2262     1.0  0.63030  0.09928  0.67074  1.0000
  H   H2263     1.0  0.60614  0.08494  0.65695  1.0000
  H   H2264     1.0  0.58981  0.08793  0.67542  1.0000
  C   C1425     1.0  0.60362  0.16144  0.67458  1.0000
  C   C1426     1.0  0.59127  0.16693  0.67873  1.0000
  C   C1427     1.0  0.58488  0.17632  0.67069  1.0000
  C   C1428     1.0  0.59061  0.17977  0.65832  1.0000
  C   C1429     1.0  0.60290  0.17413  0.65412  1.0000
  C   C1430     1.0  0.60950  0.16517  0.66232  1.0000
  H   H2265     1.0  0.58668  0.16409  0.68820  1.0000
  H   H2266     1.0  0.57543  0.18077  0.67402  1.0000
  H   H2267     1.0  0.60740  0.17679  0.64460  1.0000
  H   H2268     1.0  0.61907  0.16099  0.65908  1.0000
  H   H2269     1.0  0.36646  0.15450  0.62512  1.0000
  C   C1431     1.0  0.53486  0.13129  0.68167  1.0000
  C   C1432     1.0  0.52928  0.14319  0.68388  1.0000
  C   C1433     1.0  0.53419  0.14849  0.69102  1.0000
  C   C1434     1.0  0.54486  0.14206  0.69571  1.0000
  C   C1435     1.0  0.55051  0.13028  0.69331  1.0000
  C   C1436     1.0  0.54544  0.12491  0.68646  1.0000
  H   H2270     1.0  0.52096  0.14812  0.68045  1.0000
  H   H2271     1.0  0.52970  0.15759  0.69292  1.0000
  H   H2272     1.0  0.55866  0.12518  0.69694  1.0000
  H   H2273     1.0  0.54977  0.11576  0.68489  1.0000
  C   C1437     1.0  0.56758  0.09392  0.63409  1.0000
  C   C1438     1.0  0.56860  0.09590  0.62132  1.0000
  C   C1439     1.0  0.55938  0.10448  0.61570  1.0000
  C   C1440     1.0  0.54943  0.11140  0.62278  1.0000
  C   C1441     1.0  0.54843  0.10935  0.63554  1.0000
  C   C1442     1.0  0.55740  0.10051  0.64119  1.0000
  H   H2274     1.0  0.57636  0.09066  0.61583  1.0000
  H   H2275     1.0  0.56005  0.10580  0.60586  1.0000
  H   H2276     1.0  0.54078  0.11459  0.64110  1.0000
  H   H2277     1.0  0.55660  0.09902  0.65102  1.0000
  C   C1443     1.0  0.53417  0.17839  0.62414  1.0000
  C   C1444     1.0  0.53813  0.17131  0.61498  1.0000
  C   C1445     1.0  0.54954  0.17189  0.60678  1.0000
  C   C1446     1.0  0.55738  0.17892  0.60818  1.0000
  C   C1447     1.0  0.55343  0.18602  0.61734  1.0000
  C   C1448     1.0  0.54168  0.18598  0.62513  1.0000
  H   H2278     1.0  0.53231  0.16554  0.61410  1.0000
  H   H2279     1.0  0.55235  0.16672  0.59947  1.0000
  H   H2280     1.0  0.55935  0.19164  0.61832  1.0000
  H   H2281     1.0  0.53851  0.19163  0.63206  1.0000
  C   C1449     1.0  0.60166  0.30962  0.59595  1.0000
  C   C1450     1.0  0.60929  0.30950  0.60387  1.0000
  H   H2282     1.0  0.66620  0.99975  0.58576  1.0000
  H   H2283     1.0  0.33854  0.17978  0.55210  1.0000
  N   N141      1.0  0.35858  0.29681  0.66758  1.0000
  C   C1451     1.0  0.64057  0.19660  0.59363  1.0000
  H   H2284     1.0  0.61821  0.30327  0.60357  1.0000
  S   S615      1.0  0.38960  0.31805  0.60609  1.0000
  H   H2285     1.0  0.34891  0.17706  0.60274  1.0000
  C   C1452     1.0  0.63639  0.23887  0.59469  1.0000
  C   C1453     1.0  0.63240  0.24170  0.58352  1.0000
  C   C1454     1.0  0.62397  0.23536  0.58197  1.0000
  C   C1455     1.0  0.61949  0.22616  0.59157  1.0000
  C   C1456     1.0  0.62357  0.22321  0.60271  1.0000
  C   C1457     1.0  0.63214  0.22944  0.60419  1.0000
  H   H2286     1.0  0.63576  0.24883  0.57608  1.0000
  H   H2287     1.0  0.62088  0.23765  0.57331  1.0000
  H   H2288     1.0  0.62011  0.21618  0.61019  1.0000
  H   H2289     1.0  0.63525  0.22720  0.61285  1.0000
  H   H2290     1.0  0.35558  0.19286  0.60959  1.0000
  C   C1458     1.0  0.64143  0.31070  0.53973  1.0000
  H   H2291     1.0  0.63690  0.30838  0.54930  1.0000
  Fe  Fe298     1.0  0.36259  0.17875  0.51345  1.0000
  H   H2292     1.0  0.64317  0.17385  0.57821  1.0000
  H   H2293     1.0  0.37803  0.28973  0.66131  1.0000
  H   H2294     1.0  0.34882  0.18658  0.62524  1.0000
  H   H2295     1.0  0.34042  0.21026  0.55678  1.0000
  H   H2296     1.0  0.65563  0.03737  0.66260  1.0000
  H   H2297     1.0  0.62468  0.16079  0.72984  1.0000
  H   H2298     1.0  0.63835  0.32331  0.60389  1.0000
  H   H2299     1.0  0.42686  0.16987  0.55937  1.0000
  H   H2300     1.0  0.39453  0.18280  0.55486  1.0000
  H   H2301     1.0  0.65235  0.03337  0.57550  1.0000
  H   H2302     1.0  0.41754  0.19212  0.55503  1.0000
  H   H2303     1.0  0.57490  0.07395  0.67562  1.0000
  C   C1459     1.0  0.62898  0.03180  0.58796  1.0000
  C   C1460     1.0  0.63258  0.02486  0.59891  1.0000
  C   C1461     1.0  0.63397  0.03082  0.60768  1.0000
  C   C1462     1.0  0.63133  0.04378  0.60580  1.0000
  C   C1463     1.0  0.62723  0.05077  0.59510  1.0000
  C   C1464     1.0  0.62621  0.04478  0.58613  1.0000
  H   H2304     1.0  0.63453  0.01490  0.60059  1.0000
  H   H2305     1.0  0.63705  0.02536  0.61599  1.0000
  H   H2306     1.0  0.62520  0.06078  0.59355  1.0000
  H   H2307     1.0  0.62341  0.05024  0.57769  1.0000
  C   C1465     1.0  0.46027  0.13294  0.61631  1.0000
  C   C1466     1.0  0.47294  0.12834  0.61655  1.0000
  C   C1467     1.0  0.47865  0.13189  0.62436  1.0000
  C   C1468     1.0  0.47165  0.13987  0.63225  1.0000
  C   C1469     1.0  0.45901  0.14458  0.63191  1.0000
  C   C1470     1.0  0.45337  0.14124  0.62391  1.0000
  H   H2308     1.0  0.47836  0.12187  0.61077  1.0000
  H   H2309     1.0  0.48837  0.12815  0.62454  1.0000
  H   H2310     1.0  0.45348  0.15067  0.63804  1.0000
  H   H2311     1.0  0.44360  0.14477  0.62391  1.0000
  C   C1471     1.0  0.35897  0.13343  0.59647  1.0000
  C   C1472     1.0  0.35611  0.13343  0.60912  1.0000
  C   C1473     1.0  0.36511  0.13481  0.61490  1.0000
  C   C1474     1.0  0.37693  0.13645  0.60803  1.0000
  C   C1475     1.0  0.37968  0.13666  0.59536  1.0000
  C   C1476     1.0  0.37074  0.13519  0.58961  1.0000
  H   H2312     1.0  0.34710  0.13197  0.61454  1.0000
  H   H2313     1.0  0.36292  0.13445  0.62474  1.0000
  H   H2314     1.0  0.38875  0.13777  0.58998  1.0000
  H   H2315     1.0  0.37298  0.13554  0.57982  1.0000
  C   C1477     1.0  0.38550  0.20196  0.60131  1.0000
  C   C1478     1.0  0.38784  0.20370  0.58845  1.0000
  C   C1479     1.0  0.39883  0.19747  0.58209  1.0000
  C   C1480     1.0  0.40730  0.18903  0.58861  1.0000
  C   C1481     1.0  0.40476  0.18677  0.60154  1.0000
  C   C1482     1.0  0.39392  0.19341  0.60791  1.0000
  H   H2316     1.0  0.38124  0.20983  0.58328  1.0000
  H   H2317     1.0  0.40060  0.19910  0.57212  1.0000
  H   H2318     1.0  0.41130  0.18013  0.60660  1.0000
  H   H2319     1.0  0.39210  0.19193  0.61788  1.0000
  C   C1483     1.0  0.36328  0.27596  0.59092  1.0000
  C   C1484     1.0  0.37108  0.28451  0.58846  1.0000
  C   C1485     1.0  0.37195  0.29011  0.59783  1.0000
  C   C1486     1.0  0.36481  0.28741  0.60974  1.0000
  C   C1487     1.0  0.35701  0.27889  0.61219  1.0000
  C   C1488     1.0  0.35622  0.27322  0.60286  1.0000
  H   H2320     1.0  0.37657  0.28672  0.57925  1.0000
  H   H2321     1.0  0.37810  0.29654  0.59581  1.0000
  H   H2322     1.0  0.35138  0.27678  0.62133  1.0000
  H   H2323     1.0  0.34998  0.26688  0.60484  1.0000
  C   C1489     1.0  0.36079  0.20340  0.52751  1.0000
  C   C1490     1.0  0.35469  0.21447  0.53156  1.0000
  C   C1491     1.0  0.35976  0.21916  0.53902  1.0000
  C   C1492     1.0  0.37124  0.21309  0.54203  1.0000
  C   C1493     1.0  0.37758  0.20235  0.53752  1.0000
  C   C1494     1.0  0.37230  0.19735  0.53049  1.0000
  H   H2324     1.0  0.34600  0.21947  0.52893  1.0000
  H   H2325     1.0  0.35494  0.22765  0.54217  1.0000
  H   H2326     1.0  0.38658  0.19789  0.53955  1.0000
  H   H2327     1.0  0.65810  0.20085  0.57316  1.0000
  C   C1495     1.0  0.40956  0.14398  0.52870  1.0000
  C   C1496     1.0  0.40254  0.14602  0.54032  1.0000
  C   C1497     1.0  0.40802  0.14164  0.55088  1.0000
  C   C1498     1.0  0.42039  0.13504  0.54978  1.0000
  C   C1499     1.0  0.42715  0.13290  0.53822  1.0000
  C   C1500     1.0  0.42184  0.13745  0.52777  1.0000
  H   H2328     1.0  0.39306  0.15115  0.54110  1.0000
  H   H2329     1.0  0.40268  0.14318  0.55984  1.0000
  H   H2330     1.0  0.43664  0.12776  0.53727  1.0000
  H   H2331     1.0  0.42732  0.13584  0.51886  1.0000
  C   C1501     1.0  0.54728  0.09445  0.67769  1.0000
  H   H2332     1.0  0.37381  0.29161  0.67710  1.0000
  H   H2333     1.0  0.59843  0.12386  0.64381  1.0000
  H   H2334     1.0  0.37453  0.30488  0.66478  1.0000
  C   C1502     1.0  0.63553  0.32061  0.53164  1.0000
  C   C1503     1.0  0.37181  0.29568  0.66770  1.0000
  N   N142      1.0  0.36135  0.17313  0.61529  1.0000
  C   C1504     1.0  0.35139  0.17017  0.61102  1.0000
  C   C1505     1.0  0.36381  0.16413  0.62666  1.0000
  C   C1506     1.0  0.35743  0.18573  0.61796  1.0000
  C   C1507     1.0  0.37278  0.17250  0.60556  1.0000
  H   H2335     1.0  0.35420  0.16086  0.60857  1.0000
  C   C1508     1.0  0.65284  0.31657  0.51480  1.0000
  H   H2336     1.0  0.65995  0.03268  0.58765  1.0000
  H   H2337     1.0  0.35292  0.31423  0.67353  1.0000
  H   H2338     1.0  0.34069  0.30595  0.67629  1.0000
  H   H2339     1.0  0.35217  0.30091  0.68581  1.0000
  Fe  Fe299     1.0  0.34021  0.23279  0.58295  1.0000
  H   H2340     1.0  0.62507  0.19833  0.57850  1.0000
  C   C1509     1.0  0.59999  0.12523  0.65256  1.0000
  H   H2341     1.0  0.66023  0.01077  0.59571  1.0000
  H   H2342     1.0  0.37136  0.17947  0.59699  1.0000
  C   C1510     1.0  0.62182  0.12468  0.64407  1.0000
  N   N143      1.0  0.60163  0.26470  0.60423  1.0000
  C   C1511     1.0  0.60478  0.27132  0.61223  1.0000
  C   C1512     1.0  0.58915  0.27064  0.60164  1.0000
  C   C1513     1.0  0.60184  0.25161  0.61050  1.0000
  C   C1514     1.0  0.61083  0.26521  0.59248  1.0000
  H   H2343     1.0  0.60492  0.28118  0.60768  1.0000
  H   H2344     1.0  0.61415  0.26703  0.61437  1.0000
  H   H2345     1.0  0.59796  0.27126  0.62114  1.0000
  H   H2346     1.0  0.58660  0.26595  0.59547  1.0000
  H   H2347     1.0  0.58192  0.27038  0.61028  1.0000
  H   H2348     1.0  0.58878  0.28056  0.59694  1.0000
  H   H2349     1.0  0.59492  0.25079  0.61935  1.0000
  H   H2350     1.0  0.61115  0.24697  0.61262  1.0000
  H   H2351     1.0  0.59978  0.24623  0.60461  1.0000
  H   H2352     1.0  0.60938  0.25950  0.58659  1.0000
  H   H2353     1.0  0.62045  0.26189  0.59413  1.0000
  H   H2354     1.0  0.61027  0.27479  0.58698  1.0000
  N   N144      1.0  0.55343  0.16856  0.65920  1.0000
  C   C1515     1.0  0.54224  0.16447  0.65873  1.0000
  C   C1516     1.0  0.55040  0.18202  0.65892  1.0000
  C   C1517     1.0  0.56336  0.16589  0.64846  1.0000
  C   C1518     1.0  0.55775  0.16188  0.67071  1.0000
  H   H2355     1.0  0.53877  0.16928  0.65012  1.0000
  H   H2356     1.0  0.53453  0.16646  0.66664  1.0000
  H   H2357     1.0  0.54411  0.15433  0.65906  1.0000
  H   H2358     1.0  0.55852  0.18533  0.65973  1.0000
  H   H2359     1.0  0.54758  0.18741  0.65015  1.0000
  H   H2360     1.0  0.54267  0.18443  0.66668  1.0000
  H   H2361     1.0  0.56038  0.17072  0.63961  1.0000
  H   H2362     1.0  0.56595  0.15580  0.64846  1.0000
  H   H2363     1.0  0.57185  0.16908  0.64845  1.0000
  H   H2364     1.0  0.56665  0.16405  0.67102  1.0000
  H   H2365     1.0  0.55924  0.15165  0.67176  1.0000
  H   H2366     1.0  0.55091  0.16446  0.67899  1.0000
  N   N145      1.0  0.61021  0.13191  0.65022  1.0000
  H   H2367     1.0  0.64619  0.19094  0.60054  1.0000
  H   H2368     1.0  0.35874  0.31441  0.58970  1.0000
  H   H2369     1.0  0.61390  0.12447  0.66852  1.0000
  Fe  Fe300     1.0  0.63295  0.00373  0.57873  1.0000
  H   H2370     1.0  0.61489  0.13408  0.72451  1.0000
  C   C1519     1.0  0.65870  0.30667  0.52285  1.0000
  H   H2371     1.0  0.60208  0.11589  0.65851  1.0000
  H   H2372     1.0  0.60546  0.15902  0.70877  1.0000
  H   H2373     1.0  0.55984  0.06718  0.69458  1.0000
  H   H2374     1.0  0.54292  0.09065  0.67215  1.0000
  H   H2375     1.0  0.63093  0.13246  0.71690  1.0000
  H   H2376     1.0  0.36158  0.31933  0.60226  1.0000
  C   C1520     1.0  0.62155  0.13841  0.71667  1.0000
  H   H2377     1.0  0.61969  0.13827  0.66074  1.0000
  N   N146      1.0  0.64574  0.05138  0.65005  1.0000
  C   C1521     1.0  0.34065  0.18684  0.55602  1.0000
  H   H2378     1.0  0.62845  0.06271  0.65721  1.0000
  C   C1522     1.0  0.66159  0.03123  0.57804  1.0000
  C   C1523     1.0  0.41989  0.32292  0.63571  1.0000
  H   H2379     1.0  0.36472  0.18814  0.62130  1.0000
  H   H2380     1.0  0.43081  0.32150  0.68534  1.0000
  H   H2381     1.0  0.63703  0.19501  0.56546  1.0000
  H   H2382     1.0  0.62055  0.12223  0.63571  1.0000
  H   H2383     1.0  0.41072  0.32087  0.63931  1.0000
  H   H2384     1.0  0.38059  0.17428  0.60863  1.0000
  C   C1524     1.0  0.64137  0.17825  0.58631  1.0000
  C   C1525     1.0  0.65637  0.19123  0.57620  1.0000
  H   H2385     1.0  0.39347  0.32092  0.65727  1.0000
  H   H2386     1.0  0.64565  0.03812  0.63959  1.0000
  N   N147      1.0  0.37042  0.12539  0.55364  1.0000
  C   C1526     1.0  0.36056  0.11815  0.55655  1.0000
  C   C1527     1.0  0.37914  0.11964  0.56210  1.0000
  C   C1528     1.0  0.36471  0.13823  0.55521  1.0000
  C   C1529     1.0  0.37723  0.12555  0.54074  1.0000
  H   H2387     1.0  0.36448  0.10838  0.55559  1.0000
  H   H2388     1.0  0.35381  0.12216  0.55034  1.0000
  H   H2389     1.0  0.35516  0.11807  0.56619  1.0000
  H   H2390     1.0  0.38412  0.11021  0.56064  1.0000
  H   H2391     1.0  0.38628  0.12526  0.56076  1.0000
  H   H2392     1.0  0.37415  0.11859  0.57194  1.0000
  H   H2393     1.0  0.37183  0.14402  0.55309  1.0000
  H   H2394     1.0  0.35950  0.13849  0.56481  1.0000
  H   H2395     1.0  0.35795  0.14272  0.54906  1.0000
  H   H2396     1.0  0.38476  0.13094  0.53828  1.0000
  H   H2397     1.0  0.37095  0.12988  0.53409  1.0000
  H   H2398     1.0  0.38159  0.11603  0.53914  1.0000
  N   N148      1.0  0.47976  0.17893  0.62292  1.0000
  C   C1530     1.0  0.46675  0.17814  0.62896  1.0000
  C   C1531     1.0  0.48469  0.16998  0.61461  1.0000
  C   C1532     1.0  0.48733  0.17600  0.63245  1.0000
  C   C1533     1.0  0.48027  0.19159  0.61567  1.0000
  H   H2399     1.0  0.46271  0.18474  0.63531  1.0000
  H   H2400     1.0  0.46610  0.16870  0.63456  1.0000
  H   H2401     1.0  0.46078  0.18013  0.62206  1.0000
  H   H2402     1.0  0.49448  0.17034  0.60985  1.0000
  H   H2403     1.0  0.48457  0.16031  0.61979  1.0000
  H   H2404     1.0  0.47909  0.17178  0.60741  1.0000
  H   H2405     1.0  0.48397  0.18260  0.63885  1.0000
  H   H2406     1.0  0.49724  0.17636  0.62824  1.0000
  H   H2407     1.0  0.48706  0.16655  0.63819  1.0000
  H   H2408     1.0  0.49001  0.19246  0.61110  1.0000
  H   H2409     1.0  0.47661  0.19858  0.62166  1.0000
  H   H2410     1.0  0.47473  0.19411  0.60833  1.0000
  H   H2411     1.0  0.63954  0.15137  0.70608  1.0000
  H   H2412     1.0  0.37157  0.16579  0.62991  1.0000
  H   H2413     1.0  0.42409  0.15954  0.55132  1.0000
  Fe  Fe301     1.0  0.65111  0.28768  0.56510  1.0000
  C   C1534     1.0  0.56711  0.08107  0.67230  1.0000
  N   N149      1.0  0.41409  0.17836  0.54716  1.0000
  C   C1535     1.0  0.41230  0.17715  0.53517  1.0000
  C   C1536     1.0  0.42517  0.16921  0.55041  1.0000
  C   C1537     1.0  0.55243  0.07439  0.69066  1.0000
  H   H2414     1.0  0.34550  0.28492  0.67152  1.0000
  C   C1538     1.0  0.41585  0.19102  0.54622  1.0000
  H   H2415     1.0  0.40749  0.19815  0.54415  1.0000
  H   H2416     1.0  0.43367  0.17065  0.54329  1.0000
  H   H2417     1.0  0.40142  0.16658  0.55785  1.0000
  H   H2418     1.0  0.40397  0.18379  0.53241  1.0000
  S   S616      1.0  0.35114  0.16967  0.50641  1.0000
  S   S617      1.0  0.37491  0.14614  0.50481  1.0000
  H   H2419     1.0  0.34277  0.17010  0.61831  1.0000
  C   C1539     1.0  0.43882  0.32211  0.62010  1.0000
  H   H2420     1.0  0.33612  0.20192  0.57225  1.0000
  H   H2421     1.0  0.63062  0.19734  0.59823  1.0000
  H   H2422     1.0  0.62715  0.15695  0.69772  1.0000
  H   H2423     1.0  0.66395  0.03992  0.64683  1.0000
  H   H2424     1.0  0.54827  0.07002  0.68544  1.0000
  C   C1540     1.0  0.63970  0.04262  0.64727  1.0000
  H   H2425     1.0  0.34418  0.18199  0.56459  1.0000
  S   S618      1.0  0.66091  0.29153  0.54520  1.0000
  H   H2426     1.0  0.54506  0.07719  0.69854  1.0000
  H   H2427     1.0  0.64750  0.17237  0.59269  1.0000
  H   H2428     1.0  0.37715  0.18891  0.52729  1.0000
  C   C1541     1.0  0.60546  0.31763  0.61212  1.0000
  H   H2429     1.0  0.35092  0.14664  0.49853  1.0000
  H   H2430     1.0  0.55068  0.10270  0.67154  1.0000
  S   S619      1.0  0.34626  0.13913  0.52961  1.0000
  C   C1542     1.0  0.35543  0.28439  0.67147  1.0000
  S   S620      1.0  0.66168  0.27679  0.57996  1.0000
  H   H2431     1.0  0.62947  0.12992  0.64118  1.0000
  H   H2432     1.0  0.65725  0.31870  0.50517  1.0000
  H   H2433     1.0  0.34651  0.30330  0.65448  1.0000
  C   C1543     1.0  0.62986  0.15676  0.70650  1.0000
  H   H2434     1.0  0.35546  0.16457  0.63427  1.0000
  H   H2435     1.0  0.63755  0.03520  0.65545  1.0000
  H   H2436     1.0  0.53978  0.09785  0.68520  1.0000
  C   C1544     1.0  0.35636  0.30238  0.65496  1.0000
  C   C1545     1.0  0.63497  0.19854  0.57414  1.0000
  H   H2437     1.0  0.57115  0.08897  0.66611  1.0000
  N   N150      1.0  0.55743  0.08514  0.68264  1.0000
  N   N151      1.0  0.57381  0.13641  0.60127  1.0000
  C   C1546     1.0  0.56565  0.13498  0.59373  1.0000
  C   C1547     1.0  0.57964  0.14717  0.59493  1.0000
  C   C1548     1.0  0.58359  0.12512  0.60284  1.0000
  C   C1549     1.0  0.56641  0.13837  0.61353  1.0000
  H   H2438     1.0  0.57090  0.13368  0.58435  1.0000
  H   H2439     1.0  0.55795  0.14320  0.59266  1.0000
  H   H2440     1.0  0.56127  0.12684  0.59808  1.0000
  H   H2441     1.0  0.58586  0.14567  0.58597  1.0000
  H   H2442     1.0  0.57256  0.15570  0.59288  1.0000
  H   H2443     1.0  0.58525  0.14911  0.60065  1.0000
  H   H2444     1.0  0.58919  0.12315  0.59377  1.0000
  H   H2445     1.0  0.57960  0.11682  0.60781  1.0000
  H   H2446     1.0  0.59012  0.12601  0.60820  1.0000
  H   H2447     1.0  0.57220  0.13991  0.61930  1.0000
  H   H2448     1.0  0.56220  0.13024  0.61867  1.0000
  H   H2449     1.0  0.55863  0.14651  0.61272  1.0000
  H   H2450     1.0  0.66299  0.31428  0.55238  1.0000
  H   H2451     1.0  0.66290  0.18587  0.58237  1.0000
  C   C1550     1.0  0.35073  0.30479  0.67619  1.0000
  H   H2452     1.0  0.62987  0.16647  0.70671  1.0000
  H   H2453     1.0  0.34596  0.32066  0.60075  1.0000
  H   H2454     1.0  0.60607  0.14333  0.63304  1.0000
  H   H2455     1.0  0.61469  0.14950  0.64030  1.0000
  H   H2456     1.0  0.36115  0.27819  0.66509  1.0000
  H   H2457     1.0  0.59848  0.14994  0.64649  1.0000
  S   S621      1.0  0.37913  0.17484  0.49822  1.0000
  C   C1551     1.0  0.35545  0.32162  0.59545  1.0000
  N   N152      1.0  0.62126  0.15126  0.71736  1.0000
  C   C1552     1.0  0.60853  0.15864  0.71741  1.0000
  S   S622      1.0  0.65107  0.99349  0.56933  1.0000
  H   H2458     1.0  0.63573  0.20848  0.57163  1.0000
  H   H2459     1.0  0.35705  0.27988  0.68093  1.0000
  N   N153      1.0  0.46139  0.10836  0.57858  1.0000
  C   C1553     1.0  0.47143  0.10334  0.58565  1.0000
  C   C1554     1.0  0.46095  0.12173  0.57357  1.0000
  C   C1555     1.0  0.44939  0.10655  0.58683  1.0000
  C   C1556     1.0  0.46372  0.10188  0.56828  1.0000
  H   H2460     1.0  0.48063  0.10461  0.57976  1.0000
  H   H2461     1.0  0.47200  0.09328  0.58965  1.0000
  H   H2462     1.0  0.46984  0.10811  0.59350  1.0000
  H   H2463     1.0  0.45943  0.12686  0.58109  1.0000
  H   H2464     1.0  0.46977  0.12346  0.56714  1.0000
  H   H2465     1.0  0.45326  0.12590  0.56844  1.0000
  H   H2466     1.0  0.44155  0.11046  0.58186  1.0000
  H   H2467     1.0  0.44744  0.11117  0.59481  1.0000
  H   H2468     1.0  0.44930  0.09657  0.59069  1.0000
  H   H2469     1.0  0.45623  0.10554  0.56283  1.0000
  H   H2470     1.0  0.46405  0.09176  0.57172  1.0000
  H   H2471     1.0  0.47269  0.10306  0.56183  1.0000
  N   N154      1.0  0.38605  0.24232  0.60747  1.0000
  C   C1557     1.0  0.38847  0.23422  0.61930  1.0000
  C   C1558     1.0  0.39364  0.23638  0.59714  1.0000
  C   C1559     1.0  0.38925  0.25446  0.60612  1.0000
  C   C1560     1.0  0.37276  0.24421  0.60728  1.0000
  H   H2472     1.0  0.38613  0.22500  0.62045  1.0000
  H   H2473     1.0  0.38278  0.23836  0.62729  1.0000
  H   H2474     1.0  0.39841  0.23259  0.61981  1.0000
  H   H2475     1.0  0.39117  0.22737  0.59765  1.0000
  H   H2476     1.0  0.39225  0.24237  0.58805  1.0000
  H   H2477     1.0  0.40372  0.23450  0.59718  1.0000
  H   H2478     1.0  0.38750  0.26070  0.59723  1.0000
  H   H2479     1.0  0.39921  0.25346  0.60626  1.0000
  H   H2480     1.0  0.38355  0.25932  0.61364  1.0000
  H   H2481     1.0  0.36982  0.23530  0.60874  1.0000
  C   C1561     1.0  0.60718  0.14419  0.64218  1.0000
  H   H2482     1.0  0.60338  0.13915  0.66685  1.0000
  H   H2483     1.0  0.65942  0.01833  0.56239  1.0000
  Fe  Fe302     1.0  0.65041  0.29143  0.59053  1.0000
  C   C1562     1.0  0.59015  0.31775  0.59640  1.0000
  H   H2484     1.0  0.60788  0.16835  0.71814  1.0000
  H   H2485     1.0  0.62501  0.11585  0.65027  1.0000
  H   H2486     1.0  0.64000  0.06606  0.63549  1.0000
  H   H2487     1.0  0.37586  0.16318  0.60313  1.0000
  S   S623      1.0  0.35341  0.19703  0.51942  1.0000
  C   C1563     1.0  0.40307  0.17603  0.55687  1.0000
  H   H2488     1.0  0.35852  0.31181  0.65178  1.0000
  Fe  Fe303     1.0  0.36814  0.16398  0.49242  1.0000
  H   H2489     1.0  0.55582  0.09413  0.69763  1.0000
  C   C1564     1.0  0.61188  0.13351  0.66208  1.0000
  H   H2490     1.0  0.59113  0.13032  0.65738  1.0000
  H   H2491     1.0  0.63167  0.17785  0.59131  1.0000
  H   H2492     1.0  0.40421  0.17688  0.56600  1.0000
  H   H2493     1.0  0.41108  0.16768  0.53551  1.0000
  C   C1565     1.0  0.56289  0.09064  0.68990  1.0000
  C   C1566     1.0  0.64857  0.06088  0.63883  1.0000
  H   H2494     1.0  0.66220  0.05098  0.65623  1.0000
  C   C1567     1.0  0.62509  0.15123  0.72880  1.0000
  H   H2495     1.0  0.42043  0.17893  0.52764  1.0000
  Fe  Fe304     1.0  0.38432  0.15726  0.51198  1.0000
  C   C1568     1.0  0.65741  0.04460  0.65412  1.0000
  S   S624      1.0  0.65643  0.30094  0.60239  1.0000
  H   H2496     1.0  0.63473  0.14590  0.72900  1.0000
  H   H2497     1.0  0.44270  0.32308  0.67149  1.0000
  H   H2498     1.0  0.56707  0.09859  0.68407  1.0000
  N   N155      1.0  0.64332  0.19115  0.58256  1.0000
  H   H2499     1.0  0.36222  0.29668  0.64817  1.0000
  H   H2500     1.0  0.56333  0.07705  0.66645  1.0000
  H   H2501     1.0  0.63082  0.04741  0.64425  1.0000
  H   H2502     1.0  0.34833  0.19073  0.54923  1.0000
  H   H2503     1.0  0.63497  0.05059  0.66861  1.0000
  H   H2504     1.0  0.61146  0.31764  0.61811  1.0000
  C   C1569     1.0  0.63733  0.05744  0.65997  1.0000
  H   H2505     1.0  0.61900  0.13809  0.70799  1.0000
  H   H2506     1.0  0.64153  0.06424  0.66220  1.0000
  H   H2507     1.0  0.35069  0.13723  0.48826  1.0000
  H   H2508     1.0  0.65881  0.18708  0.56785  1.0000
  H   H2509     1.0  0.65290  0.06784  0.64059  1.0000
  C   C1570     1.0  0.42686  0.31962  0.62463  1.0000
  H   H2510     1.0  0.58422  0.31785  0.59029  1.0000
  H   H2511     1.0  0.44428  0.31948  0.61158  1.0000
  H   H2512     1.0  0.33759  0.16450  0.48849  1.0000
  H   H2513     1.0  0.66110  0.32196  0.60855  1.0000
  H   H2514     1.0  0.33793  0.16495  0.53088  1.0000
  H   H2515     1.0  0.62646  0.32586  0.53501  1.0000
  H   H2516     1.0  0.45778  0.32382  0.68349  1.0000
  H   H2517     1.0  0.44614  0.32186  0.69742  1.0000
  Fe  Fe305     1.0  0.37656  0.32506  0.63908  1.0000
  H   H2518     1.0  0.66684  0.03822  0.57179  1.0000
  S   S625      1.0  0.62156  0.99315  0.57327  1.0000
  C   C1571     1.0  0.66669  0.31094  0.59453  1.0000
  H   H2519     1.0  0.65247  0.14857  0.96162  1.0000
  S   S626      1.0  0.62780  0.16764  0.96609  1.0000
  Fe  Fe306     1.0  0.64479  0.02291  0.85728  1.0000
  S   S627      1.0  0.62830  0.03508  0.86698  1.0000
  H   H2520     1.0  0.65324  0.08185  0.88898  1.0000
  S   S628      1.0  0.64530  0.05688  0.85864  1.0000
  Fe  Fe307     1.0  0.64210  0.04095  0.87428  1.0000
  S   S629      1.0  0.63936  0.04355  0.89375  1.0000
  Fe  Fe308     1.0  0.63303  0.04993  0.85055  1.0000
  S   S630      1.0  0.61859  0.06406  0.84178  1.0000
  H   H2521     1.0  0.65920  0.09802  0.81427  1.0000
  S   S631      1.0  0.64865  0.03763  0.84029  1.0000
  Fe  Fe309     1.0  0.61529  0.12897  0.92374  1.0000
  S   S632      1.0  0.62487  0.10896  0.92510  1.0000
  S   S633      1.0  0.60521  0.13687  0.94087  1.0000
  Fe  Fe310     1.0  0.62113  0.13407  0.89547  1.0000
  S   S634      1.0  0.63166  0.11476  0.89449  1.0000
  S   S635      1.0  0.61896  0.14839  0.87807  1.0000
  Fe  Fe311     1.0  0.61612  0.10899  0.90956  1.0000
  S   S636      1.0  0.60731  0.09355  0.90906  1.0000
  Fe  Fe312     1.0  0.63948  0.11648  0.90995  1.0000
  S   S637      1.0  0.60488  0.12830  0.90960  1.0000
  S   S638      1.0  0.63064  0.13649  0.90948  1.0000
  Fe  Fe313     1.0  0.62200  0.13064  0.81650  1.0000
  S   S639      1.0  0.64227  0.12235  0.81390  1.0000
  S   S640      1.0  0.61146  0.12532  0.83605  1.0000
  Fe  Fe314     1.0  0.62361  0.14067  0.78850  1.0000
  S   S641      1.0  0.64423  0.13320  0.78397  1.0000
  S   S642      1.0  0.61211  0.15037  0.77381  1.0000
  Fe  Fe315     1.0  0.63958  0.11634  0.79779  1.0000
  S   S643      1.0  0.64715  0.09667  0.79569  1.0000
  S   S644      1.0  0.61901  0.12327  0.80123  1.0000
  S   S645      1.0  0.62461  0.14899  0.80421  1.0000
  C   C1572     1.0  0.61674  0.14213  0.86635  1.0000
  C   C1573     1.0  0.61864  0.14856  0.85403  1.0000
  C   C1574     1.0  0.61738  0.14338  0.84457  1.0000
  C   C1575     1.0  0.61380  0.13192  0.84748  1.0000
  C   C1576     1.0  0.61172  0.12563  0.85982  1.0000
  C   C1577     1.0  0.61336  0.13061  0.86920  1.0000
  H   H2522     1.0  0.62110  0.15756  0.85179  1.0000
  H   H2523     1.0  0.61884  0.14838  0.83508  1.0000
  H   H2524     1.0  0.60883  0.11689  0.86213  1.0000
  H   H2525     1.0  0.61173  0.12563  0.87868  1.0000
  C   C1578     1.0  0.62657  0.07297  0.82894  1.0000
  C   C1579     1.0  0.63562  0.06731  0.82011  1.0000
  C   C1580     1.0  0.64208  0.07456  0.80988  1.0000
  C   C1581     1.0  0.63965  0.08742  0.80868  1.0000
  C   C1582     1.0  0.63089  0.09297  0.81776  1.0000
  C   C1583     1.0  0.62416  0.08580  0.82771  1.0000
  H   H2526     1.0  0.63748  0.05736  0.82103  1.0000
  H   H2527     1.0  0.64890  0.07022  0.80292  1.0000
  H   H2528     1.0  0.62915  0.10280  0.81715  1.0000
  H   H2529     1.0  0.61723  0.09025  0.83452  1.0000
  C   C1584     1.0  0.63053  0.05773  0.89739  1.0000
  C   C1585     1.0  0.62131  0.05749  0.90815  1.0000
  C   C1586     1.0  0.61436  0.06854  0.91164  1.0000
  C   C1587     1.0  0.61694  0.07995  0.90476  1.0000
  C   C1588     1.0  0.62637  0.08028  0.89409  1.0000
  C   C1589     1.0  0.63303  0.06916  0.89028  1.0000
  H   H2530     1.0  0.61941  0.04870  0.91373  1.0000
  H   H2531     1.0  0.60701  0.06822  0.91981  1.0000
  H   H2532     1.0  0.62829  0.08911  0.88866  1.0000
  H   H2533     1.0  0.64024  0.06939  0.88202  1.0000
  H   H2534     1.0  0.60954  0.09987  0.80675  1.0000
  C   C1590     1.0  0.62165  0.15849  0.95963  1.0000
  C   C1591     1.0  0.61031  0.15488  0.96519  1.0000
  C   C1592     1.0  0.60549  0.14809  0.95943  1.0000
  C   C1593     1.0  0.61207  0.14461  0.94823  1.0000
  C   C1594     1.0  0.62360  0.14791  0.94286  1.0000
  C   C1595     1.0  0.62829  0.15493  0.94848  1.0000
  H   H2535     1.0  0.60510  0.15758  0.97376  1.0000
  H   H2536     1.0  0.59657  0.14558  0.96365  1.0000
  H   H2537     1.0  0.62881  0.14523  0.93429  1.0000
  H   H2538     1.0  0.63707  0.15768  0.94411  1.0000
  C   C1596     1.0  0.60154  0.12906  0.75001  1.0000
  S   S646      1.0  0.64668  0.00312  0.85484  1.0000
  C   C1597     1.0  0.61442  0.12987  0.76390  1.0000
  C   C1598     1.0  0.60822  0.14202  0.76467  1.0000
  C   C1599     1.0  0.59886  0.14775  0.75784  1.0000
  C   C1600     1.0  0.59549  0.14129  0.75058  1.0000
  H   H2539     1.0  0.59547  0.08378  0.79096  1.0000
  H   H2540     1.0  0.59401  0.15714  0.75840  1.0000
  H   H2541     1.0  0.65732  0.11791  0.98314  1.0000
  H   H2542     1.0  0.65956  0.10744  0.83157  1.0000
  H   H2543     1.0  0.63596  0.13852  0.97602  1.0000
  N   N156      1.0  0.59695  0.16823  0.91369  1.0000
  C   C1601     1.0  0.59043  0.18132  0.91279  1.0000
  C   C1602     1.0  0.60752  0.16606  0.91982  1.0000
  C   C1603     1.0  0.60160  0.16544  0.90118  1.0000
  C   C1604     1.0  0.58826  0.16008  0.92100  1.0000
  H   H2544     1.0  0.58680  0.18367  0.92211  1.0000
  H   H2545     1.0  0.58242  0.18330  0.90817  1.0000
  H   H2546     1.0  0.59675  0.18771  0.90737  1.0000
  H   H2547     1.0  0.61425  0.17208  0.91466  1.0000
  H   H2548     1.0  0.60437  0.16777  0.92942  1.0000
  H   H2549     1.0  0.61267  0.15630  0.92055  1.0000
  H   H2550     1.0  0.60662  0.15565  0.90158  1.0000
  H   H2551     1.0  0.60823  0.17135  0.89535  1.0000
  H   H2552     1.0  0.59392  0.16681  0.89627  1.0000
  H   H2553     1.0  0.59275  0.15014  0.92147  1.0000
  H   H2554     1.0  0.57993  0.16175  0.91693  1.0000
  H   H2555     1.0  0.58508  0.16141  0.93072  1.0000
  N   N157      1.0  0.60393  0.08469  0.86891  1.0000
  C   C1605     1.0  0.59583  0.08728  0.85991  1.0000
  C   C1606     1.0  0.59825  0.09257  0.87818  1.0000
  C   C1607     1.0  0.61626  0.08740  0.86238  1.0000
  C   C1608     1.0  0.60538  0.07149  0.87517  1.0000
  H   H2556     1.0  0.59972  0.08137  0.85289  1.0000
  H   H2557     1.0  0.59477  0.09711  0.85484  1.0000
  H   H2558     1.0  0.58641  0.08548  0.86452  1.0000
  H   H2559     1.0  0.60429  0.09126  0.88486  1.0000
  H   H2560     1.0  0.59656  0.10257  0.87378  1.0000
  H   H2561     1.0  0.58919  0.09038  0.88365  1.0000
  H   H2562     1.0  0.62242  0.08614  0.86894  1.0000
  H   H2563     1.0  0.61551  0.09707  0.85693  1.0000
  H   H2564     1.0  0.62105  0.08112  0.85581  1.0000
  H   H2565     1.0  0.61131  0.06926  0.88214  1.0000
  H   H2566     1.0  0.60979  0.06526  0.86846  1.0000
  H   H2567     1.0  0.59628  0.06902  0.88007  1.0000
  H   H2568     1.0  0.65834  0.08532  0.83516  1.0000
  N   N158      1.0  0.60816  0.09528  0.79010  1.0000
  H   H2569     1.0  0.62179  0.12545  0.76893  1.0000
  S   S647      1.0  0.65832  0.02733  0.86627  1.0000
  H   H2570     1.0  0.62197  0.09871  0.77351  1.0000
  H   H2571     1.0  0.64352  0.13318  0.86343  1.0000
  H   H2572     1.0  0.61407  0.08366  0.80645  1.0000
  C   C1609     1.0  0.60506  0.08511  0.78635  1.0000
  H   H2573     1.0  0.65433  0.13812  0.86922  1.0000
  H   H2574     1.0  0.61994  0.01184  0.85550  1.0000
  H   H2575     1.0  0.62791  0.08819  0.78630  1.0000
  H   H2576     1.0  0.58966  0.10642  0.79186  1.0000
  C   C1610     1.0  0.62278  0.00293  0.85282  1.0000
  H   H2577     1.0  0.61156  0.07617  0.78879  1.0000
  H   H2578     1.0  0.60560  0.08704  0.77619  1.0000
  H   H2579     1.0  0.66365  0.05374  0.91135  1.0000
  C   C1611     1.0  0.61113  0.12347  0.75656  1.0000
  Fe  Fe316     1.0  0.64492  0.14000  0.80061  1.0000
  C   C1612     1.0  0.62093  0.09670  0.78372  1.0000
  C   C1613     1.0  0.59930  0.10694  0.78673  1.0000
  H   H2580     1.0  0.60177  0.11498  0.78876  1.0000
  H   H2581     1.0  0.59912  0.10910  0.77671  1.0000
  H   H2582     1.0  0.59793  0.09100  0.80876  1.0000
  C   C1614     1.0  0.65657  0.14825  0.96960  1.0000
  H   H2583     1.0  0.64929  0.08591  0.91550  1.0000
  H   H2584     1.0  0.61595  0.11409  0.75599  1.0000
  C   C1615     1.0  0.60737  0.09232  0.80360  1.0000
  H   H2585     1.0  0.62355  0.10443  0.78614  1.0000
  N   N159      1.0  0.65378  0.13778  0.97983  1.0000
  H   H2586     1.0  0.64337  0.15266  0.83967  1.0000
  H   H2587     1.0  0.61895  0.14689  0.73713  1.0000
  C   C1616     1.0  0.64911  0.14041  0.86164  1.0000
  C   C1617     1.0  0.64019  0.13889  0.98368  1.0000
  Fe  Fe317     1.0  0.66065  0.04307  0.85008  1.0000
  H   H2588     1.0  0.65623  0.14432  0.83034  1.0000
  S   S648      1.0  0.59694  0.12004  0.74207  1.0000
  C   C1618     1.0  0.66541  0.12925  0.89382  1.0000
  C   C1619     1.0  0.66111  0.08242  0.89279  1.0000
  H   H2589     1.0  0.58795  0.14564  0.74575  1.0000
  H   H2590     1.0  0.65960  0.09209  0.89409  1.0000
  C   C1620     1.0  0.65019  0.14372  0.83971  1.0000
  N   N160      1.0  0.65751  0.14121  0.84939  1.0000
  H   H2591     1.0  0.60428  0.00207  0.85193  1.0000
  H   H2592     1.0  0.65796  0.13446  0.89962  1.0000
  H   H2593     1.0  0.64250  0.14937  0.86242  1.0000
  C   C1621     1.0  0.61391  0.99734  0.85080  1.0000
  H   H2594     1.0  0.65565  0.12552  0.96765  1.0000
  S   S649      1.0  0.65943  0.10832  0.91001  1.0000
  H   H2595     1.0  0.66378  0.01357  0.83511  1.0000
  H   H2596     1.0  0.65534  0.05990  0.89906  1.0000
  S   S650      1.0  0.65935  0.14865  0.80378  1.0000
  H   H2597     1.0  0.65258  0.15731  0.97252  1.0000
  H   H2598     1.0  0.64488  0.13634  0.84105  1.0000
  C   C1622     1.0  0.65936  0.12597  0.97564  1.0000
  H   H2599     1.0  0.66674  0.14767  0.96626  1.0000
  C   C1623     1.0  0.66651  0.12935  0.84896  1.0000
  H   H2600     1.0  0.64220  0.07581  0.91099  1.0000
  C   C1624     1.0  0.65064  0.07636  0.91390  1.0000
  C   C1625     1.0  0.63523  0.99683  0.85168  1.0000
  N   N161      1.0  0.66200  0.07339  0.90453  1.0000
  C   C1626     1.0  0.66421  0.15135  0.84731  1.0000
  H   H2601     1.0  0.65774  0.16051  0.84695  1.0000
  H   H2602     1.0  0.66173  0.12151  0.85064  1.0000
  C   C1627     1.0  0.66329  0.06073  0.90260  1.0000
  H   H2603     1.0  0.65104  0.06986  0.92293  1.0000
  H   H2604     1.0  0.56584  0.99684  0.84787  1.0000
  Fe  Fe318     1.0  0.62116  0.17071  0.98585  1.0000
  Fe  Fe319     1.0  0.58986  0.37937  0.21806  1.0000
  S   S651      1.0  0.60723  0.36735  0.20959  1.0000
  Fe  Fe320     1.0  0.57901  0.38607  0.19441  1.0000
  S   S652      1.0  0.59593  0.37523  0.18407  1.0000
  S   S653      1.0  0.56426  0.39718  0.18338  1.0000
  Fe  Fe321     1.0  0.59475  0.36072  0.20138  1.0000
  S   S654      1.0  0.59816  0.34096  0.19928  1.0000
  Fe  Fe322     1.0  0.60683  0.38281  0.19311  1.0000
  S   S655      1.0  0.62434  0.38866  0.18195  1.0000
  S   S656      1.0  0.57711  0.37108  0.21149  1.0000
  S   S657      1.0  0.59014  0.39537  0.20177  1.0000
  Fe  Fe323     1.0  0.50170  0.38713  0.13238  1.0000
  S   S658      1.0  0.51575  0.38704  0.11462  1.0000
  S   S659      1.0  0.48109  0.39252  0.13147  1.0000
  Fe  Fe324     1.0  0.52203  0.37932  0.14804  1.0000
  S   S660      1.0  0.53727  0.37835  0.13133  1.0000
  S   S661      1.0  0.52877  0.37248  0.16619  1.0000
  Fe  Fe325     1.0  0.52626  0.39611  0.12273  1.0000
  S   S662      1.0  0.53733  0.40983  0.10998  1.0000
  Fe  Fe326     1.0  0.52544  0.36937  0.12483  1.0000
  S   S663      1.0  0.53458  0.35375  0.11502  1.0000
  S   S664      1.0  0.51147  0.39795  0.13984  1.0000
  S   S665      1.0  0.51090  0.36868  0.14222  1.0000
  H   H2605     1.0  0.59625  0.35417  0.17431  1.0000
  Fe  Fe327     1.0  0.60231  0.34942  0.11512  1.0000
  S   S666      1.0  0.59682  0.36961  0.10630  1.0000
  S   S667      1.0  0.59753  0.34473  0.13576  1.0000
  Fe  Fe328     1.0  0.60121  0.44226  0.14200  1.0000
  S   S668      1.0  0.61663  0.44169  0.12540  1.0000
  S   S669      1.0  0.60291  0.44387  0.16056  1.0000
  Fe  Fe329     1.0  0.58200  0.43994  0.12889  1.0000
  S   S670      1.0  0.59563  0.43968  0.11074  1.0000
  S   S671      1.0  0.56225  0.43715  0.13611  1.0000
  Fe  Fe330     1.0  0.60884  0.42660  0.12230  1.0000
  S   S672      1.0  0.62055  0.40761  0.12036  1.0000
  Fe  Fe331     1.0  0.60235  0.45485  0.11540  1.0000
  S   S673      1.0  0.60586  0.47359  0.10404  1.0000
  S   S674      1.0  0.59481  0.42604  0.13999  1.0000
  S   S675      1.0  0.58737  0.45620  0.13239  1.0000
  H   H2606     1.0  0.35542  0.34542  0.05616  1.0000
  Fe  Fe332     1.0  0.33802  0.36692  0.08941  1.0000
  S   S676      1.0  0.64764  0.54924  0.11384  1.0000
  Fe  Fe333     1.0  0.64772  0.51477  0.11448  1.0000
  S   S677      1.0  0.63067  0.52755  0.12240  1.0000
  S   S678      1.0  0.64847  0.49481  0.11372  1.0000
  Fe  Fe334     1.0  0.63631  0.54153  0.10541  1.0000
  S   S679      1.0  0.62280  0.55441  0.09434  1.0000
  Fe  Fe335     1.0  0.64380  0.53390  0.13007  1.0000
  S   S680      1.0  0.64013  0.53804  0.14896  1.0000
  S   S681      1.0  0.65243  0.52839  0.09687  1.0000
  H   H2607     1.0  0.62994  0.62802  0.22332  1.0000
  Fe  Fe336     1.0  0.61157  0.62104  0.17257  1.0000
  S   S682      1.0  0.62187  0.60147  0.17218  1.0000
  S   S683      1.0  0.59817  0.62350  0.19061  1.0000
  Fe  Fe337     1.0  0.62071  0.62945  0.14485  1.0000
  S   S684      1.0  0.63152  0.61060  0.14234  1.0000
  H   H2608     1.0  0.65969  0.56794  0.06684  1.0000
  Fe  Fe338     1.0  0.61490  0.60395  0.15490  1.0000
  S   S685      1.0  0.60557  0.59075  0.15070  1.0000
  Fe  Fe339     1.0  0.63741  0.61016  0.15973  1.0000
  S   S686      1.0  0.60355  0.62291  0.15600  1.0000
  S   S687      1.0  0.62782  0.62963  0.16146  1.0000
  Fe  Fe340     1.0  0.64184  0.61102  0.05492  1.0000
  S   S688      1.0  0.62241  0.61996  0.05263  1.0000
  S   S689      1.0  0.65074  0.59165  0.05249  1.0000
  Fe  Fe341     1.0  0.64635  0.63351  0.06159  1.0000
  H   H2609     1.0  0.58284  0.42984  0.17901  1.0000
  Fe  Fe342     1.0  0.62104  0.62699  0.06973  1.0000
  S   S690      1.0  0.60628  0.62495  0.08699  1.0000
  Fe  Fe343     1.0  0.63075  0.63655  0.04249  1.0000
  H   H2610     1.0  0.63083  0.64656  0.99810  1.0000
  S   S691      1.0  0.63978  0.61642  0.07288  1.0000
  S   S692      1.0  0.65043  0.62703  0.04377  1.0000
  Fe  Fe344     1.0  0.40200  0.34166  0.01009  1.0000
  S   S693      1.0  0.38641  0.34753  0.02519  1.0000
  H   H2611     1.0  0.61909  0.38211  0.16175  1.0000
  S   S694      1.0  0.37662  0.37096  0.00427  1.0000
  Fe  Fe345     1.0  0.39023  0.36649  0.01675  1.0000
  S   S695      1.0  0.38995  0.37843  0.02982  1.0000
  Fe  Fe346     1.0  0.37459  0.35125  0.01128  1.0000
  S   S696      1.0  0.35611  0.34595  0.01542  1.0000
  S   S697      1.0  0.40665  0.36051  0.00237  1.0000
  S   S698      1.0  0.38976  0.34363  0.99676  1.0000
  S   S699      1.0  0.59420  0.33430  0.11252  1.0000
  S   S700      1.0  0.34491  0.40978  0.07612  1.0000
  Fe  Fe347     1.0  0.43743  0.36986  0.09726  1.0000
  S   S701      1.0  0.43637  0.35279  0.09119  1.0000
  S   S702      1.0  0.45698  0.36875  0.10026  1.0000
  Fe  Fe348     1.0  0.41156  0.38280  0.09175  1.0000
  S   S703      1.0  0.40921  0.36704  0.08488  1.0000
  S   S704      1.0  0.39656  0.40005  0.09232  1.0000
  Fe  Fe349     1.0  0.41660  0.35534  0.10136  1.0000
  C   C1628     1.0  0.62022  0.33333  0.16161  1.0000
  Fe  Fe350     1.0  0.42906  0.36604  0.07532  1.0000
  S   S705      1.0  0.43594  0.36219  0.05610  1.0000
  S   S706      1.0  0.41799  0.37121  0.10898  1.0000
  S   S707      1.0  0.43098  0.38296  0.08065  1.0000
  H   H2612     1.0  0.37724  0.42365  0.04507  1.0000
  C   C1629     1.0  0.35897  0.40615  0.08141  1.0000
  C   C1630     1.0  0.36707  0.39458  0.08134  1.0000
  C   C1631     1.0  0.37883  0.39257  0.08438  1.0000
  C   C1632     1.0  0.38230  0.40199  0.08783  1.0000
  C   C1633     1.0  0.37411  0.41344  0.08795  1.0000
  C   C1634     1.0  0.36260  0.41556  0.08462  1.0000
  H   H2613     1.0  0.36443  0.38731  0.07869  1.0000
  H   H2614     1.0  0.38513  0.38375  0.08412  1.0000
  H   H2615     1.0  0.37671  0.42078  0.09056  1.0000
  H   H2616     1.0  0.35648  0.42455  0.08455  1.0000
  H   H2617     1.0  0.61346  0.46296  0.14324  1.0000
  H   H2618     1.0  0.64608  0.60942  0.02987  1.0000
  C   C1635     1.0  0.55862  0.44063  0.18408  1.0000
  H   H2619     1.0  0.65563  0.63935  0.09714  1.0000
  H   H2620     1.0  0.55042  0.33805  0.17982  1.0000
  S   S708      1.0  0.65723  0.60313  0.16166  1.0000
  H   H2621     1.0  0.35928  0.36092  0.03096  1.0000
  C   C1636     1.0  0.40322  0.37443  0.03641  1.0000
  C   C1637     1.0  0.40328  0.37984  0.04612  1.0000
  C   C1638     1.0  0.41349  0.37639  0.05188  1.0000
  C   C1639     1.0  0.42382  0.36761  0.04789  1.0000
  C   C1640     1.0  0.42401  0.36252  0.03788  1.0000
  C   C1641     1.0  0.41366  0.36580  0.03225  1.0000
  H   H2622     1.0  0.39540  0.38661  0.04937  1.0000
  H   H2623     1.0  0.41337  0.38059  0.05942  1.0000
  H   H2624     1.0  0.43201  0.35576  0.03469  1.0000
  H   H2625     1.0  0.41377  0.36160  0.02474  1.0000
  H   H2626     1.0  0.39405  0.33789  0.06870  1.0000
  H   H2627     1.0  0.64589  0.46819  0.13031  1.0000
  C   C1642     1.0  0.62149  0.64301  0.10376  1.0000
  H   H2628     1.0  0.64028  0.44758  0.13676  1.0000
  H   H2629     1.0  0.35840  0.35331  0.12157  1.0000
  H   H2630     1.0  0.47248  0.34290  0.07245  1.0000
  H   H2631     1.0  0.63326  0.62130  0.02578  1.0000
  C   C1643     1.0  0.35835  0.36333  0.12051  1.0000
  N   N162      1.0  0.36901  0.41007  0.04168  1.0000
  C   C1644     1.0  0.48528  0.43741  0.10541  1.0000
  C   C1645     1.0  0.61867  0.64359  0.01593  1.0000
  C   C1646     1.0  0.62185  0.64461  0.00310  1.0000
  C   C1647     1.0  0.61333  0.64354  0.99665  1.0000
  C   C1648     1.0  0.60148  0.64167  0.00293  1.0000
  C   C1649     1.0  0.59854  0.63995  0.01587  1.0000
  C   C1650     1.0  0.60715  0.64085  0.02238  1.0000
  H   H2632     1.0  0.63096  0.59541  0.03895  1.0000
  C   C1651     1.0  0.50475  0.42445  0.10962  1.0000
  H   H2633     1.0  0.58942  0.63840  0.02082  1.0000
  H   H2634     1.0  0.60461  0.64010  0.03230  1.0000
  C   C1652     1.0  0.61643  0.63925  0.11627  1.0000
  C   C1653     1.0  0.59016  0.63661  0.20911  1.0000
  C   C1654     1.0  0.61831  0.63870  0.09478  1.0000
  C   C1655     1.0  0.60961  0.63106  0.09817  1.0000
  C   C1656     1.0  0.60423  0.62759  0.11067  1.0000
  C   C1657     1.0  0.60785  0.63145  0.11973  1.0000
  H   H2635     1.0  0.45744  0.35103  0.06951  1.0000
  H   H2636     1.0  0.65023  0.58942  0.02394  1.0000
  H   H2637     1.0  0.59741  0.62179  0.11336  1.0000
  H   H2638     1.0  0.60380  0.62860  0.12936  1.0000
  C   C1658     1.0  0.64293  0.58128  0.06399  1.0000
  C   C1659     1.0  0.64968  0.57016  0.06963  1.0000
  C   C1660     1.0  0.64352  0.56195  0.07906  1.0000
  C   C1661     1.0  0.63056  0.56463  0.08255  1.0000
  C   C1662     1.0  0.62379  0.57568  0.07679  1.0000
  C   C1663     1.0  0.63000  0.58412  0.06769  1.0000
  Fe  Fe351     1.0  0.59128  0.32863  0.13319  1.0000
  H   H2639     1.0  0.64885  0.55353  0.08354  1.0000
  H   H2640     1.0  0.61378  0.57785  0.07955  1.0000
  H   H2641     1.0  0.62473  0.59275  0.06345  1.0000
  C   C1664     1.0  0.63043  0.55261  0.14957  1.0000
  C   C1665     1.0  0.63320  0.56071  0.15540  1.0000
  C   C1666     1.0  0.62563  0.57249  0.15571  1.0000
  C   C1667     1.0  0.61502  0.57600  0.15057  1.0000
  C   C1668     1.0  0.61210  0.56781  0.14496  1.0000
  C   C1669     1.0  0.61994  0.55621  0.14424  1.0000
  H   H2642     1.0  0.64135  0.55794  0.15948  1.0000
  H   H2643     1.0  0.62797  0.57880  0.16000  1.0000
  H   H2644     1.0  0.60390  0.57050  0.14098  1.0000
  H   H2645     1.0  0.61777  0.54995  0.13976  1.0000
  H   H2646     1.0  0.35354  0.36613  0.12943  1.0000
  H   H2647     1.0  0.62242  0.38281  0.14544  1.0000
  C   C1670     1.0  0.59056  0.64546  0.21555  1.0000
  C   C1671     1.0  0.59854  0.63525  0.19795  1.0000
  N   N163      1.0  0.63448  0.36820  0.15547  1.0000
  H   H2648     1.0  0.55555  0.33417  0.10984  1.0000
  H   H2649     1.0  0.42742  0.33919  0.05495  1.0000
  H   H2650     1.0  0.58337  0.63077  0.21283  1.0000
  H   H2651     1.0  0.62805  0.64910  0.10097  1.0000
  C   C1672     1.0  0.61756  0.47942  0.10708  1.0000
  C   C1673     1.0  0.61462  0.49071  0.11108  1.0000
  C   C1674     1.0  0.62397  0.49558  0.11319  1.0000
  C   C1675     1.0  0.63637  0.48933  0.11100  1.0000
  C   C1676     1.0  0.63929  0.47811  0.10691  1.0000
  C   C1677     1.0  0.62995  0.47319  0.10495  1.0000
  H   H2652     1.0  0.60505  0.49561  0.11270  1.0000
  H   H2653     1.0  0.62160  0.50410  0.11658  1.0000
  H   H2654     1.0  0.64885  0.47322  0.10517  1.0000
  H   H2655     1.0  0.63236  0.46459  0.10167  1.0000
  C   C1678     1.0  0.60394  0.38013  0.10960  1.0000
  C   C1679     1.0  0.59930  0.39290  0.10640  1.0000
  C   C1680     1.0  0.60428  0.40145  0.10968  1.0000
  C   C1681     1.0  0.61425  0.39726  0.11577  1.0000
  C   C1682     1.0  0.61914  0.38451  0.11861  1.0000
  C   C1683     1.0  0.61389  0.37594  0.11573  1.0000
  H   H2656     1.0  0.59172  0.39622  0.10152  1.0000
  H   H2657     1.0  0.60054  0.41128  0.10734  1.0000
  H   H2658     1.0  0.62699  0.38127  0.12309  1.0000
  H   H2659     1.0  0.61762  0.36612  0.11810  1.0000
  C   C1684     1.0  0.54462  0.41691  0.11740  1.0000
  C   C1685     1.0  0.53979  0.41807  0.12967  1.0000
  C   C1686     1.0  0.54524  0.42441  0.13524  1.0000
  C   C1687     1.0  0.55582  0.42920  0.12875  1.0000
  C   C1688     1.0  0.56096  0.42760  0.11663  1.0000
  C   C1689     1.0  0.55524  0.42163  0.11090  1.0000
  H   H2660     1.0  0.53163  0.41444  0.13476  1.0000
  H   H2661     1.0  0.54124  0.42559  0.14463  1.0000
  H   H2662     1.0  0.56910  0.43130  0.11155  1.0000
  H   H2663     1.0  0.55902  0.42075  0.10140  1.0000
  C   C1690     1.0  0.54438  0.34354  0.12433  1.0000
  C   C1691     1.0  0.54294  0.34477  0.13651  1.0000
  N   N164      1.0  0.65715  0.64758  0.11156  1.0000
  C   C1692     1.0  0.37823  0.40912  0.03005  1.0000
  S   S709      1.0  0.65857  0.64043  0.06988  1.0000
  C   C1693     1.0  0.64837  0.65911  0.10768  1.0000
  H   H2664     1.0  0.53512  0.35118  0.14051  1.0000
  H   H2665     1.0  0.34550  0.35365  0.99207  1.0000
  Fe  Fe352     1.0  0.66355  0.53502  0.10669  1.0000
  C   C1694     1.0  0.47442  0.38580  0.12284  1.0000
  C   C1695     1.0  0.48164  0.37711  0.11581  1.0000
  C   C1696     1.0  0.47610  0.37205  0.10901  1.0000
  C   C1697     1.0  0.46327  0.37554  0.10914  1.0000
  C   C1698     1.0  0.45604  0.38430  0.11611  1.0000
  C   C1699     1.0  0.46160  0.38941  0.12290  1.0000
  H   H2666     1.0  0.49149  0.37418  0.11569  1.0000
  H   H2667     1.0  0.48180  0.36524  0.10373  1.0000
  H   H2668     1.0  0.44617  0.38709  0.11634  1.0000
  H   H2669     1.0  0.45590  0.39609  0.12832  1.0000
  C   C1700     1.0  0.55419  0.39023  0.17898  1.0000
  C   C1701     1.0  0.54661  0.39745  0.17068  1.0000
  C   C1702     1.0  0.53899  0.39212  0.16643  1.0000
  C   C1703     1.0  0.53848  0.37960  0.17087  1.0000
  C   C1704     1.0  0.54572  0.37249  0.17949  1.0000
  C   C1705     1.0  0.55374  0.37769  0.18335  1.0000
  H   H2670     1.0  0.54666  0.40722  0.16746  1.0000
  H   H2671     1.0  0.53328  0.39775  0.15996  1.0000
  H   H2672     1.0  0.54500  0.36294  0.18324  1.0000
  H   H2673     1.0  0.55934  0.37209  0.18992  1.0000
  C   C1706     1.0  0.62022  0.40448  0.17623  1.0000
  C   C1707     1.0  0.62254  0.40898  0.16349  1.0000
  C   C1708     1.0  0.61755  0.42128  0.15873  1.0000
  C   C1709     1.0  0.61052  0.42914  0.16671  1.0000
  C   C1710     1.0  0.60879  0.42485  0.17948  1.0000
  C   C1711     1.0  0.61349  0.41242  0.18425  1.0000
  H   H2674     1.0  0.62766  0.40285  0.15726  1.0000
  H   H2675     1.0  0.61896  0.42455  0.14885  1.0000
  H   H2676     1.0  0.60336  0.43094  0.18566  1.0000
  H   H2677     1.0  0.61176  0.40891  0.19413  1.0000
  C   C1712     1.0  0.60385  0.34627  0.17383  1.0000
  H   H2678     1.0  0.49293  0.41702  0.09578  1.0000
  H   H2679     1.0  0.66172  0.63593  0.12843  1.0000
  H   H2680     1.0  0.64424  0.38254  0.14458  1.0000
  C   C1713     1.0  0.55895  0.33062  0.17917  1.0000
  H   H2681     1.0  0.35914  0.39816  0.05655  1.0000
  C   C1714     1.0  0.63644  0.44954  0.14621  1.0000
  H   H2682     1.0  0.54903  0.43605  0.16638  1.0000
  H   H2683     1.0  0.55292  0.42232  0.17769  1.0000
  H   H2684     1.0  0.63381  0.46193  0.16418  1.0000
  H   H2685     1.0  0.35025  0.41939  0.04759  1.0000
  H   H2686     1.0  0.37461  0.39101  0.05038  1.0000
  H   H2687     1.0  0.38213  0.40807  0.05309  1.0000
  S   S710      1.0  0.59002  0.64214  0.99483  1.0000
  C   C1715     1.0  0.55444  0.33513  0.11925  1.0000
  H   H2688     1.0  0.42141  0.33467  0.07113  1.0000
  H   H2689     1.0  0.57444  0.44076  0.15461  1.0000
  H   H2690     1.0  0.56070  0.34723  0.19106  1.0000
  H   H2691     1.0  0.61076  0.53412  0.09226  1.0000
  H   H2692     1.0  0.61589  0.64436  0.98678  1.0000
  H   H2693     1.0  0.38000  0.41835  0.02475  1.0000
  H   H2694     1.0  0.64534  0.63550  0.11167  1.0000
  H   H2695     1.0  0.57127  0.38156  0.07890  1.0000
  N   N165      1.0  0.57625  0.39172  0.14169  1.0000
  C   C1716     1.0  0.58976  0.38824  0.14123  1.0000
  C   C1717     1.0  0.57381  0.39463  0.12907  1.0000
  C   C1718     1.0  0.57106  0.40275  0.14730  1.0000
  C   C1719     1.0  0.57033  0.38132  0.14917  1.0000
  H   H2696     1.0  0.59184  0.38579  0.15066  1.0000
  H   H2697     1.0  0.59443  0.39605  0.13594  1.0000
  H   H2698     1.0  0.59411  0.38017  0.13670  1.0000
  H   H2699     1.0  0.56366  0.39722  0.12916  1.0000
  H   H2700     1.0  0.57794  0.40261  0.12323  1.0000
  H   H2701     1.0  0.57776  0.38658  0.12445  1.0000
  H   H2702     1.0  0.56089  0.40564  0.14781  1.0000
  H   H2703     1.0  0.57526  0.41079  0.14179  1.0000
  H   H2704     1.0  0.57276  0.40098  0.15682  1.0000
  H   H2705     1.0  0.56015  0.38356  0.14949  1.0000
  H   H2706     1.0  0.57164  0.37913  0.15888  1.0000
  H   H2707     1.0  0.57424  0.37279  0.14528  1.0000
  N   N166      1.0  0.37109  0.36575  0.11662  1.0000
  H   H2708     1.0  0.58406  0.64643  0.22413  1.0000
  H   H2709     1.0  0.61854  0.60730  0.03383  1.0000
  H   H2710     1.0  0.62271  0.47512  0.15849  1.0000
  H   H2711     1.0  0.60809  0.34971  0.15392  1.0000
  C   C1720     1.0  0.37060  0.37916  0.11498  1.0000
  H   H2712     1.0  0.63016  0.38494  0.23594  1.0000
  H   H2713     1.0  0.35035  0.37289  0.00249  1.0000
  C   C1721     1.0  0.37409  0.41485  0.04983  1.0000
  S   S711      1.0  0.62172  0.33808  0.11359  1.0000
  H   H2714     1.0  0.65724  0.65212  0.12871  1.0000
  H   H2715     1.0  0.57183  0.34249  0.15851  1.0000
  H   H2716     1.0  0.58145  0.42109  0.16861  1.0000
  H   H2717     1.0  0.63838  0.47996  0.13909  1.0000
  H   H2718     1.0  0.36483  0.38472  0.10815  1.0000
  C   C1722     1.0  0.36623  0.39772  0.04788  1.0000
  H   H2719     1.0  0.38005  0.38138  0.11156  1.0000
  N   N167      1.0  0.47115  0.36236  0.06463  1.0000
  C   C1723     1.0  0.46571  0.35184  0.07257  1.0000
  C   C1724     1.0  0.48185  0.36328  0.06925  1.0000
  C   C1725     1.0  0.46173  0.37397  0.06493  1.0000
  C   C1726     1.0  0.40871  0.33504  0.04706  1.0000
  H   H2720     1.0  0.57730  0.34440  0.18845  1.0000
  H   H2721     1.0  0.46271  0.35295  0.08236  1.0000
  H   H2722     1.0  0.61586  0.63793  0.22926  1.0000
  H   H2723     1.0  0.47892  0.36481  0.07894  1.0000
  H   H2724     1.0  0.48911  0.35464  0.06927  1.0000
  H   H2725     1.0  0.48619  0.37114  0.06352  1.0000
  H   H2726     1.0  0.46547  0.38211  0.05899  1.0000
  H   H2727     1.0  0.45847  0.37580  0.07446  1.0000
  H   H2728     1.0  0.45344  0.37357  0.06166  1.0000
  Fe  Fe353     1.0  0.39271  0.36321  0.99046  1.0000
  C   C1727     1.0  0.47523  0.36037  0.05181  1.0000
  C   C1728     1.0  0.56928  0.34010  0.18927  1.0000
  C   C1729     1.0  0.60686  0.33843  0.18473  1.0000
  N   N168      1.0  0.41211  0.32991  0.05927  1.0000
  H   H2729     1.0  0.62208  0.59258  0.02937  1.0000
  H   H2730     1.0  0.38730  0.40330  0.03189  1.0000
  H   H2731     1.0  0.37750  0.35166  0.10569  1.0000
  H   H2732     1.0  0.62900  0.44412  0.15059  1.0000
  H   H2733     1.0  0.61827  0.47755  0.13739  1.0000
  H   H2734     1.0  0.57962  0.34948  0.16591  1.0000
  C   C1730     1.0  0.35743  0.41863  0.03895  1.0000
  H   H2735     1.0  0.37659  0.33269  0.05254  1.0000
  H   H2736     1.0  0.36271  0.39370  0.04185  1.0000
  H   H2737     1.0  0.65197  0.59728  0.00803  1.0000
  H   H2738     1.0  0.37514  0.40474  0.02398  1.0000
  N   N169      1.0  0.63159  0.46293  0.14581  1.0000
  C   C1731     1.0  0.56347  0.32849  0.12615  1.0000
  H   H2739     1.0  0.61327  0.38254  0.22715  1.0000
  C   C1732     1.0  0.55177  0.33790  0.14350  1.0000
  H   H2740     1.0  0.50953  0.41524  0.11409  1.0000
  H   H2741     1.0  0.59781  0.62167  0.23006  1.0000
  H   H2742     1.0  0.66325  0.59367  0.07066  1.0000
  H   H2743     1.0  0.47935  0.36815  0.04552  1.0000
  H   H2744     1.0  0.34923  0.32744  0.04437  1.0000
  H   H2745     1.0  0.48680  0.43008  0.12924  1.0000
  H   H2746     1.0  0.57576  0.44944  0.16510  1.0000
  H   H2747     1.0  0.35242  0.33704  0.07183  1.0000
  H   H2748     1.0  0.37193  0.36687  0.09736  1.0000
  H   H2749     1.0  0.62485  0.46501  0.12936  1.0000
  S   S712      1.0  0.35384  0.35270  0.09598  1.0000
  N   N170      1.0  0.58020  0.59746  0.18340  1.0000
  C   C1733     1.0  0.57217  0.60032  0.19512  1.0000
  C   C1734     1.0  0.59311  0.59259  0.18515  1.0000
  C   C1735     1.0  0.57967  0.60889  0.17375  1.0000
  C   C1736     1.0  0.57592  0.58808  0.17953  1.0000
  H   H2750     1.0  0.56235  0.60407  0.19415  1.0000
  H   H2751     1.0  0.57528  0.60742  0.19815  1.0000
  H   H2752     1.0  0.57237  0.59193  0.20266  1.0000
  H   H2753     1.0  0.59669  0.59946  0.18798  1.0000
  H   H2754     1.0  0.59389  0.58397  0.19236  1.0000
  H   H2755     1.0  0.59945  0.59036  0.17648  1.0000
  H   H2756     1.0  0.58304  0.61611  0.17627  1.0000
  H   H2757     1.0  0.57005  0.61293  0.17227  1.0000
  H   H2758     1.0  0.58550  0.60704  0.16472  1.0000
  H   H2759     1.0  0.58192  0.58578  0.17070  1.0000
  H   H2760     1.0  0.61360  0.64207  0.18446  1.0000
  S   S713      1.0  0.62741  0.64461  0.05938  1.0000
  C   C1737     1.0  0.40074  0.32886  0.06889  1.0000
  H   H2761     1.0  0.36654  0.38245  0.12379  1.0000
  S   S714      1.0  0.62874  0.64717  0.02330  1.0000
  C   C1738     1.0  0.60715  0.64299  0.19310  1.0000
  C   C1739     1.0  0.34191  0.33360  0.09913  1.0000
  H   H2762     1.0  0.35906  0.42812  0.03446  1.0000
  C   C1740     1.0  0.35307  0.33713  0.09829  1.0000
  H   H2763     1.0  0.64395  0.44586  0.15159  1.0000
  C   C1741     1.0  0.57120  0.34568  0.16712  1.0000
  C   C1742     1.0  0.41874  0.33822  0.06196  1.0000
  C   C1743     1.0  0.34955  0.36067  0.03257  1.0000
  C   C1744     1.0  0.34556  0.35393  0.02617  1.0000
  S   S715      1.0  0.34371  0.37779  0.07036  1.0000
  H   H2764     1.0  0.57211  0.36507  0.08279  1.0000
  H   H2765     1.0  0.64936  0.46687  0.14509  1.0000
  H   H2766     1.0  0.66155  0.62853  0.10980  1.0000
  H   H2767     1.0  0.50929  0.42596  0.09967  1.0000
  N   N171      1.0  0.63508  0.60440  0.01985  1.0000
  C   C1745     1.0  0.64509  0.59402  0.01632  1.0000
  C   C1746     1.0  0.62628  0.59970  0.03098  1.0000
  C   C1747     1.0  0.62840  0.61027  0.00963  1.0000
  C   C1748     1.0  0.64056  0.61364  0.02253  1.0000
  H   H2768     1.0  0.56295  0.35339  0.16790  1.0000
  S   S716      1.0  0.40529  0.34101  0.11218  1.0000
  C   C1749     1.0  0.37837  0.35879  0.12613  1.0000
  H   H2769     1.0  0.48230  0.35166  0.05121  1.0000
  C   C1750     1.0  0.61966  0.62919  0.22572  1.0000
  C   C1751     1.0  0.64174  0.46976  0.13985  1.0000
  H   H2770     1.0  0.62063  0.61798  0.01216  1.0000
  H   H2771     1.0  0.62431  0.60354  0.00717  1.0000
  H   H2772     1.0  0.64063  0.51191  0.08824  1.0000
  H   H2773     1.0  0.35263  0.36849  0.11350  1.0000
  H   H2774     1.0  0.64682  0.61788  0.01423  1.0000
  H   H2775     1.0  0.41286  0.34764  0.06209  1.0000
  N   N172      1.0  0.62680  0.59183  0.11118  1.0000
  C   C1752     1.0  0.61334  0.59483  0.11635  1.0000
  C   C1753     1.0  0.62881  0.58578  0.10062  1.0000
  C   C1754     1.0  0.63327  0.58337  0.12076  1.0000
  C   C1755     1.0  0.63169  0.60337  0.10697  1.0000
  H   H2776     1.0  0.61139  0.59980  0.12408  1.0000
  H   H2777     1.0  0.60939  0.58631  0.12004  1.0000
  H   H2778     1.0  0.60816  0.60089  0.10921  1.0000
  H   H2779     1.0  0.63884  0.58324  0.09648  1.0000
  H   H2780     1.0  0.62504  0.57712  0.10349  1.0000
  H   H2781     1.0  0.62410  0.59198  0.09319  1.0000
  H   H2782     1.0  0.64348  0.58113  0.11729  1.0000
  H   H2783     1.0  0.63004  0.57443  0.12389  1.0000
  H   H2784     1.0  0.63156  0.58750  0.12905  1.0000
  H   H2785     1.0  0.64186  0.60151  0.10325  1.0000
  H   H2786     1.0  0.62987  0.60843  0.11461  1.0000
  H   H2787     1.0  0.62721  0.60977  0.09951  1.0000
  N   N173      1.0  0.56300  0.37458  0.09770  1.0000
  C   C1756     1.0  0.55052  0.37634  0.09508  1.0000
  C   C1757     1.0  0.56515  0.36329  0.10733  1.0000
  C   C1758     1.0  0.56380  0.38547  0.10204  1.0000
  C   C1759     1.0  0.57251  0.37318  0.08634  1.0000
  H   H2788     1.0  0.54858  0.38466  0.08774  1.0000
  H   H2789     1.0  0.54315  0.37758  0.10344  1.0000
  H   H2790     1.0  0.54943  0.36814  0.09212  1.0000
  H   H2791     1.0  0.55799  0.36381  0.11596  1.0000
  H   H2792     1.0  0.56482  0.35491  0.10422  1.0000
  H   H2793     1.0  0.57437  0.36172  0.10976  1.0000
  H   H2794     1.0  0.57321  0.38467  0.10371  1.0000
  H   H2795     1.0  0.55702  0.38658  0.11080  1.0000
  H   H2796     1.0  0.56175  0.39421  0.09518  1.0000
  H   H2797     1.0  0.64292  0.35379  0.16887  1.0000
  H   H2798     1.0  0.35343  0.41535  0.03273  1.0000
  H   H2799     1.0  0.58205  0.37169  0.08808  1.0000
  N   N174      1.0  0.62464  0.52273  0.08089  1.0000
  C   C1760     1.0  0.61593  0.52106  0.07407  1.0000
  C   C1761     1.0  0.63054  0.53329  0.07386  1.0000
  C   C1762     1.0  0.63429  0.51131  0.08251  1.0000
  C   C1763     1.0  0.61774  0.52527  0.09311  1.0000
  H   H2800     1.0  0.61132  0.51315  0.07915  1.0000
  S   S717      1.0  0.66060  0.52001  0.12357  1.0000
  H   H2801     1.0  0.60850  0.52949  0.07273  1.0000
  H   H2802     1.0  0.63713  0.53484  0.07876  1.0000
  H   H2803     1.0  0.63581  0.53178  0.06456  1.0000
  H   H2804     1.0  0.62353  0.54210  0.07264  1.0000
  H   H2805     1.0  0.64011  0.50944  0.07350  1.0000
  H   H2806     1.0  0.63011  0.50305  0.08719  1.0000
  C   C1764     1.0  0.61042  0.34363  0.16228  1.0000
  H   H2807     1.0  0.62410  0.52614  0.09868  1.0000
  H   H2808     1.0  0.61274  0.51776  0.09849  1.0000
  H   H2809     1.0  0.64142  0.38145  0.16094  1.0000
  H   H2810     1.0  0.56469  0.44524  0.18692  1.0000
  H   H2811     1.0  0.34394  0.37240  0.04597  1.0000
  C   C1765     1.0  0.63379  0.35994  0.16780  1.0000
  H   H2812     1.0  0.36699  0.41682  0.05814  1.0000
  H   H2813     1.0  0.64134  0.58685  0.01419  1.0000
  C   C1766     1.0  0.60743  0.65196  0.19948  1.0000
  S   S718      1.0  0.62127  0.64397  0.12748  1.0000
  C   C1767     1.0  0.62220  0.37633  0.15457  1.0000
  H   H2814     1.0  0.61889  0.46000  0.16326  1.0000
  H   H2815     1.0  0.55077  0.33917  0.15278  1.0000
  H   H2816     1.0  0.37399  0.36129  0.13527  1.0000
  H   H2817     1.0  0.62699  0.35390  0.16949  1.0000
  H   H2818     1.0  0.64713  0.35396  0.14663  1.0000
  H   H2819     1.0  0.38796  0.36066  0.12356  1.0000
  C   C1768     1.0  0.37707  0.36172  0.10482  1.0000
  H   H2820     1.0  0.41707  0.33589  0.03953  1.0000
  H   H2821     1.0  0.63084  0.36530  0.17532  1.0000
  H   H2822     1.0  0.55550  0.43348  0.19217  1.0000
  H   H2823     1.0  0.56189  0.42404  0.16221  1.0000
  C   C1769     1.0  0.65483  0.63728  0.10734  1.0000
  S   S719      1.0  0.62879  0.33003  0.14726  1.0000
  C   C1770     1.0  0.55690  0.42910  0.16976  1.0000
  N   N175      1.0  0.56529  0.43502  0.17329  1.0000
  N   N176      1.0  0.49127  0.42505  0.11143  1.0000
  H   H2824     1.0  0.62255  0.64140  0.08521  1.0000
  H   H2825     1.0  0.57352  0.41819  0.18444  1.0000
  H   H2826     1.0  0.47922  0.41522  0.10763  1.0000
  C   C1771     1.0  0.62160  0.46733  0.13865  1.0000
  H   H2827     1.0  0.55026  0.44770  0.18202  1.0000
  H   H2828     1.0  0.48660  0.44486  0.10936  1.0000
  H   H2829     1.0  0.57621  0.57930  0.18657  1.0000
  C   C1772     1.0  0.36390  0.32813  0.09933  1.0000
  H   H2830     1.0  0.37935  0.34860  0.12725  1.0000
  H   H2831     1.0  0.49396  0.40607  0.10998  1.0000
  C   C1773     1.0  0.64376  0.37590  0.15362  1.0000
  C   C1774     1.0  0.62653  0.46510  0.15851  1.0000
  Fe  Fe354     1.0  0.61628  0.33233  0.13416  1.0000
  C   C1775     1.0  0.56939  0.44475  0.16284  1.0000
  H   H2832     1.0  0.38676  0.36318  0.10177  1.0000
  C   C1776     1.0  0.65540  0.64466  0.12518  1.0000
  H   H2833     1.0  0.61499  0.37082  0.15592  1.0000
  H   H2834     1.0  0.65320  0.37010  0.15394  1.0000
  H   H2835     1.0  0.56624  0.59146  0.17800  1.0000
  H   H2836     1.0  0.56139  0.45194  0.16002  1.0000
  C   C1777     1.0  0.57624  0.42563  0.17649  1.0000
  H   H2837     1.0  0.47572  0.42266  0.12657  1.0000
  H   H2838     1.0  0.47510  0.43812  0.10663  1.0000
  H   H2839     1.0  0.50668  0.43149  0.11370  1.0000
  C   C1778     1.0  0.48578  0.42286  0.12480  1.0000
  H   H2840     1.0  0.48920  0.43939  0.09531  1.0000
  H   H2841     1.0  0.49032  0.41376  0.12969  1.0000
  H   H2842     1.0  0.46725  0.35967  0.04817  1.0000
  C   C1779     1.0  0.34089  0.36714  0.04107  1.0000
  H   H2843     1.0  0.63113  0.35516  0.14660  1.0000
  C   C1780     1.0  0.63820  0.36065  0.14585  1.0000
  H   H2844     1.0  0.63940  0.36654  0.13641  1.0000
  H   H2845     1.0  0.63464  0.61427  0.00115  1.0000
  C   C1781     1.0  0.48926  0.41548  0.10592  1.0000
  C   C1782     1.0  0.34218  0.37538  0.99801  1.0000
  H   H2846     1.0  0.62082  0.51912  0.06480  1.0000
  H   H2847     1.0  0.40269  0.34446  0.04668  1.0000
  H   H2848     1.0  0.40368  0.32900  0.04475  1.0000
  H   H2849     1.0  0.63057  0.60526  0.22657  1.0000
  H   H2850     1.0  0.66458  0.60074  0.08876  1.0000
  H   H2851     1.0  0.37253  0.33084  0.09876  1.0000
  C   C1783     1.0  0.35212  0.33705  0.06215  1.0000
  H   H2852     1.0  0.64576  0.64345  0.12967  1.0000
  C   C1784     1.0  0.66686  0.61118  0.14947  1.0000
  H   H2853     1.0  0.61640  0.63060  0.21697  1.0000
  C   C1785     1.0  0.59924  0.65312  0.21080  1.0000
  H   H2854     1.0  0.34221  0.33818  0.06170  1.0000
  C   C1786     1.0  0.62025  0.60728  0.22925  1.0000
  C   C1787     1.0  0.61656  0.32809  0.18401  1.0000
  H   H2855     1.0  0.61659  0.60853  0.22074  1.0000
  H   H2856     1.0  0.66570  0.60143  0.13605  1.0000
  H   H2857     1.0  0.66330  0.57847  0.09030  1.0000
  H   H2858     1.0  0.42698  0.32924  0.09666  1.0000
  H   H2859     1.0  0.36056  0.35732  0.98884  1.0000
  Fe  Fe355     1.0  0.33510  0.39407  0.07937  1.0000
  C   C1788     1.0  0.40814  0.32791  0.10561  1.0000
  H   H2860     1.0  0.36320  0.33348  0.03877  1.0000
  H   H2861     1.0  0.63858  0.65829  0.11196  1.0000
  N   N177      1.0  0.57018  0.33546  0.17804  1.0000
  C   C1789     1.0  0.56218  0.32999  0.13821  1.0000
  H   H2862     1.0  0.33792  0.38529  0.99814  1.0000
  H   H2863     1.0  0.61414  0.65790  0.19572  1.0000
  H   H2864     1.0  0.58992  0.32869  0.17583  1.0000
  H   H2865     1.0  0.56921  0.33251  0.19761  1.0000
  H   H2866     1.0  0.33537  0.36972  0.00392  1.0000
  N   N178      1.0  0.61566  0.61841  0.23479  1.0000
  H   H2867     1.0  0.61735  0.59897  0.23581  1.0000
  H   H2868     1.0  0.55955  0.32667  0.17100  1.0000
  C   C1790     1.0  0.35901  0.32593  0.04541  1.0000
  H   H2869     1.0  0.48437  0.64158  0.32452  1.0000
  C   C1791     1.0  0.54685  0.65209  0.28055  1.0000
  H   H2870     1.0  0.58386  0.40188  0.41542  1.0000
  C   C1792     1.0  0.62837  0.64520  0.35197  1.0000
  H   H2871     1.0  0.47764  0.62268  0.32463  1.0000
  H   H2872     1.0  0.60836  0.40630  0.42913  1.0000
  Fe  Fe356     1.0  0.35744  0.63853  0.45422  1.0000
  S   S720      1.0  0.36989  0.62003  0.45227  1.0000
  H   H2873     1.0  0.59206  0.56687  0.32955  1.0000
  C   C1793     1.0  0.37346  0.61942  0.48576  1.0000
  S   S721      1.0  0.60484  0.64948  0.25168  1.0000
  H   H2874     1.0  0.65436  0.50400  0.30313  1.0000
  H   H2875     1.0  0.49175  0.61841  0.31385  1.0000
  Fe  Fe357     1.0  0.41988  0.64406  0.36406  1.0000
  S   S722      1.0  0.41968  0.63789  0.38439  1.0000
  H   H2876     1.0  0.41836  0.64194  0.43441  1.0000
  Fe  Fe358     1.0  0.40202  0.63183  0.38562  1.0000
  S   S723      1.0  0.39769  0.61407  0.39800  1.0000
  C   C1794     1.0  0.59630  0.55683  0.33182  1.0000
  S   S724      1.0  0.40323  0.63612  0.36508  1.0000
  N   N179      1.0  0.63990  0.44971  0.38496  1.0000
  H   H2877     1.0  0.40768  0.63179  0.44204  1.0000
  H   H2878     1.0  0.64275  0.35773  0.29202  1.0000
  C   C1795     1.0  0.50738  0.61618  0.32876  1.0000
  H   H2879     1.0  0.58792  0.42954  0.42437  1.0000
  H   H2880     1.0  0.37860  0.64146  0.35551  1.0000
  C   C1796     1.0  0.65312  0.50876  0.29360  1.0000
  S   S725      1.0  0.54386  0.63196  0.36440  1.0000
  C   C1797     1.0  0.36755  0.62038  0.38634  1.0000
  C   C1798     1.0  0.45062  0.64526  0.35312  1.0000
  H   H2881     1.0  0.59358  0.55203  0.32587  1.0000
  C   C1799     1.0  0.64186  0.33429  0.46191  1.0000
  C   C1800     1.0  0.62073  0.61641  0.24599  1.0000
  H   H2882     1.0  0.64683  0.35699  0.45568  1.0000
  S   S726      1.0  0.59123  0.62046  0.27008  1.0000
  H   H2883     1.0  0.58537  0.60968  0.31449  1.0000
  Fe  Fe359     1.0  0.59824  0.59139  0.33703  1.0000
  S   S727      1.0  0.60552  0.58555  0.35449  1.0000
  S   S728      1.0  0.57884  0.59079  0.33645  1.0000
  Fe  Fe360     1.0  0.62241  0.59785  0.32172  1.0000
  S   S729      1.0  0.63180  0.59256  0.33786  1.0000
  S   S730      1.0  0.63142  0.60676  0.30302  1.0000
  Fe  Fe361     1.0  0.62268  0.57603  0.34304  1.0000
  S   S731      1.0  0.63118  0.55628  0.35086  1.0000
  Fe  Fe362     1.0  0.61371  0.60264  0.34746  1.0000
  S   S732      1.0  0.61173  0.61600  0.35969  1.0000
  S   S733      1.0  0.61466  0.58068  0.32603  1.0000
  S   S734      1.0  0.60505  0.60919  0.33088  1.0000
  Fe  Fe363     1.0  0.64939  0.47145  0.34303  1.0000
  S   S735      1.0  0.63727  0.45983  0.34070  1.0000
  H   H2884     1.0  0.63837  0.45635  0.36605  1.0000
  Fe  Fe364     1.0  0.63451  0.49560  0.33052  1.0000
  S   S736      1.0  0.62108  0.48579  0.32746  1.0000
  S   S737      1.0  0.63288  0.51573  0.32099  1.0000
  Fe  Fe365     1.0  0.62172  0.47500  0.34676  1.0000
  S   S738      1.0  0.60434  0.47256  0.36100  1.0000
  Fe  Fe366     1.0  0.63794  0.47169  0.32178  1.0000
  S   S739      1.0  0.64347  0.46443  0.30423  1.0000
  S   S740      1.0  0.63379  0.48599  0.35036  1.0000
  S   S741      1.0  0.65140  0.48214  0.32360  1.0000
  Fe  Fe367     1.0  0.62304  0.41286  0.29389  1.0000
  S   S742      1.0  0.61700  0.39552  0.29396  1.0000
  S   S743      1.0  0.61029  0.43079  0.29709  1.0000
  Fe  Fe368     1.0  0.65029  0.40181  0.28839  1.0000
  S   S744      1.0  0.64701  0.38353  0.28747  1.0000
  Fe  Fe369     1.0  0.63205  0.39431  0.27698  1.0000
  S   S745      1.0  0.63108  0.38901  0.25932  1.0000
  Fe  Fe370     1.0  0.63222  0.38596  0.30443  1.0000
  S   S746      1.0  0.63053  0.36876  0.31904  1.0000
  S   S747      1.0  0.63694  0.41247  0.27614  1.0000
  S   S748      1.0  0.63666  0.40342  0.30615  1.0000
  Fe  Fe371     1.0  0.64032  0.40186  0.38859  1.0000
  S   S749      1.0  0.64306  0.38147  0.39659  1.0000
  Fe  Fe372     1.0  0.61320  0.40475  0.38944  1.0000
  S   S750      1.0  0.61343  0.38454  0.39708  1.0000
  S   S751      1.0  0.59554  0.41885  0.38845  1.0000
  Fe  Fe373     1.0  0.62494  0.38637  0.40959  1.0000
  S   S752      1.0  0.61876  0.37894  0.42997  1.0000
  Fe  Fe374     1.0  0.63137  0.38148  0.38336  1.0000
  S   S753      1.0  0.63735  0.36570  0.37325  1.0000
  S   S754      1.0  0.62347  0.40681  0.40280  1.0000
  S   S755      1.0  0.63001  0.40155  0.37444  1.0000
  S   S756      1.0  0.65020  0.38332  0.46661  1.0000
  C   C1801     1.0  0.62727  0.38077  0.44005  1.0000
  C   C1802     1.0  0.63845  0.38493  0.43553  1.0000
  C   C1803     1.0  0.64527  0.38592  0.44379  1.0000
  C   C1804     1.0  0.64092  0.38285  0.45659  1.0000
  C   C1805     1.0  0.62958  0.37898  0.46111  1.0000
  C   C1806     1.0  0.62282  0.37787  0.45285  1.0000
  H   H2885     1.0  0.64195  0.38720  0.42567  1.0000
  H   H2886     1.0  0.33664  0.62159  0.39012  1.0000
  H   H2887     1.0  0.62608  0.37678  0.47095  1.0000
  H   H2888     1.0  0.61412  0.37474  0.45639  1.0000
  C   C1807     1.0  0.63245  0.36865  0.33394  1.0000
  C   C1808     1.0  0.63136  0.37955  0.33808  1.0000
  C   C1809     1.0  0.63260  0.37891  0.35024  1.0000
  C   C1810     1.0  0.63509  0.36735  0.35815  1.0000
  C   C1811     1.0  0.63638  0.35654  0.35386  1.0000
  C   C1812     1.0  0.63493  0.35719  0.34190  1.0000
  H   H2889     1.0  0.62930  0.38846  0.33205  1.0000
  C   C1813     1.0  0.47080  0.65134  0.34709  1.0000
  H   H2890     1.0  0.59856  0.42170  0.41288  1.0000
  C   C1814     1.0  0.54082  0.64400  0.29030  1.0000
  C   C1815     1.0  0.60223  0.45745  0.36828  1.0000
  C   C1816     1.0  0.61184  0.44710  0.36701  1.0000
  C   C1817     1.0  0.60989  0.43520  0.37325  1.0000
  C   C1818     1.0  0.59826  0.43361  0.38056  1.0000
  C   C1819     1.0  0.58866  0.44396  0.38177  1.0000
  C   C1820     1.0  0.59067  0.45585  0.37573  1.0000
  H   H2891     1.0  0.62076  0.44823  0.36127  1.0000
  H   H2892     1.0  0.61733  0.42725  0.37223  1.0000
  H   H2893     1.0  0.57964  0.44280  0.38737  1.0000
  H   H2894     1.0  0.58320  0.46382  0.37673  1.0000
  C   C1821     1.0  0.63399  0.45521  0.30254  1.0000
  C   C1822     1.0  0.63867  0.44755  0.29388  1.0000
  C   C1823     1.0  0.63144  0.43995  0.29239  1.0000
  C   C1824     1.0  0.61930  0.44029  0.29920  1.0000
  C   C1825     1.0  0.61450  0.44811  0.30774  1.0000
  C   C1826     1.0  0.62193  0.45542  0.30956  1.0000
  H   H2895     1.0  0.64796  0.44739  0.28836  1.0000
  H   H2896     1.0  0.63523  0.43399  0.28578  1.0000
  H   H2897     1.0  0.60515  0.44833  0.31311  1.0000
  H   H2898     1.0  0.61825  0.46131  0.31628  1.0000
  H   H2899     1.0  0.45990  0.65083  0.33427  1.0000
  C   C1827     1.0  0.63246  0.54492  0.34234  1.0000
  C   C1828     1.0  0.63180  0.54824  0.32985  1.0000
  C   C1829     1.0  0.63204  0.53918  0.32340  1.0000
  C   C1830     1.0  0.63308  0.52670  0.32936  1.0000
  C   C1831     1.0  0.63402  0.52329  0.34178  1.0000
  C   C1832     1.0  0.63374  0.53240  0.34825  1.0000
  H   H2900     1.0  0.63131  0.55777  0.32508  1.0000
  H   H2901     1.0  0.63149  0.54185  0.31375  1.0000
  H   H2902     1.0  0.63492  0.51368  0.34643  1.0000
  H   H2903     1.0  0.63438  0.52975  0.35789  1.0000
  H   H2904     1.0  0.61276  0.40879  0.26924  1.0000
  C   C1833     1.0  0.63856  0.63074  0.31923  1.0000
  C   C1834     1.0  0.62549  0.63341  0.35644  1.0000
  C   C1835     1.0  0.61607  0.63034  0.35268  1.0000
  C   C1836     1.0  0.60939  0.63922  0.34449  1.0000
  H   H2905     1.0  0.64649  0.65207  0.31048  1.0000
  S   S757      1.0  0.65414  0.41408  0.38224  1.0000
  H   H2906     1.0  0.63057  0.62665  0.36288  1.0000
  H   H2907     1.0  0.60204  0.63690  0.34164  1.0000
  H   H2908     1.0  0.58363  0.65302  0.34990  1.0000
  C   C1837     1.0  0.62090  0.61001  0.29330  1.0000
  C   C1838     1.0  0.61348  0.60161  0.29409  1.0000
  C   C1839     1.0  0.60464  0.60463  0.28663  1.0000
  C   C1840     1.0  0.60294  0.61622  0.27869  1.0000
  C   C1841     1.0  0.61027  0.62462  0.27809  1.0000
  C   C1842     1.0  0.61939  0.62145  0.28517  1.0000
  H   H2909     1.0  0.61469  0.59271  0.30031  1.0000
  H   H2910     1.0  0.59896  0.59810  0.28720  1.0000
  H   H2911     1.0  0.60877  0.63372  0.27246  1.0000
  H   H2912     1.0  0.62498  0.62804  0.28461  1.0000
  H   H2913     1.0  0.59160  0.56819  0.35108  1.0000
  H   H2914     1.0  0.62623  0.46401  0.37666  1.0000
  H   H2915     1.0  0.63160  0.38731  0.35348  1.0000
  H   H2916     1.0  0.49282  0.62647  0.34809  1.0000
  C   C1843     1.0  0.55316  0.61990  0.35726  1.0000
  C   C1844     1.0  0.56538  0.61540  0.35894  1.0000
  C   C1845     1.0  0.57321  0.60638  0.35261  1.0000
  C   C1846     1.0  0.56875  0.60150  0.34492  1.0000
  C   C1847     1.0  0.55641  0.60570  0.34352  1.0000
  C   C1848     1.0  0.54866  0.61505  0.34955  1.0000
  H   H2917     1.0  0.56887  0.61898  0.36500  1.0000
  H   H2918     1.0  0.58271  0.60321  0.35376  1.0000
  H   H2919     1.0  0.55292  0.60198  0.33756  1.0000
  H   H2920     1.0  0.53922  0.61846  0.34827  1.0000
  C   C1849     1.0  0.35041  0.63655  0.39251  1.0000
  H   H2921     1.0  0.65378  0.63621  0.29718  1.0000
  N   N180      1.0  0.60464  0.42642  0.25949  1.0000
  H   H2922     1.0  0.63580  0.64741  0.35482  1.0000
  H   H2923     1.0  0.48755  0.60777  0.32806  1.0000
  H   H2924     1.0  0.63421  0.35254  0.48309  1.0000
  H   H2925     1.0  0.64231  0.36470  0.27608  1.0000
  H   H2926     1.0  0.51218  0.61696  0.31888  1.0000
  C   C1850     1.0  0.65153  0.33216  0.47908  1.0000
  C   C1851     1.0  0.36065  0.64004  0.35343  1.0000
  H   H2927     1.0  0.61744  0.62463  0.25038  1.0000
  H   H2928     1.0  0.37091  0.61032  0.38633  1.0000
  H   H2929     1.0  0.66051  0.32722  0.47432  1.0000
  H   H2930     1.0  0.61282  0.41401  0.24687  1.0000
  H   H2931     1.0  0.36391  0.63094  0.35117  1.0000
  H   H2932     1.0  0.57552  0.54797  0.34279  1.0000
  H   H2933     1.0  0.62243  0.44383  0.38935  1.0000
  H   H2934     1.0  0.65061  0.32953  0.45660  1.0000
  C   C1852     1.0  0.37710  0.61833  0.43707  1.0000
  C   C1853     1.0  0.38631  0.60783  0.43513  1.0000
  C   C1854     1.0  0.39250  0.60650  0.42310  1.0000
  C   C1855     1.0  0.38965  0.61576  0.41297  1.0000
  C   C1856     1.0  0.38029  0.62615  0.41489  1.0000
  C   C1857     1.0  0.37399  0.62739  0.42691  1.0000
  H   H2935     1.0  0.38870  0.60072  0.44292  1.0000
  H   H2936     1.0  0.39962  0.59837  0.42165  1.0000
  H   H2937     1.0  0.37764  0.63307  0.40713  1.0000
  H   H2938     1.0  0.36662  0.63525  0.42824  1.0000
  H   H2939     1.0  0.62664  0.36154  0.26646  1.0000
  N   N181      1.0  0.63547  0.64020  0.30833  1.0000
  C   C1858     1.0  0.59688  0.38654  0.25569  1.0000
  C   C1859     1.0  0.60647  0.38793  0.26072  1.0000
  C   C1860     1.0  0.61853  0.38738  0.25362  1.0000
  H   H2940     1.0  0.65266  0.43011  0.33637  1.0000
  Fe  Fe375     1.0  0.39200  0.65465  0.36835  1.0000
  H   H2941     1.0  0.58758  0.38692  0.26123  1.0000
  H   H2942     1.0  0.60451  0.38930  0.27009  1.0000
  C   C1861     1.0  0.59924  0.38457  0.24355  1.0000
  H   H2943     1.0  0.58486  0.43286  0.26361  1.0000
  H   H2944     1.0  0.60655  0.55595  0.32914  1.0000
  H   H2945     1.0  0.34056  0.63887  0.39739  1.0000
  N   N182      1.0  0.59240  0.55155  0.34507  1.0000
  C   C1862     1.0  0.59836  0.53829  0.34766  1.0000
  C   C1863     1.0  0.62087  0.38541  0.24152  1.0000
  S   S758      1.0  0.38968  0.64988  0.38889  1.0000
  C   C1864     1.0  0.57686  0.41040  0.43666  1.0000
  H   H2946     1.0  0.56921  0.41253  0.43153  1.0000
  H   H2947     1.0  0.59382  0.55426  0.36260  1.0000
  H   H2948     1.0  0.57508  0.41770  0.44215  1.0000
  C   C1865     1.0  0.60447  0.42142  0.24880  1.0000
  C   C1866     1.0  0.59103  0.40000  0.42110  1.0000
  H   H2949     1.0  0.61626  0.34219  0.29725  1.0000
  C   C1867     1.0  0.59899  0.40694  0.43528  1.0000
  C   C1868     1.0  0.62592  0.34371  0.29538  1.0000
  H   H2950     1.0  0.59788  0.41413  0.44071  1.0000
  H   H2951     1.0  0.65635  0.43654  0.38912  1.0000
  S   S759      1.0  0.58693  0.38283  0.23756  1.0000
  H   H2952     1.0  0.56282  0.64512  0.30342  1.0000
  H   H2953     1.0  0.64744  0.34828  0.28055  1.0000
  C   C1869     1.0  0.59360  0.43636  0.26166  1.0000
  C   C1870     1.0  0.58945  0.42185  0.41945  1.0000
  Fe  Fe376     1.0  0.50230  0.65349  0.35207  1.0000
  H   H2954     1.0  0.34939  0.60965  0.38540  1.0000
  C   C1871     1.0  0.64062  0.35643  0.28347  1.0000
  C   C1872     1.0  0.61906  0.36579  0.28957  1.0000
  H   H2955     1.0  0.60437  0.42875  0.24026  1.0000
  C   C1873     1.0  0.45135  0.64326  0.36550  1.0000
  H   H2956     1.0  0.62070  0.36722  0.29827  1.0000
  C   C1874     1.0  0.35265  0.61605  0.40533  1.0000
  H   H2957     1.0  0.61550  0.35227  0.27519  1.0000
  C   C1875     1.0  0.65329  0.44432  0.38170  1.0000
  H   H2958     1.0  0.58804  0.63307  0.36481  1.0000
  C   C1876     1.0  0.62523  0.35331  0.27401  1.0000
  N   N183      1.0  0.64443  0.34100  0.47018  1.0000
  S   S760      1.0  0.57615  0.65153  0.24893  1.0000
  H   H2959     1.0  0.55356  0.64852  0.27304  1.0000
  H   H2960     1.0  0.59569  0.53397  0.35759  1.0000
  C   C1877     1.0  0.62147  0.65425  0.34416  1.0000
  H   H2961     1.0  0.59810  0.62943  0.24176  1.0000
  H   H2962     1.0  0.57549  0.54913  0.35820  1.0000
  H   H2963     1.0  0.63106  0.61457  0.24387  1.0000
  C   C1878     1.0  0.57875  0.55292  0.34823  1.0000
  C   C1879     1.0  0.60452  0.41640  0.27058  1.0000
  H   H2964     1.0  0.64000  0.44723  0.40419  1.0000
  H   H2965     1.0  0.56680  0.64164  0.36104  1.0000
  H   H2966     1.0  0.63741  0.62144  0.31876  1.0000
  H   H2967     1.0  0.58227  0.42417  0.41370  1.0000
  H   H2968     1.0  0.62101  0.63175  0.30721  1.0000
  S   S761      1.0  0.48327  0.65328  0.36416  1.0000
  H   H2969     1.0  0.63154  0.34505  0.27075  1.0000
  C   C1880     1.0  0.36473  0.65776  0.35880  1.0000
  H   H2970     1.0  0.63441  0.43605  0.37868  1.0000
  H   H2971     1.0  0.62452  0.42422  0.25502  1.0000
  N   N184      1.0  0.64859  0.50105  0.28774  1.0000
  H   H2972     1.0  0.63280  0.49253  0.29114  1.0000
  H   H2973     1.0  0.37359  0.62305  0.39109  1.0000
  C   C1881     1.0  0.58117  0.65798  0.35766  1.0000
  H   H2974     1.0  0.46203  0.64390  0.37833  1.0000
  N   N185      1.0  0.66372  0.42554  0.31921  1.0000
  H   H2975     1.0  0.41178  0.64424  0.41474  1.0000
  Fe  Fe377     1.0  0.52937  0.64304  0.35365  1.0000
  H   H2976     1.0  0.63633  0.32715  0.46723  1.0000
  Fe  Fe378     1.0  0.34231  0.65263  0.47406  1.0000
  H   H2977     1.0  0.61772  0.60846  0.25311  1.0000
  H   H2978     1.0  0.37077  0.60033  0.47764  1.0000
  C   C1882     1.0  0.46046  0.64915  0.34388  1.0000
  H   H2979     1.0  0.59441  0.62807  0.30844  1.0000
  C   C1883     1.0  0.38695  0.64852  0.43821  1.0000
  H   H2980     1.0  0.66386  0.43962  0.32861  1.0000
  H   H2981     1.0  0.65911  0.45135  0.37994  1.0000
  N   N186      1.0  0.57505  0.62833  0.31022  1.0000
  C   C1884     1.0  0.56488  0.63499  0.30366  1.0000
  C   C1885     1.0  0.58642  0.63319  0.30399  1.0000
  C   C1886     1.0  0.57742  0.61499  0.31006  1.0000
  C   C1887     1.0  0.57145  0.63010  0.32312  1.0000
  H   H2982     1.0  0.55613  0.63155  0.30819  1.0000
  H   H2983     1.0  0.56723  0.63374  0.29391  1.0000
  N   N187      1.0  0.39975  0.64907  0.43140  1.0000
  H   H2984     1.0  0.38469  0.65265  0.44655  1.0000
  H   H2985     1.0  0.58914  0.63222  0.29419  1.0000
  H   H2986     1.0  0.40095  0.63422  0.42237  1.0000
  H   H2987     1.0  0.59352  0.44020  0.26976  1.0000
  C   C1888     1.0  0.40217  0.64400  0.42013  1.0000
  S   S762      1.0  0.53635  0.65262  0.33443  1.0000
  H   H2988     1.0  0.61629  0.43929  0.24893  1.0000
  C   C1889     1.0  0.56512  0.64656  0.36874  1.0000
  H   H2989     1.0  0.57012  0.63998  0.32361  1.0000
  H   H2990     1.0  0.64736  0.42600  0.31276  1.0000
  C   C1890     1.0  0.63259  0.44006  0.38706  1.0000
  H   H2991     1.0  0.65524  0.38239  0.36181  1.0000
  C   C1891     1.0  0.58609  0.63873  0.37198  1.0000
  H   H2992     1.0  0.56921  0.61085  0.31513  1.0000
  H   H2993     1.0  0.65362  0.33696  0.48543  1.0000
  C   C1892     1.0  0.34399  0.65761  0.35687  1.0000
  N   N188      1.0  0.58908  0.40981  0.42813  1.0000
  H   H2994     1.0  0.60866  0.53703  0.34542  1.0000
  H   H2995     1.0  0.59906  0.39784  0.44184  1.0000
  H   H2996     1.0  0.62022  0.37430  0.28241  1.0000
  H   H2997     1.0  0.57025  0.65124  0.38865  1.0000
  H   H2998     1.0  0.66687  0.49080  0.28140  1.0000
  N   N189      1.0  0.62771  0.35479  0.28560  1.0000
  H   H2999     1.0  0.55758  0.65480  0.36710  1.0000
  C   C1893     1.0  0.63634  0.45982  0.37474  1.0000
  H   H3000     1.0  0.57405  0.56287  0.34631  1.0000
  N   N190      1.0  0.35432  0.62316  0.39246  1.0000
  H   H3001     1.0  0.39572  0.64947  0.41392  1.0000
  H   H3002     1.0  0.62679  0.35368  0.47062  1.0000
  C   C1894     1.0  0.34667  0.61968  0.38569  1.0000
  H   H3003     1.0  0.35384  0.61861  0.47696  1.0000
  H   H3004     1.0  0.49887  0.63733  0.31425  1.0000
  H   H3005     1.0  0.63836  0.34759  0.35988  1.0000
  H   H3006     1.0  0.35825  0.61848  0.41074  1.0000
  H   H3007     1.0  0.59098  0.39071  0.42728  1.0000
  S   S763      1.0  0.43737  0.64331  0.34909  1.0000
  H   H3008     1.0  0.63577  0.34874  0.33880  1.0000
  C   C1895     1.0  0.46164  0.64536  0.36869  1.0000
  H   H3009     1.0  0.57971  0.61340  0.30044  1.0000
  N   N191      1.0  0.57653  0.65005  0.36949  1.0000
  C   C1896     1.0  0.60195  0.62074  0.23815  1.0000
  H   H3010     1.0  0.38549  0.63882  0.44123  1.0000
  C   C1897     1.0  0.59620  0.55823  0.35256  1.0000
  H   H3011     1.0  0.57630  0.40142  0.44329  1.0000
  N   N192      1.0  0.49434  0.62301  0.33002  1.0000
  C   C1898     1.0  0.48841  0.62193  0.34326  1.0000
  C   C1899     1.0  0.49405  0.63620  0.32414  1.0000
  S   S764      1.0  0.51527  0.63572  0.34855  1.0000
  H   H3012     1.0  0.65913  0.41230  0.31149  1.0000
  H   H3013     1.0  0.65439  0.48307  0.28290  1.0000
  H   H3014     1.0  0.59611  0.41232  0.27275  1.0000
  H   H3015     1.0  0.61586  0.64397  0.31576  1.0000
  C   C1900     1.0  0.65765  0.48925  0.28702  1.0000
  H   H3016     1.0  0.49883  0.64059  0.32874  1.0000
  C   C1901     1.0  0.65174  0.35040  0.46276  1.0000
  C   C1902     1.0  0.48753  0.61772  0.32386  1.0000
  H   H3017     1.0  0.64360  0.50215  0.27053  1.0000
  H   H3018     1.0  0.64021  0.51667  0.27542  1.0000
  H   H3019     1.0  0.64281  0.46196  0.39499  1.0000
  H   H3020     1.0  0.59504  0.64097  0.37209  1.0000
  H   H3021     1.0  0.65000  0.44173  0.32288  1.0000
  H   H3022     1.0  0.35623  0.63954  0.39726  1.0000
  C   C1903     1.0  0.36894  0.64595  0.35596  1.0000
  Fe  Fe379     1.0  0.58863  0.64085  0.26205  1.0000
  C   C1904     1.0  0.64391  0.63672  0.29701  1.0000
  H   H3023     1.0  0.47838  0.62638  0.34454  1.0000
  H   H3024     1.0  0.35555  0.60590  0.40566  1.0000
  H   H3025     1.0  0.64319  0.62749  0.29597  1.0000
  H   H3026     1.0  0.57857  0.62457  0.32857  1.0000
  H   H3027     1.0  0.59583  0.53293  0.34209  1.0000
  H   H3028     1.0  0.65597  0.50988  0.26929  1.0000
  H   H3029     1.0  0.60014  0.39933  0.41463  1.0000
  H   H3030     1.0  0.60639  0.55776  0.35013  1.0000
  H   H3031     1.0  0.48904  0.61208  0.34813  1.0000
  H   H3032     1.0  0.63649  0.34074  0.45510  1.0000
  S   S765      1.0  0.52580  0.63832  0.31298  1.0000
  H   H3033     1.0  0.36913  0.62547  0.37657  1.0000
  H   H3034     1.0  0.64975  0.41438  0.32633  1.0000
  H   H3035     1.0  0.62766  0.34469  0.30424  1.0000
  H   H3036     1.0  0.56253  0.62714  0.32785  1.0000
  H   H3037     1.0  0.51280  0.61994  0.33327  1.0000
  H   H3038     1.0  0.61668  0.43484  0.26513  1.0000
  H   H3039     1.0  0.54292  0.63419  0.29032  1.0000
  C   C1905     1.0  0.47134  0.64947  0.35953  1.0000
  C   C1906     1.0  0.34812  0.64584  0.35401  1.0000
  C   C1907     1.0  0.65459  0.41927  0.31740  1.0000
  H   H3040     1.0  0.34757  0.62497  0.37598  1.0000
  H   H3041     1.0  0.64164  0.46730  0.37291  1.0000
  C   C1908     1.0  0.63650  0.49843  0.29518  1.0000
  H   H3042     1.0  0.65343  0.35601  0.46864  1.0000
  H   H3043     1.0  0.65552  0.44053  0.37312  1.0000
  C   C1909     1.0  0.64703  0.50774  0.27517  1.0000
  S   S766      1.0  0.35377  0.65472  0.43892  1.0000
  C   C1910     1.0  0.63693  0.65238  0.30945  1.0000
  H   H3044     1.0  0.60676  0.65815  0.33414  1.0000
  H   H3045     1.0  0.34274  0.61788  0.41019  1.0000
  H   H3046     1.0  0.58511  0.64320  0.30401  1.0000
  H   H3047     1.0  0.59619  0.41722  0.25047  1.0000
  H   H3048     1.0  0.35121  0.64219  0.38293  1.0000
  C   C1911     1.0  0.61197  0.65125  0.34037  1.0000
  H   H3049     1.0  0.50802  0.60617  0.33301  1.0000
  H   H3050     1.0  0.64832  0.62982  0.32003  1.0000
  H   H3051     1.0  0.44399  0.64005  0.37267  1.0000
  H   H3052     1.0  0.63248  0.63314  0.32794  1.0000
  C   C1912     1.0  0.53241  0.64855  0.30021  1.0000
  Fe  Fe380     1.0  0.52109  0.64686  0.32965  1.0000
  H   H3053     1.0  0.64641  0.51766  0.29447  1.0000
  H   H3054     1.0  0.59338  0.44415  0.25352  1.0000
  C   C1913     1.0  0.63740  0.45466  0.39630  1.0000
  H   H3055     1.0  0.62738  0.45885  0.39897  1.0000
  C   C1914     1.0  0.63257  0.34717  0.47700  1.0000
  S   S767      1.0  0.36256  0.64940  0.46531  1.0000
  H   H3056     1.0  0.66287  0.43946  0.30260  1.0000
  S   S768      1.0  0.66503  0.46114  0.35267  1.0000
  H   H3057     1.0  0.64169  0.64354  0.28858  1.0000
  H   H3058     1.0  0.37546  0.62082  0.47550  1.0000
  C   C1915     1.0  0.65728  0.43464  0.32713  1.0000
  H   H3059     1.0  0.62945  0.50710  0.29615  1.0000
  H   H3060     1.0  0.63740  0.49334  0.30464  1.0000
  H   H3061     1.0  0.65403  0.38894  0.44025  1.0000
  H   H3062     1.0  0.62003  0.64755  0.29914  1.0000
  H   H3063     1.0  0.62701  0.34033  0.48308  1.0000
  S   S769      1.0  0.33748  0.64048  0.46394  1.0000
  H   H3064     1.0  0.60921  0.36493  0.29126  1.0000
  H   H3065     1.0  0.58310  0.63268  0.38103  1.0000
  H   H3066     1.0  0.60467  0.41981  0.27885  1.0000
  H   H3067     1.0  0.47810  0.65488  0.34001  1.0000
  C   C1916     1.0  0.62250  0.64093  0.30758  1.0000
  S   S770      1.0  0.33741  0.63816  0.35193  1.0000
  H   H3068     1.0  0.65908  0.48397  0.29635  1.0000
  H   H3069     1.0  0.66365  0.37822  0.37405  1.0000
  C   C1917     1.0  0.57378  0.65692  0.37956  1.0000
  C   C1918     1.0  0.61602  0.43144  0.25702  1.0000
  H   H3070     1.0  0.63504  0.43225  0.39471  1.0000
  C   C1919     1.0  0.40859  0.64168  0.43931  1.0000
  Fe  Fe381     1.0  0.40735  0.65637  0.38575  1.0000
  H   H3071     1.0  0.38013  0.65385  0.43237  1.0000
  H   H3072     1.0  0.56146  0.64032  0.37738  1.0000
  H   H3073     1.0  0.66221  0.51096  0.28826  1.0000
  S   S771      1.0  0.58168  0.65388  0.27505  1.0000
  H   H3074     1.0  0.66095  0.34609  0.45782  1.0000
  H   H3075     1.0  0.63236  0.33521  0.29278  1.0000
  H   H3076     1.0  0.66138  0.36052  0.35812  1.0000
  C   C1920     1.0  0.66459  0.38123  0.36386  1.0000
  H   H3077     1.0  0.66575  0.37803  0.34123  1.0000
  H   H3078     1.0  0.63045  0.65551  0.31768  1.0000
  H   H3079     1.0  0.59858  0.61310  0.24546  1.0000
  H   H3080     1.0  0.66553  0.39019  0.39486  1.0000
  H   H3081     1.0  0.40697  0.64524  0.44791  1.0000
  C   C1921     1.0  0.61130  0.38404  0.23650  1.0000
  Fe  Fe382     1.0  0.33428  0.65779  0.44952  1.0000
  C   C1922     1.0  0.37973  0.33921  0.68375  1.0000
  S   S772      1.0  0.34442  0.55093  0.62808  1.0000
  Fe  Fe383     1.0  0.34934  0.51497  0.63897  1.0000
  S   S773      1.0  0.35693  0.52654  0.64742  1.0000
  S   S774      1.0  0.35030  0.49434  0.64560  1.0000
  H   H3082     1.0  0.41529  0.36784  0.58182  1.0000
  C   C1923     1.0  0.33888  0.57488  0.67424  1.0000
  Fe  Fe384     1.0  0.36217  0.53680  0.62795  1.0000
  S   S775      1.0  0.38103  0.54157  0.62169  1.0000
  H   H3083     1.0  0.55830  0.36441  0.63836  1.0000
  S   S776      1.0  0.35625  0.52408  0.61945  1.0000
  Fe  Fe385     1.0  0.35417  0.59598  0.67725  1.0000
  S   S777      1.0  0.36990  0.60550  0.67443  1.0000
  S   S778      1.0  0.35881  0.57533  0.68332  1.0000
  H   H3084     1.0  0.62380  0.33965  0.61367  1.0000
  S   S779      1.0  0.35091  0.63139  0.66571  1.0000
  Fe  Fe386     1.0  0.36363  0.61597  0.65682  1.0000
  S   S780      1.0  0.37682  0.61577  0.63840  1.0000
  Fe  Fe387     1.0  0.35575  0.61978  0.68376  1.0000
  S   S781      1.0  0.35646  0.62493  0.70167  1.0000
  S   S782      1.0  0.34895  0.60530  0.65905  1.0000
  H   H3085     1.0  0.33520  0.58418  0.67590  1.0000
  Fe  Fe388     1.0  0.35761  0.62370  0.57769  1.0000
  S   S783      1.0  0.35507  0.60408  0.58370  1.0000
  S   S784      1.0  0.35234  0.63640  0.59122  1.0000
  Fe  Fe389     1.0  0.36591  0.62218  0.55046  1.0000
  S   S785      1.0  0.36430  0.60231  0.55414  1.0000
  S   S786      1.0  0.37230  0.63307  0.53136  1.0000
  H   H3086     1.0  0.38014  0.44163  0.64299  1.0000
  Fe  Fe390     1.0  0.37302  0.59992  0.57036  1.0000
  S   S787      1.0  0.38845  0.58363  0.57403  1.0000
  S   S788      1.0  0.44313  0.33771  0.64650  1.0000
  S   S789      1.0  0.37636  0.61932  0.56558  1.0000
  C   C1924     1.0  0.35067  0.47390  0.63706  1.0000
  Fe  Fe391     1.0  0.38798  0.36100  0.72459  1.0000
  S   S790      1.0  0.37744  0.35861  0.71139  1.0000
  Fe  Fe392     1.0  0.40879  0.36921  0.70381  1.0000
  S   S791      1.0  0.39980  0.36800  0.68904  1.0000
  S   S792      1.0  0.42697  0.37523  0.69966  1.0000
  Fe  Fe393     1.0  0.38230  0.37664  0.70051  1.0000
  S   S793      1.0  0.36848  0.39186  0.69201  1.0000
  Fe  Fe394     1.0  0.39603  0.35006  0.70124  1.0000
  H   H3087     1.0  0.38167  0.36410  0.67439  1.0000
  S   S794      1.0  0.39156  0.37968  0.71420  1.0000
  S   S795      1.0  0.40621  0.35065  0.71553  1.0000
  Fe  Fe395     1.0  0.45544  0.35080  0.63505  1.0000
  S   S796      1.0  0.46824  0.35763  0.64267  1.0000
  H   H3088     1.0  0.37507  0.64525  0.50589  1.0000
  Fe  Fe396     1.0  0.45916  0.36873  0.61062  1.0000
  S   S797      1.0  0.47222  0.37742  0.61583  1.0000
  S   S798      1.0  0.45433  0.37405  0.59187  1.0000
  Fe  Fe397     1.0  0.48068  0.35794  0.62386  1.0000
  S   S799      1.0  0.50135  0.35006  0.62094  1.0000
  Fe  Fe398     1.0  0.45882  0.37646  0.63409  1.0000
  S   S800      1.0  0.45291  0.39221  0.64405  1.0000
  S   S801      1.0  0.46867  0.34922  0.61705  1.0000
  S   S802      1.0  0.44496  0.36966  0.62812  1.0000
  H   H3089     1.0  0.39840  0.45670  0.65540  1.0000
  H   H3090     1.0  0.36345  0.55397  0.59084  1.0000
  S   S803      1.0  0.37725  0.35392  0.59792  1.0000
  Fe  Fe399     1.0  0.37296  0.44141  0.61035  1.0000
  S   S804      1.0  0.39337  0.43682  0.61026  1.0000
  S   S805      1.0  0.36419  0.46162  0.60504  1.0000
  Fe  Fe400     1.0  0.37081  0.41423  0.61827  1.0000
  S   S806      1.0  0.39096  0.40757  0.61874  1.0000
  S   S807      1.0  0.35950  0.39934  0.62508  1.0000
  Fe  Fe401     1.0  0.38846  0.42344  0.62789  1.0000
  S   S808      1.0  0.39834  0.42034  0.64348  1.0000
  Fe  Fe402     1.0  0.39393  0.42146  0.60107  1.0000
  S   S809      1.0  0.40867  0.41808  0.58437  1.0000
  S   S810      1.0  0.36790  0.42928  0.62883  1.0000
  S   S811      1.0  0.37385  0.42695  0.59971  1.0000
  H   H3091     1.0  0.34761  0.34600  0.57264  1.0000
  S   S812      1.0  0.64740  0.38570  0.50108  1.0000
  Fe  Fe403     1.0  0.63825  0.35388  0.50670  1.0000
  S   S813      1.0  0.63970  0.36155  0.52235  1.0000
  H   H3092     1.0  0.34154  0.50760  0.61484  1.0000
  Fe  Fe404     1.0  0.62997  0.37951  0.51237  1.0000
  S   S814      1.0  0.61538  0.39219  0.52320  1.0000
  H   H3093     1.0  0.43620  0.34056  0.59700  1.0000
  S   S815      1.0  0.62681  0.37140  0.49775  1.0000
  Fe  Fe405     1.0  0.56140  0.37636  0.60479  1.0000
  S   S816      1.0  0.56721  0.35769  0.59984  1.0000
  S   S817      1.0  0.54100  0.38359  0.61210  1.0000
  Fe  Fe406     1.0  0.58803  0.38094  0.59661  1.0000
  S   S818      1.0  0.59559  0.36257  0.59109  1.0000
  S   S819      1.0  0.60191  0.39326  0.59232  1.0000
  Fe  Fe407     1.0  0.57881  0.36684  0.58282  1.0000
  S   S820      1.0  0.57977  0.36203  0.56476  1.0000
  Fe  Fe408     1.0  0.58325  0.35539  0.60870  1.0000
  C   C1925     1.0  0.39471  0.37679  0.65476  1.0000
  S   S821      1.0  0.57194  0.38586  0.58694  1.0000
  S   S822      1.0  0.57680  0.37346  0.61502  1.0000
  S   S823      1.0  0.65181  0.37044  0.61225  1.0000
  H   H3094     1.0  0.35485  0.60401  0.50972  1.0000
  C   C1926     1.0  0.36847  0.33509  0.58130  1.0000
  C   C1927     1.0  0.39422  0.45409  0.64886  1.0000
  C   C1928     1.0  0.61562  0.38692  0.59813  1.0000
  C   C1929     1.0  0.62642  0.39150  0.59213  1.0000
  C   C1930     1.0  0.63760  0.38631  0.59628  1.0000
  C   C1931     1.0  0.63790  0.37689  0.60683  1.0000
  C   C1932     1.0  0.62703  0.37250  0.61304  1.0000
  C   C1933     1.0  0.61595  0.37737  0.60859  1.0000
  H   H3095     1.0  0.62613  0.39915  0.58429  1.0000
  H   H3096     1.0  0.64591  0.38986  0.59151  1.0000
  H   H3097     1.0  0.62720  0.36525  0.62124  1.0000
  H   H3098     1.0  0.60759  0.37394  0.61340  1.0000
  H   H3099     1.0  0.33665  0.58070  0.58939  1.0000
  H   H3100     1.0  0.36761  0.36717  0.66868  1.0000
  C   C1934     1.0  0.38776  0.63321  0.70650  1.0000
  H   H3101     1.0  0.54226  0.36760  0.63730  1.0000
  C   C1935     1.0  0.38482  0.57771  0.62832  1.0000
  C   C1936     1.0  0.60495  0.38400  0.53421  1.0000
  C   C1937     1.0  0.60493  0.37179  0.53393  1.0000
  C   C1938     1.0  0.59696  0.36514  0.54318  1.0000
  C   C1939     1.0  0.58928  0.37056  0.55290  1.0000
  C   C1940     1.0  0.58932  0.38276  0.55317  1.0000
  C   C1941     1.0  0.59696  0.38955  0.54370  1.0000
  H   H3102     1.0  0.61101  0.36749  0.52656  1.0000
  H   H3103     1.0  0.59694  0.35571  0.54295  1.0000
  H   H3104     1.0  0.58331  0.38706  0.56056  1.0000
  H   H3105     1.0  0.59685  0.39904  0.54383  1.0000
  C   C1942     1.0  0.37278  0.36646  0.60556  1.0000
  C   C1943     1.0  0.36580  0.36512  0.61764  1.0000
  C   C1944     1.0  0.36172  0.37528  0.62352  1.0000
  C   C1945     1.0  0.36496  0.38672  0.61753  1.0000
  C   C1946     1.0  0.37238  0.38793  0.60563  1.0000
  C   C1947     1.0  0.37611  0.37787  0.59958  1.0000
  H   H3106     1.0  0.36321  0.35635  0.62234  1.0000
  H   H3107     1.0  0.35595  0.37430  0.63269  1.0000
  H   H3108     1.0  0.37491  0.39674  0.60095  1.0000
  H   H3109     1.0  0.38153  0.37895  0.59025  1.0000
  C   C1948     1.0  0.44180  0.38650  0.59008  1.0000
  C   C1949     1.0  0.44044  0.39294  0.57819  1.0000
  C   C1950     1.0  0.43021  0.40262  0.57653  1.0000
  C   C1951     1.0  0.42118  0.40573  0.58672  1.0000
  C   C1952     1.0  0.42241  0.39912  0.59860  1.0000
  C   C1953     1.0  0.43277  0.38962  0.60029  1.0000
  H   H3110     1.0  0.44734  0.39050  0.57026  1.0000
  H   H3111     1.0  0.42928  0.40770  0.56731  1.0000
  H   H3112     1.0  0.41550  0.40148  0.60649  1.0000
  H   H3113     1.0  0.43362  0.38458  0.60945  1.0000
  H   H3114     1.0  0.43158  0.34836  0.58263  1.0000
  H   H3115     1.0  0.40024  0.37859  0.64518  1.0000
  H   H3116     1.0  0.34115  0.65632  0.55566  1.0000
  C   C1954     1.0  0.51201  0.35976  0.61826  1.0000
  C   C1955     1.0  0.52470  0.35470  0.61517  1.0000
  C   C1956     1.0  0.53358  0.36197  0.61320  1.0000
  C   C1957     1.0  0.52991  0.37438  0.61430  1.0000
  C   C1958     1.0  0.51719  0.37947  0.61736  1.0000
  C   C1959     1.0  0.50824  0.37220  0.61930  1.0000
  H   H3117     1.0  0.52766  0.34508  0.61438  1.0000
  H   H3118     1.0  0.54324  0.35784  0.61104  1.0000
  H   H3119     1.0  0.51422  0.38906  0.61827  1.0000
  H   H3120     1.0  0.49846  0.37617  0.62174  1.0000
  C   C1960     1.0  0.43343  0.38031  0.68402  1.0000
  C   C1961     1.0  0.44163  0.38844  0.68101  1.0000
  C   C1962     1.0  0.44732  0.39231  0.66869  1.0000
  C   C1963     1.0  0.44522  0.38768  0.65934  1.0000
  C   C1964     1.0  0.43707  0.37949  0.66230  1.0000
  C   C1965     1.0  0.43100  0.37599  0.67461  1.0000
  H   H3121     1.0  0.44357  0.39179  0.68824  1.0000
  H   H3122     1.0  0.45362  0.39862  0.66645  1.0000
  H   H3123     1.0  0.43537  0.37595  0.65508  1.0000
  H   H3124     1.0  0.42472  0.36972  0.67683  1.0000
  C   C1966     1.0  0.37664  0.40051  0.67903  1.0000
  C   C1967     1.0  0.38921  0.40042  0.67799  1.0000
  C   C1968     1.0  0.39587  0.40668  0.66712  1.0000
  C   C1969     1.0  0.39000  0.41285  0.65725  1.0000
  C   C1970     1.0  0.37742  0.41303  0.65843  1.0000
  C   C1971     1.0  0.37072  0.40699  0.66932  1.0000
  H   H3125     1.0  0.39383  0.39554  0.68554  1.0000
  H   H3126     1.0  0.40561  0.40652  0.66632  1.0000
  H   H3127     1.0  0.37276  0.41782  0.65100  1.0000
  H   H3128     1.0  0.36101  0.40706  0.67008  1.0000
  C   C1972     1.0  0.37606  0.37078  0.66795  1.0000
  H   H3129     1.0  0.38390  0.57264  0.65292  1.0000
  H   H3130     1.0  0.38135  0.63078  0.69110  1.0000
  H   H3131     1.0  0.35629  0.59959  0.71793  1.0000
  H   H3132     1.0  0.43874  0.35120  0.66688  1.0000
  C   C1973     1.0  0.36182  0.63770  0.52127  1.0000
  C   C1974     1.0  0.34966  0.63572  0.52530  1.0000
  N   N193      1.0  0.37366  0.57744  0.63834  1.0000
  H   H3133     1.0  0.34097  0.34325  0.60061  1.0000
  C   C1975     1.0  0.37215  0.33839  0.67613  1.0000
  C   C1976     1.0  0.36186  0.60988  0.50507  1.0000
  H   H3134     1.0  0.38238  0.61528  0.48891  1.0000
  C   C1977     1.0  0.37447  0.46734  0.65506  1.0000
  N   N194      1.0  0.42154  0.35666  0.59817  1.0000
  C   C1978     1.0  0.36784  0.62799  0.70803  1.0000
  H   H3135     1.0  0.40278  0.35445  0.60635  1.0000
  H   H3136     1.0  0.36426  0.46813  0.65840  1.0000
  H   H3137     1.0  0.35387  0.58599  0.71424  1.0000
  C   C1979     1.0  0.37388  0.63015  0.72639  1.0000
  C   C1980     1.0  0.36525  0.62779  0.72077  1.0000
  C   C1981     1.0  0.33669  0.55715  0.66740  1.0000
  H   H3138     1.0  0.37293  0.37961  0.67135  1.0000
  H   H3139     1.0  0.44922  0.35211  0.67588  1.0000
  C   C1982     1.0  0.36892  0.59932  0.48788  1.0000
  C   C1983     1.0  0.36985  0.62151  0.62540  1.0000
  C   C1984     1.0  0.37503  0.61652  0.61474  1.0000
  C   C1985     1.0  0.36954  0.62085  0.60432  1.0000
  C   C1986     1.0  0.35916  0.63057  0.60431  1.0000
  H   H3140     1.0  0.37705  0.45751  0.63530  1.0000
  C   C1987     1.0  0.35927  0.63100  0.62550  1.0000
  H   H3141     1.0  0.38329  0.60929  0.61454  1.0000
  H   H3142     1.0  0.37355  0.61688  0.59618  1.0000
  Fe  Fe409     1.0  0.37929  0.33600  0.61171  1.0000
  C   C1988     1.0  0.43301  0.34983  0.59138  1.0000
  C   C1989     1.0  0.38279  0.55355  0.60871  1.0000
  C   C1990     1.0  0.39434  0.55321  0.60064  1.0000
  C   C1991     1.0  0.39598  0.56256  0.59010  1.0000
  C   C1992     1.0  0.38620  0.57252  0.58775  1.0000
  C   C1993     1.0  0.37479  0.57317  0.59613  1.0000
  C   C1994     1.0  0.37299  0.56356  0.60647  1.0000
  H   H3143     1.0  0.40197  0.54555  0.60240  1.0000
  H   H3144     1.0  0.40486  0.56206  0.58371  1.0000
  H   H3145     1.0  0.36736  0.58100  0.59456  1.0000
  H   H3146     1.0  0.36412  0.56401  0.61280  1.0000
  H   H3147     1.0  0.54247  0.34242  0.63162  1.0000
  H   H3148     1.0  0.41963  0.33080  0.65107  1.0000
  H   H3149     1.0  0.36861  0.44588  0.66910  1.0000
  C   C1995     1.0  0.35026  0.56835  0.67724  1.0000
  H   H3150     1.0  0.42807  0.33377  0.67243  1.0000
  C   C1996     1.0  0.55113  0.36065  0.63622  1.0000
  S   S824      1.0  0.39568  0.63740  0.72574  1.0000
  H   H3151     1.0  0.63623  0.34631  0.57446  1.0000
  H   H3152     1.0  0.34623  0.64336  0.61485  1.0000
  H   H3153     1.0  0.37432  0.38770  0.73545  1.0000
  C   C1997     1.0  0.35456  0.48520  0.63432  1.0000
  C   C1998     1.0  0.36181  0.48895  0.62274  1.0000
  C   C1999     1.0  0.36500  0.48151  0.61386  1.0000
  C   C2000     1.0  0.36109  0.47022  0.61660  1.0000
  H   H3154     1.0  0.55375  0.35292  0.65977  1.0000
  C   C2001     1.0  0.35392  0.46642  0.62822  1.0000
  H   H3155     1.0  0.36507  0.49752  0.62063  1.0000
  H   H3156     1.0  0.37051  0.48450  0.60485  1.0000
  H   H3157     1.0  0.35020  0.54701  0.59388  1.0000
  N   N195      1.0  0.43420  0.41849  0.61891  1.0000
  C   C2002     1.0  0.44686  0.41742  0.62079  1.0000
  C   C2003     1.0  0.42945  0.40724  0.62595  1.0000
  C   C2004     1.0  0.43456  0.41985  0.60562  1.0000
  C   C2005     1.0  0.42592  0.42944  0.62334  1.0000
  H   H3158     1.0  0.44684  0.41683  0.63067  1.0000
  H   H3159     1.0  0.45096  0.42550  0.61528  1.0000
  H   H3160     1.0  0.45322  0.40889  0.61811  1.0000
  H   H3161     1.0  0.42901  0.40599  0.63604  1.0000
  H   H3162     1.0  0.41992  0.40770  0.62475  1.0000
  H   H3163     1.0  0.43557  0.39875  0.62300  1.0000
  H   H3164     1.0  0.44060  0.41165  0.60201  1.0000
  H   H3165     1.0  0.43824  0.42815  0.60002  1.0000
  H   H3166     1.0  0.42513  0.42091  0.60382  1.0000
  H   H3167     1.0  0.41634  0.43058  0.62188  1.0000
  H   H3168     1.0  0.42931  0.43809  0.61841  1.0000
  H   H3169     1.0  0.42518  0.42852  0.63342  1.0000
  H   H3170     1.0  0.37802  0.47032  0.66183  1.0000
  H   H3171     1.0  0.37819  0.35744  0.65089  1.0000
  H   H3172     1.0  0.35182  0.54137  0.66858  1.0000
  C   C2006     1.0  0.39714  0.32663  0.67241  1.0000
  C   C2007     1.0  0.33456  0.49028  0.60751  1.0000
  H   H3173     1.0  0.35080  0.65135  0.54201  1.0000
  Fe  Fe410     1.0  0.64517  0.37595  0.48716  1.0000
  H   H3174     1.0  0.38338  0.43619  0.66453  1.0000
  H   H3175     1.0  0.39641  0.63548  0.70088  1.0000
  H   H3176     1.0  0.36896  0.34449  0.57551  1.0000
  H   H3177     1.0  0.61339  0.34075  0.60383  1.0000
  S   S825      1.0  0.39043  0.33507  0.62550  1.0000
  H   H3178     1.0  0.39285  0.57045  0.63097  1.0000
  H   H3179     1.0  0.37960  0.60248  0.69891  1.0000
  C   C2008     1.0  0.62143  0.34424  0.60450  1.0000
  H   H3180     1.0  0.38319  0.57604  0.61973  1.0000
  H   H3181     1.0  0.35649  0.62577  0.72637  1.0000
  C   C2009     1.0  0.44378  0.32797  0.62662  1.0000
  S   S826      1.0  0.34740  0.62826  0.56218  1.0000
  C   C2010     1.0  0.34774  0.33657  0.57857  1.0000
  N   N196      1.0  0.36418  0.61151  0.49148  1.0000
  H   H3182     1.0  0.37586  0.47419  0.64619  1.0000
  H   H3183     1.0  0.36375  0.55121  0.67749  1.0000
  H   H3184     1.0  0.36060  0.54781  0.57909  1.0000
  H   H3185     1.0  0.37788  0.60288  0.71481  1.0000
  C   C2011     1.0  0.37564  0.45113  0.64446  1.0000
  Fe  Fe411     1.0  0.34654  0.60812  0.56712  1.0000
  C   C2012     1.0  0.33888  0.56338  0.57643  1.0000
  H   H3186     1.0  0.36144  0.56817  0.56479  1.0000
  H   H3187     1.0  0.35636  0.34189  0.60283  1.0000
  H   H3188     1.0  0.35887  0.59825  0.70222  1.0000
  C   C2013     1.0  0.56169  0.33949  0.64198  1.0000
  Fe  Fe412     1.0  0.65693  0.36707  0.50990  1.0000
  H   H3189     1.0  0.39610  0.46050  0.63977  1.0000
  H   H3190     1.0  0.36399  0.57432  0.57666  1.0000
  H   H3191     1.0  0.42500  0.37434  0.58747  1.0000
  H   H3192     1.0  0.38073  0.38361  0.63728  1.0000
  H   H3193     1.0  0.44075  0.35496  0.58898  1.0000
  C   C2014     1.0  0.37572  0.38212  0.64709  1.0000
  H   H3194     1.0  0.39072  0.59245  0.70766  1.0000
  C   C2015     1.0  0.37031  0.56515  0.64127  1.0000
  H   H3195     1.0  0.36052  0.65210  0.49140  1.0000
  H   H3196     1.0  0.34937  0.41539  0.73051  1.0000
  H   H3197     1.0  0.35131  0.58191  0.56908  1.0000
  H   H3198     1.0  0.35824  0.61894  0.50800  1.0000
  N   N197      1.0  0.63207  0.34180  0.59429  1.0000
  N   N198      1.0  0.35508  0.39563  0.73570  1.0000
  H   H3199     1.0  0.33498  0.48306  0.61611  1.0000
  H   H3200     1.0  0.33605  0.56595  0.59963  1.0000
  H   H3201     1.0  0.35529  0.63496  0.63365  1.0000
  C   C2016     1.0  0.34534  0.64544  0.50480  1.0000
  H   H3202     1.0  0.55396  0.36007  0.62631  1.0000
  H   H3203     1.0  0.42253  0.34849  0.68630  1.0000
  S   S827      1.0  0.59025  0.33764  0.62097  1.0000
  H   H3204     1.0  0.45307  0.32976  0.62315  1.0000
  H   H3205     1.0  0.54540  0.34056  0.66357  1.0000
  H   H3206     1.0  0.43336  0.34942  0.69491  1.0000
  C   C2017     1.0  0.53994  0.34402  0.64124  1.0000
  H   H3207     1.0  0.36198  0.56461  0.64886  1.0000
  H   H3208     1.0  0.39224  0.35339  0.65672  1.0000
  H   H3209     1.0  0.36688  0.37945  0.64734  1.0000
  C   C2018     1.0  0.42401  0.35843  0.60964  1.0000
  C   C2019     1.0  0.43528  0.32830  0.67781  1.0000
  H   H3210     1.0  0.37697  0.58345  0.69343  1.0000
  H   H3211     1.0  0.38729  0.57356  0.70307  1.0000
  H   H3212     1.0  0.36794  0.57997  0.65709  1.0000
  H   H3213     1.0  0.64005  0.35685  0.59485  1.0000
  C   C2020     1.0  0.41757  0.36885  0.59038  1.0000
  H   H3214     1.0  0.34657  0.63115  0.53472  1.0000
  H   H3215     1.0  0.61824  0.35430  0.60440  1.0000
  S   S828      1.0  0.36439  0.32750  0.62561  1.0000
  H   H3216     1.0  0.42587  0.33633  0.69907  1.0000
  C   C2021     1.0  0.36322  0.58708  0.63434  1.0000
  C   C2022     1.0  0.39224  0.33329  0.68194  1.0000
  H   H3217     1.0  0.41573  0.36395  0.61482  1.0000
  H   H3218     1.0  0.41427  0.34023  0.60720  1.0000
  H   H3219     1.0  0.37585  0.34421  0.69120  1.0000
  C   C2023     1.0  0.38068  0.59657  0.70813  1.0000
  H   H3220     1.0  0.56948  0.34267  0.64373  1.0000
  H   H3221     1.0  0.39920  0.44458  0.64759  1.0000
  H   H3222     1.0  0.62054  0.34444  0.58118  1.0000
  H   H3223     1.0  0.57765  0.33243  0.60455  1.0000
  H   H3224     1.0  0.40954  0.34789  0.59289  1.0000
  N   N199      1.0  0.44027  0.33642  0.68275  1.0000
  C   C2024     1.0  0.38662  0.36081  0.65077  1.0000
  H   H3225     1.0  0.35068  0.45782  0.63028  1.0000
  C   C2025     1.0  0.34824  0.55073  0.67008  1.0000
  N   N200      1.0  0.63224  0.38951  0.55422  1.0000
  C   C2026     1.0  0.64186  0.38822  0.56133  1.0000
  C   C2027     1.0  0.63296  0.40029  0.54385  1.0000
  C   C2028     1.0  0.61984  0.39137  0.56238  1.0000
  C   C2029     1.0  0.63431  0.37818  0.54930  1.0000
  H   H3226     1.0  0.64114  0.38065  0.56966  1.0000
  H   H3227     1.0  0.64117  0.39690  0.56447  1.0000
  H   H3228     1.0  0.65134  0.38606  0.55569  1.0000
  H   H3229     1.0  0.64203  0.39903  0.53726  1.0000
  H   H3230     1.0  0.62559  0.40172  0.53850  1.0000
  H   H3231     1.0  0.63182  0.40898  0.54715  1.0000
  H   H3232     1.0  0.61892  0.38351  0.57041  1.0000
  H   H3233     1.0  0.61237  0.39225  0.55738  1.0000
  H   H3234     1.0  0.61787  0.39995  0.56612  1.0000
  H   H3235     1.0  0.62717  0.37884  0.54393  1.0000
  H   H3236     1.0  0.63389  0.36984  0.55682  1.0000
  H   H3237     1.0  0.64354  0.37663  0.54293  1.0000
  N   N201      1.0  0.37306  0.58696  0.71179  1.0000
  C   C2030     1.0  0.37748  0.57841  0.70306  1.0000
  H   H3238     1.0  0.53756  0.35633  0.65917  1.0000
  C   C2031     1.0  0.37411  0.57995  0.72440  1.0000
  C   C2032     1.0  0.35994  0.59291  0.71160  1.0000
  C   C2033     1.0  0.43690  0.33102  0.63784  1.0000
  C   C2034     1.0  0.38514  0.63302  0.71926  1.0000
  H   H3239     1.0  0.37074  0.58616  0.73121  1.0000
  C   C2035     1.0  0.63587  0.32830  0.59486  1.0000
  H   H3240     1.0  0.42662  0.34939  0.61590  1.0000
  C   C2036     1.0  0.37868  0.44586  0.66544  1.0000
  H   H3241     1.0  0.36552  0.45127  0.64769  1.0000
  C   C2037     1.0  0.36570  0.64361  0.50902  1.0000
  C   C2038     1.0  0.66574  0.33131  0.53130  1.0000
  S   S829      1.0  0.33492  0.64979  0.49466  1.0000
  H   H3242     1.0  0.45358  0.34096  0.66606  1.0000
  H   H3243     1.0  0.39210  0.36183  0.64114  1.0000
  H   H3244     1.0  0.33796  0.33591  0.58314  1.0000
  H   H3245     1.0  0.65746  0.33619  0.55421  1.0000
  H   H3246     1.0  0.40076  0.36974  0.66056  1.0000
  N   N202      1.0  0.34849  0.56511  0.58210  1.0000
  N   N203      1.0  0.54127  0.36855  0.57464  1.0000
  C   C2039     1.0  0.54438  0.37047  0.56101  1.0000
  C   C2040     1.0  0.54631  0.37732  0.57861  1.0000
  C   C2041     1.0  0.54683  0.35569  0.57994  1.0000
  C   C2042     1.0  0.52764  0.37070  0.57900  1.0000
  H   H3247     1.0  0.54072  0.36404  0.55764  1.0000
  H   H3248     1.0  0.55465  0.36883  0.55752  1.0000
  H   H3249     1.0  0.54048  0.38011  0.55667  1.0000
  H   H3250     1.0  0.54444  0.37598  0.58883  1.0000
  H   H3251     1.0  0.55653  0.37614  0.57524  1.0000
  H   H3252     1.0  0.54215  0.38712  0.57500  1.0000
  H   H3253     1.0  0.55713  0.35379  0.57697  1.0000
  H   H3254     1.0  0.54335  0.34883  0.57699  1.0000
  H   H3255     1.0  0.54462  0.35385  0.59019  1.0000
  H   H3256     1.0  0.52503  0.36947  0.58926  1.0000
  H   H3257     1.0  0.52350  0.36413  0.57633  1.0000
  H   H3258     1.0  0.52312  0.38028  0.57511  1.0000
  H   H3259     1.0  0.37320  0.39124  0.64993  1.0000
  H   H3260     1.0  0.39248  0.38553  0.65827  1.0000
  C   C2043     1.0  0.35494  0.55627  0.67518  1.0000
  S   S830      1.0  0.36733  0.33097  0.65717  1.0000
  H   H3261     1.0  0.45381  0.33476  0.69349  1.0000
  H   H3262     1.0  0.36527  0.59651  0.63254  1.0000
  H   H3263     1.0  0.36911  0.64461  0.55197  1.0000
  H   H3264     1.0  0.37050  0.60551  0.50869  1.0000
  C   C2044     1.0  0.41160  0.34949  0.60131  1.0000
  H   H3265     1.0  0.37108  0.40412  0.73017  1.0000
  H   H3266     1.0  0.53825  0.33511  0.64747  1.0000
  C   C2045     1.0  0.43009  0.34297  0.69115  1.0000
  Fe  Fe413     1.0  0.33785  0.53723  0.62156  1.0000
  N   N204      1.0  0.38328  0.37262  0.65513  1.0000
  N   N205      1.0  0.38075  0.45461  0.65347  1.0000
  S   S831      1.0  0.34019  0.60943  0.68758  1.0000
  C   C2046     1.0  0.35600  0.55293  0.58667  1.0000
  H   H3267     1.0  0.38236  0.44822  0.67250  1.0000
  H   H3268     1.0  0.36131  0.58583  0.62570  1.0000
  Fe  Fe414     1.0  0.33870  0.53976  0.64700  1.0000
  S   S832      1.0  0.65641  0.35774  0.49503  1.0000
  H   H3269     1.0  0.34308  0.55865  0.56851  1.0000
  H   H3270     1.0  0.36243  0.34285  0.67769  1.0000
  C   C2047     1.0  0.37625  0.57985  0.64945  1.0000
  H   H3271     1.0  0.38764  0.58685  0.62599  1.0000
  C   C2048     1.0  0.38962  0.32604  0.66461  1.0000
  H   H3272     1.0  0.37896  0.58900  0.64755  1.0000
  H   H3273     1.0  0.37801  0.55758  0.64418  1.0000
  H   H3274     1.0  0.36817  0.56306  0.63315  1.0000
  H   H3275     1.0  0.53097  0.35088  0.64206  1.0000
  C   C2049     1.0  0.35414  0.63573  0.61486  1.0000
  S   S833      1.0  0.40187  0.33392  0.69153  1.0000
  C   C2050     1.0  0.35666  0.57270  0.57277  1.0000
  C   C2051     1.0  0.64253  0.34665  0.59546  1.0000
  H   H3276     1.0  0.38392  0.57544  0.72491  1.0000
  S   S834      1.0  0.63358  0.33534  0.50881  1.0000
  H   H3277     1.0  0.36852  0.57259  0.72742  1.0000
  N   N206      1.0  0.54981  0.34843  0.64419  1.0000
  H   H3278     1.0  0.35456  0.58686  0.64156  1.0000
  C   C2052     1.0  0.37923  0.63056  0.70092  1.0000
  H   H3279     1.0  0.37464  0.33341  0.58795  1.0000
  H   H3280     1.0  0.34512  0.61194  0.49149  1.0000
  H   H3281     1.0  0.40918  0.37445  0.59536  1.0000
  H   H3282     1.0  0.43185  0.36333  0.60760  1.0000
  H   H3283     1.0  0.65086  0.34468  0.58809  1.0000
  H   H3284     1.0  0.34499  0.47099  0.64600  1.0000
  C   C2053     1.0  0.34142  0.63968  0.51710  1.0000
  C   C2054     1.0  0.35074  0.34349  0.59570  1.0000
  H   H3285     1.0  0.64535  0.34241  0.60450  1.0000
  H   H3286     1.0  0.62528  0.35816  0.58172  1.0000
  C   C2055     1.0  0.54648  0.34960  0.65726  1.0000
  C   C2056     1.0  0.62839  0.34797  0.58236  1.0000
  H   H3287     1.0  0.35105  0.35306  0.59026  1.0000
  H   H3288     1.0  0.37169  0.57126  0.70531  1.0000
  C   C2057     1.0  0.44570  0.34557  0.67247  1.0000
  C   C2058     1.0  0.34235  0.57145  0.59252  1.0000
  N   N207      1.0  0.35560  0.33419  0.58776  1.0000
  H   H3289     1.0  0.56119  0.33020  0.64797  1.0000
  H   H3290     1.0  0.34428  0.49119  0.60298  1.0000
  H   H3291     1.0  0.56435  0.33826  0.63222  1.0000
  H   H3292     1.0  0.35946  0.40105  0.71585  1.0000
  H   H3293     1.0  0.36211  0.59314  0.49196  1.0000
  C   C2059     1.0  0.37709  0.33186  0.66652  1.0000
  H   H3294     1.0  0.37776  0.59454  0.49099  1.0000
  C   C2060     1.0  0.35750  0.64744  0.50079  1.0000
  C   C2061     1.0  0.42496  0.32847  0.64238  1.0000
  H   H3295     1.0  0.34922  0.57290  0.59711  1.0000
  C   C2062     1.0  0.35590  0.39355  0.72323  1.0000
  H   H3296     1.0  0.66492  0.37441  0.63962  1.0000
  H   H3297     1.0  0.34878  0.62682  0.48941  1.0000
  H   H3298     1.0  0.35118  0.32975  0.57239  1.0000
  C   C2063     1.0  0.44994  0.32886  0.68961  1.0000
  H   H3299     1.0  0.37319  0.65507  0.55889  1.0000
  H   H3300     1.0  0.33639  0.51329  0.59424  1.0000
  H   H3301     1.0  0.34672  0.39312  0.72179  1.0000
  H   H3302     1.0  0.36234  0.38467  0.72166  1.0000
  H   H3303     1.0  0.35927  0.64915  0.56576  1.0000
  H   H3304     1.0  0.37011  0.62874  0.48816  1.0000
  Fe  Fe415     1.0  0.33651  0.61987  0.66900  1.0000
  H   H3305     1.0  0.33748  0.62060  0.62550  1.0000
  C   C2064     1.0  0.36524  0.65253  0.55678  1.0000
  H   H3306     1.0  0.66298  0.38854  0.51844  1.0000
  H   H3307     1.0  0.37249  0.32820  0.57523  1.0000
  H   H3308     1.0  0.65599  0.33012  0.53508  1.0000
  C   C2065     1.0  0.35248  0.61746  0.48715  1.0000
  H   H3309     1.0  0.66538  0.34099  0.52609  1.0000
  H   H3310     1.0  0.66382  0.40192  0.53228  1.0000
  H   H3311     1.0  0.37613  0.65849  0.71721  1.0000
  C   C2066     1.0  0.59417  0.32614  0.61217  1.0000
  C   C2067     1.0  0.58647  0.32608  0.60441  1.0000
  C   C2068     1.0  0.66716  0.33712  0.54972  1.0000
  H   H3312     1.0  0.66697  0.34691  0.54471  1.0000
  H   H3313     1.0  0.64409  0.32598  0.58751  1.0000
  H   H3314     1.0  0.37170  0.62991  0.73619  1.0000
  H   H3315     1.0  0.40096  0.37054  0.81008  1.0000
  S   S835      1.0  0.39419  0.37404  0.97074  1.0000
  H   H3316     1.0  0.37420  0.59845  0.80749  1.0000
  H   H3317     1.0  0.37961  0.36796  0.81116  1.0000
  S   S836      1.0  0.35495  0.48814  0.84634  1.0000
  S   S837      1.0  0.59321  0.63413  0.84795  1.0000
  H   H3318     1.0  0.41000  0.35175  0.78553  1.0000
  C   C2069     1.0  0.38516  0.53616  0.89886  1.0000
  H   H3319     1.0  0.38017  0.52016  0.80316  1.0000
  S   S838      1.0  0.36024  0.46077  0.87445  1.0000
  H   H3320     1.0  0.37566  0.56020  0.89975  1.0000
  N   N208      1.0  0.44845  0.57768  0.83308  1.0000
  H   H3321     1.0  0.36749  0.51932  0.79686  1.0000
  S   S839      1.0  0.36001  0.39454  0.91273  1.0000
  Fe  Fe416     1.0  0.33626  0.37901  0.90613  1.0000
  C   C2070     1.0  0.59886  0.64769  0.91722  1.0000
  S   S840      1.0  0.35555  0.36874  0.90775  1.0000
  Fe  Fe417     1.0  0.35268  0.37766  0.92396  1.0000
  S   S841      1.0  0.35883  0.36460  0.94081  1.0000
  Fe  Fe418     1.0  0.36144  0.38614  0.89651  1.0000
  S   S842      1.0  0.37802  0.38585  0.88086  1.0000
  H   H3322     1.0  0.34438  0.43906  0.85679  1.0000
  H   H3323     1.0  0.61808  0.63854  0.83974  1.0000
  Fe  Fe419     1.0  0.34987  0.41158  0.80439  1.0000
  S   S843      1.0  0.35790  0.39192  0.80223  1.0000
  Fe  Fe420     1.0  0.37292  0.41516  0.81043  1.0000
  S   S844      1.0  0.38317  0.39592  0.80873  1.0000
  S   S845      1.0  0.38105  0.42736  0.81749  1.0000
  Fe  Fe421     1.0  0.37506  0.39925  0.79189  1.0000
  S   S846      1.0  0.38812  0.39393  0.77468  1.0000
  Fe  Fe422     1.0  0.36533  0.39029  0.81914  1.0000
  S   S847      1.0  0.36464  0.37412  0.83511  1.0000
  S   S848      1.0  0.36639  0.41918  0.79264  1.0000
  S   S849      1.0  0.35567  0.40922  0.82227  1.0000
  H   H3324     1.0  0.38710  0.63269  0.82082  1.0000
  N   N209      1.0  0.34583  0.37304  0.98531  1.0000
  N   N210      1.0  0.39193  0.54647  0.89484  1.0000
  S   S850      1.0  0.34570  0.47970  0.81862  1.0000
  H   H3325     1.0  0.37380  0.65000  0.73980  1.0000
  Fe  Fe423     1.0  0.39202  0.61643  0.77063  1.0000
  S   S851      1.0  0.38723  0.59794  0.77931  1.0000
  N   N211      1.0  0.36266  0.61663  0.80733  1.0000
  H   H3326     1.0  0.34123  0.38458  0.74455  1.0000
  Fe  Fe424     1.0  0.46344  0.61976  0.82269  1.0000
  S   S852      1.0  0.44857  0.63187  0.83394  1.0000
  S   S853      1.0  0.45722  0.61035  0.81062  1.0000
  Fe  Fe425     1.0  0.48406  0.62191  0.83505  1.0000
  S   S854      1.0  0.47042  0.63389  0.84718  1.0000
  S   S855      1.0  0.50475  0.61801  0.83531  1.0000
  Fe  Fe426     1.0  0.45764  0.62092  0.84967  1.0000
  S   S856      1.0  0.44684  0.61463  0.86870  1.0000
  Fe  Fe427     1.0  0.46283  0.64352  0.83024  1.0000
  H   H3327     1.0  0.36094  0.40803  0.87079  1.0000
  S   S857      1.0  0.47181  0.60797  0.83885  1.0000
  S   S858      1.0  0.47716  0.63234  0.81768  1.0000
  Fe  Fe428     1.0  0.38144  0.59275  0.84642  1.0000
  S   S859      1.0  0.40175  0.59206  0.84368  1.0000
  S   S860      1.0  0.36976  0.61186  0.84187  1.0000
  Fe  Fe429     1.0  0.38398  0.56466  0.85547  1.0000
  S   S861      1.0  0.40465  0.56199  0.85350  1.0000
  S   S862      1.0  0.37724  0.54660  0.86465  1.0000
  Fe  Fe430     1.0  0.40057  0.57872  0.86177  1.0000
  S   S863      1.0  0.41044  0.57798  0.87674  1.0000
  Fe  Fe431     1.0  0.40408  0.57547  0.83570  1.0000
  S   S864      1.0  0.41949  0.57366  0.81932  1.0000
  S   S865      1.0  0.37991  0.58056  0.86531  1.0000
  S   S866      1.0  0.38373  0.57712  0.83668  1.0000
  H   H3328     1.0  0.38800  0.56622  0.88845  1.0000
  H   H3329     1.0  0.43730  0.64863  0.78564  1.0000
  C   C2071     1.0  0.35232  0.61195  0.81658  1.0000
  Fe  Fe432     1.0  0.60744  0.64882  0.94887  1.0000
  H   H3330     1.0  0.36460  0.44454  0.85091  1.0000
  S   S867      1.0  0.62229  0.63668  0.93782  1.0000
  N   N212      1.0  0.60478  0.64271  0.90590  1.0000
  S   S868      1.0  0.39539  0.64983  0.75570  1.0000
  S   S869      1.0  0.59031  0.64194  0.95989  1.0000
  H   H3331     1.0  0.45098  0.58608  0.84694  1.0000
  Fe  Fe433     1.0  0.64832  0.63995  0.86888  1.0000
  N   N213      1.0  0.36355  0.51730  0.81660  1.0000
  S   S870      1.0  0.63645  0.62563  0.87667  1.0000
  H   H3332     1.0  0.38469  0.38895  0.94945  1.0000
  Fe  Fe434     1.0  0.54632  0.64573  0.86636  1.0000
  H   H3333     1.0  0.43467  0.56640  0.83813  1.0000
  S   S871      1.0  0.52698  0.64249  0.86728  1.0000
  Fe  Fe435     1.0  0.57484  0.64105  0.85960  1.0000
  C   C2072     1.0  0.35320  0.51091  0.81846  1.0000
  H   H3334     1.0  0.35658  0.50077  0.81889  1.0000
  Fe  Fe436     1.0  0.56144  0.64344  0.88566  1.0000
  S   S872      1.0  0.56284  0.63423  0.90531  1.0000
  H   H3335     1.0  0.37055  0.38564  0.93768  1.0000
  S   S873      1.0  0.56135  0.63064  0.87363  1.0000
  H   H3336     1.0  0.34554  0.40920  0.74680  1.0000
  C   C2073     1.0  0.62464  0.62768  0.86850  1.0000
  C   C2074     1.0  0.61346  0.62394  0.87469  1.0000
  C   C2075     1.0  0.60369  0.62614  0.86848  1.0000
  C   C2076     1.0  0.60534  0.63140  0.85586  1.0000
  C   C2077     1.0  0.33831  0.43305  0.90124  1.0000
  C   C2078     1.0  0.62624  0.63310  0.85592  1.0000
  H   H3337     1.0  0.61228  0.61946  0.88433  1.0000
  H   H3338     1.0  0.59497  0.62346  0.87336  1.0000
  H   H3339     1.0  0.35159  0.60274  0.81548  1.0000
  H   H3340     1.0  0.38665  0.37862  0.90551  1.0000
  Fe  Fe437     1.0  0.39477  0.63472  0.74645  1.0000
  H   H3341     1.0  0.59363  0.64114  0.92427  1.0000
  H   H3342     1.0  0.37862  0.55800  0.88422  1.0000
  C   C2079     1.0  0.56358  0.64349  0.91521  1.0000
  C   C2080     1.0  0.56750  0.63773  0.92634  1.0000
  C   C2081     1.0  0.56806  0.64482  0.93452  1.0000
  C   C2082     1.0  0.40603  0.63757  0.82793  1.0000
  S   S874      1.0  0.37911  0.35816  0.74491  1.0000
  H   H3343     1.0  0.57004  0.62773  0.92869  1.0000
  H   H3344     1.0  0.57093  0.64029  0.94318  1.0000
  C   C2083     1.0  0.63164  0.64546  0.92610  1.0000
  S   S875      1.0  0.66444  0.63925  0.87713  1.0000
  S   S876      1.0  0.57624  0.65243  0.87230  1.0000
  H   H3345     1.0  0.37846  0.43286  0.85246  1.0000
  C   C2084     1.0  0.64700  0.64671  0.90705  1.0000
  C   C2085     1.0  0.64009  0.63973  0.91702  1.0000
  C   C2086     1.0  0.42244  0.64192  0.85638  1.0000
  H   H3346     1.0  0.61978  0.63080  0.91406  1.0000
  H   H3347     1.0  0.65357  0.64214  0.90024  1.0000
  H   H3348     1.0  0.64124  0.62988  0.91764  1.0000
  C   C2087     1.0  0.37440  0.62284  0.84726  1.0000
  C   C2088     1.0  0.38263  0.61902  0.85538  1.0000
  C   C2089     1.0  0.38680  0.62782  0.85911  1.0000
  C   C2090     1.0  0.38282  0.64050  0.85468  1.0000
  C   C2091     1.0  0.37448  0.64435  0.84666  1.0000
  C   C2092     1.0  0.37018  0.63553  0.84306  1.0000
  H   H3349     1.0  0.38571  0.60927  0.85893  1.0000
  H   H3350     1.0  0.39320  0.62477  0.86536  1.0000
  H   H3351     1.0  0.37760  0.53745  0.90707  1.0000
  H   H3352     1.0  0.36370  0.63858  0.83689  1.0000
  H   H3353     1.0  0.40795  0.34334  0.80799  1.0000
  C   C2093     1.0  0.35857  0.53068  0.81619  1.0000
  C   C2094     1.0  0.37222  0.51550  0.80484  1.0000
  C   C2095     1.0  0.43674  0.60460  0.87038  1.0000
  C   C2096     1.0  0.43320  0.59740  0.88205  1.0000
  C   C2097     1.0  0.42517  0.58930  0.88381  1.0000
  C   C2098     1.0  0.42037  0.58850  0.87398  1.0000
  C   C2099     1.0  0.42374  0.59587  0.86229  1.0000
  C   C2100     1.0  0.43200  0.60386  0.86047  1.0000
  H   H3354     1.0  0.43678  0.59797  0.88976  1.0000
  H   H3355     1.0  0.42261  0.58369  0.89287  1.0000
  H   H3356     1.0  0.42002  0.59543  0.85468  1.0000
  H   H3357     1.0  0.43454  0.60957  0.85148  1.0000
  C   C2101     1.0  0.51100  0.62447  0.84446  1.0000
  C   C2102     1.0  0.50348  0.62953  0.85445  1.0000
  C   C2103     1.0  0.50859  0.63493  0.86131  1.0000
  C   C2104     1.0  0.52129  0.63532  0.85832  1.0000
  C   C2105     1.0  0.52888  0.63014  0.84842  1.0000
  C   C2106     1.0  0.52375  0.62471  0.84155  1.0000
  H   H3358     1.0  0.49372  0.62919  0.85697  1.0000
  H   H3359     1.0  0.50264  0.63883  0.86899  1.0000
  H   H3360     1.0  0.53868  0.63033  0.84602  1.0000
  H   H3361     1.0  0.52968  0.62075  0.83389  1.0000
  C   C2107     1.0  0.43240  0.63254  0.78299  1.0000
  C   C2108     1.0  0.43408  0.61962  0.78625  1.0000
  C   C2109     1.0  0.44184  0.61291  0.79460  1.0000
  C   C2110     1.0  0.44773  0.61906  0.79997  1.0000
  C   C2111     1.0  0.44591  0.63198  0.79681  1.0000
  C   C2112     1.0  0.43845  0.63865  0.78822  1.0000
  H   H3362     1.0  0.40865  0.53567  0.88592  1.0000
  H   H3363     1.0  0.44328  0.60291  0.79687  1.0000
  H   H3364     1.0  0.45048  0.63683  0.80078  1.0000
  S   S877      1.0  0.37819  0.62947  0.76028  1.0000
  C   C2113     1.0  0.39738  0.59011  0.78920  1.0000
  C   C2114     1.0  0.39457  0.57970  0.79803  1.0000
  C   C2115     1.0  0.40179  0.57427  0.80699  1.0000
  C   C2116     1.0  0.41197  0.57909  0.80691  1.0000
  C   C2117     1.0  0.41508  0.58923  0.79780  1.0000
  C   C2118     1.0  0.40769  0.59483  0.78898  1.0000
  H   H3365     1.0  0.38657  0.57610  0.79822  1.0000
  H   H3366     1.0  0.39938  0.56646  0.81409  1.0000
  H   H3367     1.0  0.42286  0.59305  0.79784  1.0000
  H   H3368     1.0  0.40988  0.60288  0.78214  1.0000
  C   C2119     1.0  0.38511  0.38427  0.76642  1.0000
  C   C2120     1.0  0.39353  0.38194  0.75555  1.0000
  C   C2121     1.0  0.37023  0.51209  0.82690  1.0000
  C   C2122     1.0  0.38176  0.36788  0.75332  1.0000
  C   C2123     1.0  0.37337  0.37010  0.76427  1.0000
  C   C2124     1.0  0.37496  0.37839  0.77074  1.0000
  C   C2125     1.0  0.44777  0.58118  0.81986  1.0000
  H   H3369     1.0  0.36554  0.36553  0.76764  1.0000
  H   H3370     1.0  0.36836  0.38016  0.77908  1.0000
  C   C2126     1.0  0.37472  0.38222  0.86812  1.0000
  C   C2127     1.0  0.37902  0.38846  0.85613  1.0000
  C   C2128     1.0  0.37584  0.38611  0.84597  1.0000
  C   C2129     1.0  0.36893  0.37702  0.84769  1.0000
  C   C2130     1.0  0.36506  0.37044  0.85962  1.0000
  C   C2131     1.0  0.36763  0.37328  0.86986  1.0000
  H   H3371     1.0  0.38467  0.39524  0.85469  1.0000
  H   H3372     1.0  0.37893  0.39120  0.83678  1.0000
  H   H3373     1.0  0.35985  0.36329  0.86098  1.0000
  H   H3374     1.0  0.36433  0.36837  0.87908  1.0000
  C   C2132     1.0  0.35622  0.46562  0.81761  1.0000
  C   C2133     1.0  0.35580  0.45874  0.80922  1.0000
  C   C2134     1.0  0.36338  0.44693  0.80915  1.0000
  C   C2135     1.0  0.37189  0.44231  0.81697  1.0000
  C   C2136     1.0  0.37278  0.44951  0.82486  1.0000
  C   C2137     1.0  0.36469  0.46100  0.82546  1.0000
  H   H3375     1.0  0.39939  0.36532  0.77996  1.0000
  H   H3376     1.0  0.36279  0.44149  0.80290  1.0000
  H   H3377     1.0  0.37958  0.44608  0.83068  1.0000
  H   H3378     1.0  0.36515  0.46634  0.83186  1.0000
  C   C2138     1.0  0.35176  0.45049  0.88534  1.0000
  C   C2139     1.0  0.35801  0.43905  0.89101  1.0000
  C   C2140     1.0  0.35129  0.43026  0.89879  1.0000
  H   H3379     1.0  0.42123  0.62493  0.81117  1.0000
  H   H3380     1.0  0.44604  0.57348  0.81659  1.0000
  H   H3381     1.0  0.36017  0.60892  0.79297  1.0000
  H   H3382     1.0  0.36806  0.43689  0.88919  1.0000
  H   H3383     1.0  0.35616  0.42140  0.90303  1.0000
  H   H3384     1.0  0.40145  0.38640  0.75220  1.0000
  H   H3385     1.0  0.36047  0.55644  0.84716  1.0000
  C   C2141     1.0  0.35069  0.52899  0.85315  1.0000
  C   C2142     1.0  0.35830  0.52200  0.86139  1.0000
  C   C2143     1.0  0.36648  0.52750  0.86468  1.0000
  C   C2144     1.0  0.36733  0.53995  0.85959  1.0000
  C   C2145     1.0  0.35998  0.54683  0.85107  1.0000
  C   C2146     1.0  0.35163  0.54140  0.84796  1.0000
  H   H3386     1.0  0.53179  0.60554  0.89222  1.0000
  H   H3387     1.0  0.37210  0.52209  0.87130  1.0000
  H   H3388     1.0  0.34795  0.51455  0.81086  1.0000
  Fe  Fe438     1.0  0.40794  0.63518  0.76695  1.0000
  C   C2147     1.0  0.38525  0.37107  0.96169  1.0000
  C   C2148     1.0  0.38134  0.35981  0.96454  1.0000
  C   C2149     1.0  0.37367  0.35782  0.95767  1.0000
  C   C2150     1.0  0.36955  0.36718  0.94813  1.0000
  C   C2151     1.0  0.37371  0.37834  0.94500  1.0000
  C   C2152     1.0  0.38167  0.38022  0.95171  1.0000
  H   H3389     1.0  0.38425  0.35261  0.97204  1.0000
  H   H3390     1.0  0.37067  0.34908  0.95998  1.0000
  H   H3391     1.0  0.36489  0.62815  0.81857  1.0000
  H   H3392     1.0  0.35456  0.63574  0.80811  1.0000
  C   C2153     1.0  0.35480  0.38079  0.97779  1.0000
  H   H3393     1.0  0.41378  0.36391  0.79919  1.0000
  H   H3394     1.0  0.41193  0.64310  0.87999  1.0000
  H   H3395     1.0  0.52217  0.62033  0.88739  1.0000
  C   C2154     1.0  0.36589  0.41577  0.86897  1.0000
  C   C2155     1.0  0.40177  0.54440  0.88386  1.0000
  Fe  Fe439     1.0  0.37994  0.64321  0.77042  1.0000
  H   H3396     1.0  0.40117  0.64620  0.83140  1.0000
  C   C2156     1.0  0.36862  0.43594  0.85697  1.0000
  H   H3397     1.0  0.40208  0.62978  0.83444  1.0000
  H   H3398     1.0  0.38247  0.61081  0.80189  1.0000
  H   H3399     1.0  0.40243  0.37697  0.79384  1.0000
  H   H3400     1.0  0.50243  0.65316  0.81321  1.0000
  H   H3401     1.0  0.63491  0.63582  0.85103  1.0000
  H   H3402     1.0  0.36877  0.43856  0.86563  1.0000
  H   H3403     1.0  0.34242  0.42401  0.86597  1.0000
  H   H3404     1.0  0.44007  0.58926  0.81810  1.0000
  C   C2157     1.0  0.36331  0.62882  0.80919  1.0000
  N   N214      1.0  0.42471  0.64980  0.86372  1.0000
  H   H3405     1.0  0.41354  0.35210  0.90676  1.0000
  C   C2158     1.0  0.38317  0.55824  0.89169  1.0000
  H   H3406     1.0  0.35188  0.53232  0.82489  1.0000
  S   S878      1.0  0.40883  0.62063  0.75631  1.0000
  H   H3407     1.0  0.34949  0.46243  0.80292  1.0000
  H   H3408     1.0  0.42867  0.58234  0.83881  1.0000
  H   H3409     1.0  0.35737  0.37958  0.96807  1.0000
  H   H3410     1.0  0.37795  0.51686  0.82595  1.0000
  H   H3411     1.0  0.40278  0.55491  0.90196  1.0000
  H   H3412     1.0  0.41598  0.63595  0.82844  1.0000
  H   H3413     1.0  0.41034  0.62721  0.80147  1.0000
  H   H3414     1.0  0.37421  0.50203  0.82744  1.0000
  C   C2159     1.0  0.39184  0.37383  0.74898  1.0000
  H   H3415     1.0  0.39252  0.34155  0.80854  1.0000
  H   H3416     1.0  0.45989  0.59055  0.83172  1.0000
  H   H3417     1.0  0.53866  0.61827  0.88279  1.0000
  H   H3418     1.0  0.35367  0.61082  0.82616  1.0000
  C   C2160     1.0  0.61671  0.63465  0.84954  1.0000
  H   H3419     1.0  0.38596  0.64911  0.81843  1.0000
  H   H3420     1.0  0.35782  0.41415  0.84944  1.0000
  C   C2161     1.0  0.37444  0.60774  0.80879  1.0000
  H   H3421     1.0  0.33929  0.37270  0.84859  1.0000
  H   H3422     1.0  0.34328  0.61841  0.81579  1.0000
  S   S879      1.0  0.42268  0.64152  0.77266  1.0000
  H   H3423     1.0  0.41292  0.63998  0.85958  1.0000
  C   C2162     1.0  0.43657  0.57452  0.84053  1.0000
  H   H3424     1.0  0.62003  0.65210  0.90150  1.0000
  H   H3425     1.0  0.36819  0.62147  0.78760  1.0000
  H   H3426     1.0  0.39780  0.54368  0.87617  1.0000
  C   C2163     1.0  0.39763  0.54716  0.90486  1.0000
  N   N215      1.0  0.39622  0.35966  0.79973  1.0000
  C   C2164     1.0  0.40369  0.36811  0.80078  1.0000
  C   C2165     1.0  0.38295  0.36573  0.80178  1.0000
  C   C2166     1.0  0.39802  0.34813  0.80914  1.0000
  C   C2167     1.0  0.40016  0.35674  0.78725  1.0000
  C   C2168     1.0  0.43788  0.65095  0.86011  1.0000
  H   H3427     1.0  0.35352  0.35749  0.97638  1.0000
  H   H3428     1.0  0.42957  0.61480  0.78221  1.0000
  H   H3429     1.0  0.39148  0.52710  0.90124  1.0000
  H   H3430     1.0  0.66391  0.61434  0.86956  1.0000
  C   C2169     1.0  0.45081  0.58818  0.83692  1.0000
  H   H3431     1.0  0.39497  0.35007  0.81866  1.0000
  H   H3432     1.0  0.35177  0.62463  0.79329  1.0000
  H   H3433     1.0  0.40690  0.55214  0.88042  1.0000
  C   C2170     1.0  0.41116  0.62682  0.81108  1.0000
  Fe  Fe440     1.0  0.34028  0.40251  0.91060  1.0000
  H   H3434     1.0  0.37093  0.63270  0.80233  1.0000
  H   H3435     1.0  0.39839  0.37213  0.74058  1.0000
  C   C2171     1.0  0.39130  0.64060  0.81495  1.0000
  H   H3436     1.0  0.59911  0.63856  0.89106  1.0000
  H   H3437     1.0  0.35030  0.38629  0.75462  1.0000
  N   N216      1.0  0.40461  0.63849  0.81521  1.0000
  H   H3438     1.0  0.34573  0.54692  0.84164  1.0000
  S   S880      1.0  0.33987  0.52269  0.84905  1.0000
  H   H3439     1.0  0.45650  0.58385  0.81395  1.0000
  N   N217      1.0  0.53151  0.61966  0.90183  1.0000
  C   C2172     1.0  0.54343  0.61348  0.90566  1.0000
  C   C2173     1.0  0.53101  0.61573  0.89061  1.0000
  C   C2174     1.0  0.53048  0.63322  0.89915  1.0000
  C   C2175     1.0  0.52111  0.61629  0.91189  1.0000
  H   H3440     1.0  0.54424  0.61647  0.91394  1.0000
  H   H3441     1.0  0.55148  0.61583  0.89826  1.0000
  H   H3442     1.0  0.54455  0.60323  0.90786  1.0000
  H   H3443     1.0  0.35354  0.53495  0.80849  1.0000
  H   H3444     1.0  0.36608  0.53578  0.81505  1.0000
  H   H3445     1.0  0.33722  0.37456  0.97011  1.0000
  H   H3446     1.0  0.60705  0.62365  0.91544  1.0000
  H   H3447     1.0  0.42766  0.63457  0.87894  1.0000
  H   H3448     1.0  0.53102  0.63658  0.90731  1.0000
  H   H3449     1.0  0.51199  0.62087  0.90927  1.0000
  H   H3450     1.0  0.52122  0.61918  0.92046  1.0000
  H   H3451     1.0  0.52157  0.60611  0.91416  1.0000
  H   H3452     1.0  0.37608  0.50547  0.80487  1.0000
  Fe  Fe441     1.0  0.33861  0.50230  0.85320  1.0000
  Fe  Fe442     1.0  0.34172  0.48295  0.83792  1.0000
  H   H3453     1.0  0.36355  0.37834  0.98137  1.0000
  C   C2176     1.0  0.36297  0.42169  0.84793  1.0000
  H   H3454     1.0  0.34430  0.39238  0.84980  1.0000
  H   H3455     1.0  0.38078  0.53552  0.89139  1.0000
  C   C2177     1.0  0.61259  0.65111  0.89727  1.0000
  Fe  Fe443     1.0  0.59277  0.65084  0.97440  1.0000
  Fe  Fe444     1.0  0.34763  0.47506  0.86335  1.0000
  H   H3456     1.0  0.37291  0.41791  0.84430  1.0000
  H   H3457     1.0  0.34666  0.43480  0.87235  1.0000
  H   H3458     1.0  0.53815  0.63599  0.89158  1.0000
  C   C2178     1.0  0.34811  0.43122  0.86380  1.0000
  C   C2179     1.0  0.45866  0.56686  0.83501  1.0000
  H   H3459     1.0  0.46774  0.56898  0.82948  1.0000
  H   H3460     1.0  0.61729  0.64751  0.88869  1.0000
  H   H3461     1.0  0.38993  0.64174  0.80540  1.0000
  H   H3462     1.0  0.39047  0.54881  0.91327  1.0000
  H   H3463     1.0  0.43648  0.57234  0.85061  1.0000
  H   H3464     1.0  0.45943  0.56401  0.84489  1.0000
  H   H3465     1.0  0.41990  0.64784  0.80714  1.0000
  H   H3466     1.0  0.61763  0.62648  0.90083  1.0000
  H   H3467     1.0  0.37699  0.35978  0.80082  1.0000
  H   H3468     1.0  0.34643  0.51213  0.82723  1.0000
  H   H3469     1.0  0.45716  0.55878  0.83217  1.0000
  H   H3470     1.0  0.44356  0.59666  0.83508  1.0000
  S   S881      1.0  0.34244  0.39570  0.89330  1.0000
  H   H3471     1.0  0.58947  0.63479  0.90596  1.0000
  H   H3472     1.0  0.34021  0.37658  0.86873  1.0000
  S   S882      1.0  0.39231  0.62960  0.78212  1.0000
  N   N218      1.0  0.36139  0.42616  0.85941  1.0000
  H   H3473     1.0  0.35965  0.42929  0.84050  1.0000
  H   H3474     1.0  0.48635  0.65434  0.82046  1.0000
  C   C2180     1.0  0.42184  0.64404  0.87698  1.0000
  S   S883      1.0  0.38887  0.65131  0.85880  1.0000
  H   H3475     1.0  0.58848  0.65063  0.89802  1.0000
  H   H3476     1.0  0.37599  0.41201  0.86618  1.0000
  S   S884      1.0  0.65869  0.64453  0.84941  1.0000
  H   H3477     1.0  0.40950  0.64960  0.79709  1.0000
  H   H3478     1.0  0.52167  0.63828  0.89610  1.0000
  C   C2181     1.0  0.36055  0.61797  0.79478  1.0000
  H   H3479     1.0  0.36393  0.51313  0.83595  1.0000
  H   H3480     1.0  0.40433  0.53845  0.90748  1.0000
  H   H3481     1.0  0.38134  0.37456  0.79497  1.0000
  H   H3482     1.0  0.35767  0.51246  0.86546  1.0000
  H   H3483     1.0  0.35694  0.37622  0.74384  1.0000
  H   H3484     1.0  0.39432  0.35090  0.78585  1.0000
  N   N219      1.0  0.39464  0.36016  0.91397  1.0000
  C   C2182     1.0  0.38699  0.37260  0.91483  1.0000
  C   C2183     1.0  0.38937  0.35427  0.90689  1.0000
  C   C2184     1.0  0.39463  0.35253  0.92654  1.0000
  C   C2185     1.0  0.40747  0.36132  0.90761  1.0000
  C   C2186     1.0  0.61264  0.63036  0.90918  1.0000
  H   H3485     1.0  0.39063  0.37738  0.92011  1.0000
  H   H3486     1.0  0.37730  0.37199  0.91964  1.0000
  H   H3487     1.0  0.39511  0.34501  0.90568  1.0000
  H   H3488     1.0  0.37982  0.35293  0.91168  1.0000
  H   H3489     1.0  0.38872  0.36008  0.89752  1.0000
  H   H3490     1.0  0.39810  0.35694  0.93232  1.0000
  H   H3491     1.0  0.40054  0.34314  0.92632  1.0000
  H   H3492     1.0  0.38508  0.35128  0.93145  1.0000
  H   H3493     1.0  0.41167  0.36577  0.91272  1.0000
  H   H3494     1.0  0.40771  0.36708  0.89811  1.0000
  H   H3495     1.0  0.37643  0.60648  0.81810  1.0000
  H   H3496     1.0  0.40736  0.61873  0.81713  1.0000
  H   H3497     1.0  0.42889  0.63277  0.85726  1.0000
  H   H3498     1.0  0.36450  0.41867  0.87790  1.0000
  C   C2187     1.0  0.36748  0.39632  0.73700  1.0000
  C   C2188     1.0  0.35067  0.38525  0.74509  1.0000
  H   H3499     1.0  0.60589  0.64931  0.92152  1.0000
  H   H3500     1.0  0.49793  0.64369  0.82801  1.0000
  C   C2189     1.0  0.49580  0.65308  0.82224  1.0000
  S   S885      1.0  0.61069  0.65635  0.96380  1.0000
  C   C2190     1.0  0.40996  0.64893  0.80688  1.0000
  H   H3501     1.0  0.42353  0.64963  0.88284  1.0000
  H   H3502     1.0  0.35094  0.39081  0.97765  1.0000
  C   C2191     1.0  0.59505  0.64163  0.89997  1.0000
  C   C2192     1.0  0.33877  0.45329  0.88781  1.0000
  H   H3503     1.0  0.51239  0.65167  0.83574  1.0000
  H   H3504     1.0  0.44417  0.64175  0.86189  1.0000
  H   H3505     1.0  0.42353  0.64638  0.84643  1.0000
  C   C2193     1.0  0.35160  0.35982  0.98565  1.0000
  H   H3506     1.0  0.36737  0.39751  0.74641  1.0000
  H   H3507     1.0  0.49029  0.65259  0.84655  1.0000
  S   S886      1.0  0.36186  0.65466  0.77840  1.0000
  C   C2194     1.0  0.34631  0.40737  0.73748  1.0000
  C   C2195     1.0  0.56441  0.65771  0.93174  1.0000
  C   C2196     1.0  0.56032  0.65642  0.91221  1.0000
  H   H3508     1.0  0.59222  0.65665  0.91529  1.0000
  H   H3509     1.0  0.37128  0.65412  0.84327  1.0000
  C   C2197     1.0  0.63041  0.65816  0.92541  1.0000
  S   S887      1.0  0.55991  0.65497  0.85103  1.0000
  H   H3510     1.0  0.44044  0.65508  0.85012  1.0000
  H   H3511     1.0  0.35751  0.65647  0.74224  1.0000
  S   S888      1.0  0.33611  0.46833  0.85417  1.0000
  H   H3512     1.0  0.33388  0.46214  0.88353  1.0000
  H   H3513     1.0  0.33683  0.40718  0.73659  1.0000
  C   C2198     1.0  0.33473  0.37618  0.97976  1.0000
  H   H3514     1.0  0.40497  0.65796  0.80945  1.0000
  C   C2199     1.0  0.36679  0.65848  0.74147  1.0000
  S   S889      1.0  0.54580  0.65811  0.87924  1.0000
  H   H3515     1.0  0.43988  0.65695  0.86537  1.0000
  C   C2200     1.0  0.33418  0.39648  0.85155  1.0000
  H   H3516     1.0  0.43650  0.65810  0.82915  1.0000
  H   H3517     1.0  0.38850  0.90236  0.10649  1.0000
  H   H3518     1.0  0.36916  0.92357  0.11650  1.0000
  Fe  Fe445     1.0  0.35117  0.97723  0.08103  1.0000
  S   S890      1.0  0.35160  0.97393  0.06232  1.0000
  Fe  Fe446     1.0  0.36463  0.96949  0.10218  1.0000
  S   S891      1.0  0.38212  0.96045  0.10914  1.0000
  H   H3519     1.0  0.33702  0.87166  0.07592  1.0000
  S   S892      1.0  0.35212  0.89068  0.04940  1.0000
  Fe  Fe447     1.0  0.37505  0.91017  0.05094  1.0000
  S   S893      1.0  0.37940  0.88933  0.05548  1.0000
  S   S894      1.0  0.38614  0.92222  0.05453  1.0000
  Fe  Fe448     1.0  0.37170  0.89034  0.03868  1.0000
  S   S895      1.0  0.38078  0.88027  0.02269  1.0000
  Fe  Fe449     1.0  0.35955  0.89147  0.06569  1.0000
  S   S896      1.0  0.35240  0.88275  0.08551  1.0000
  S   S897      1.0  0.36948  0.91110  0.03325  1.0000
  S   S898      1.0  0.35567  0.91216  0.06203  1.0000
  Fe  Fe450     1.0  0.36527  0.88362  0.17300  1.0000
  S   S899      1.0  0.37175  0.87108  0.19006  1.0000
  Fe  Fe451     1.0  0.36820  0.89005  0.14482  1.0000
  S   S900      1.0  0.37964  0.88443  0.12709  1.0000
  Fe  Fe452     1.0  0.36264  0.91027  0.15954  1.0000
  H   H3520     1.0  0.40632  0.86220  0.16128  1.0000
  S   S901      1.0  0.37806  0.89375  0.15788  1.0000
  S   S902      1.0  0.35665  0.87822  0.15983  1.0000
  S   S903      1.0  0.40756  0.88850  0.21423  1.0000
  H   H3521     1.0  0.61001  0.69958  0.99054  1.0000
  C   C2201     1.0  0.38190  0.87562  0.19680  1.0000
  C   C2202     1.0  0.38066  0.87294  0.20971  1.0000
  C   C2203     1.0  0.38852  0.87666  0.21527  1.0000
  C   C2204     1.0  0.39792  0.88277  0.20791  1.0000
  C   C2205     1.0  0.39942  0.88502  0.19500  1.0000
  C   C2206     1.0  0.39134  0.88168  0.18947  1.0000
  H   H3522     1.0  0.37346  0.86815  0.21547  1.0000
  Fe  Fe453     1.0  0.35042  0.91128  0.04481  1.0000
  H   H3523     1.0  0.40682  0.88954  0.18923  1.0000
  H   H3524     1.0  0.39250  0.88376  0.17953  1.0000
  C   C2207     1.0  0.37353  0.87320  0.01497  1.0000
  C   C2208     1.0  0.37876  0.87217  0.00262  1.0000
  C   C2209     1.0  0.60596  0.67792  0.00532  1.0000
  C   C2210     1.0  0.36244  0.86210  0.00201  1.0000
  C   C2211     1.0  0.35731  0.86300  0.01442  1.0000
  C   C2212     1.0  0.36281  0.86850  0.02086  1.0000
  H   H3525     1.0  0.38715  0.87563  0.99801  1.0000
  H   H3526     1.0  0.37626  0.90793  0.08997  1.0000
  H   H3527     1.0  0.34906  0.85933  0.01909  1.0000
  H   H3528     1.0  0.35888  0.86891  0.03045  1.0000
  C   C2213     1.0  0.35994  0.88388  0.09682  1.0000
  C   C2214     1.0  0.35301  0.88530  0.10863  1.0000
  C   C2215     1.0  0.35892  0.88568  0.11794  1.0000
  C   C2216     1.0  0.37184  0.88426  0.11559  1.0000
  C   C2217     1.0  0.37876  0.88276  0.10381  1.0000
  C   C2218     1.0  0.37282  0.88277  0.09441  1.0000
  H   H3529     1.0  0.35129  0.90217  0.98952  1.0000
  H   H3530     1.0  0.35348  0.88685  0.12697  1.0000
  H   H3531     1.0  0.38876  0.88154  0.10193  1.0000
  H   H3532     1.0  0.37826  0.88152  0.08538  1.0000
  C   C2219     1.0  0.37171  0.93619  0.14685  1.0000
  C   C2220     1.0  0.38296  0.94025  0.14349  1.0000
  C   C2221     1.0  0.38640  0.94727  0.13166  1.0000
  C   C2222     1.0  0.37835  0.95065  0.12340  1.0000
  C   C2223     1.0  0.36709  0.94661  0.12676  1.0000
  H   H3533     1.0  0.39199  0.92620  0.18795  1.0000
  H   H3534     1.0  0.38909  0.93780  0.14997  1.0000
  H   H3535     1.0  0.39515  0.95033  0.12903  1.0000
  H   H3536     1.0  0.35941  0.91335  0.00078  1.0000
  N   N220      1.0  0.39258  0.85192  0.16187  1.0000
  C   C2224     1.0  0.36184  0.96005  0.05939  1.0000
  C   C2225     1.0  0.37207  0.95520  0.06509  1.0000
  C   C2226     1.0  0.37985  0.94386  0.06307  1.0000
  C   C2227     1.0  0.37710  0.93702  0.05586  1.0000
  C   C2228     1.0  0.36693  0.94191  0.05009  1.0000
  C   C2229     1.0  0.35953  0.95356  0.05159  1.0000
  H   H3537     1.0  0.37413  0.96033  0.07084  1.0000
  H   H3538     1.0  0.38793  0.94029  0.06721  1.0000
  H   H3539     1.0  0.36491  0.93681  0.04429  1.0000
  H   H3540     1.0  0.35446  0.88854  0.00100  1.0000
  H   H3541     1.0  0.59737  0.68177  0.01154  1.0000
  H   H3542     1.0  0.39930  0.91170  0.09717  1.0000
  H   H3543     1.0  0.41071  0.84241  0.15425  1.0000
  C   C2230     1.0  0.37322  0.86673  0.99614  1.0000
  H   H3544     1.0  0.40409  0.83511  0.16956  1.0000
  C   C2231     1.0  0.59475  0.67765  0.99010  1.0000
  H   H3545     1.0  0.36189  0.89983  0.01265  1.0000
  H   H3546     1.0  0.36085  0.94917  0.12039  1.0000
  H   H3547     1.0  0.35841  0.93240  0.20196  1.0000
  S   S904      1.0  0.35412  0.95971  0.09505  1.0000
  H   H3548     1.0  0.61393  0.68064  0.00720  1.0000
  H   H3549     1.0  0.37579  0.94030  0.09091  1.0000
  H   H3550     1.0  0.58574  0.68093  0.99609  1.0000
  H   H3551     1.0  0.33895  0.95247  0.07754  1.0000
  H   H3552     1.0  0.39840  0.86121  0.14307  1.0000
  S   S905      1.0  0.34803  0.97705  0.11543  1.0000
  H   H3553     1.0  0.38513  0.92065  0.17836  1.0000
  H   H3554     1.0  0.60734  0.66767  0.00811  1.0000
  H   H3555     1.0  0.37195  0.93912  0.19549  1.0000
  H   H3556     1.0  0.39846  0.83424  0.15650  1.0000
  H   H3557     1.0  0.38259  0.84399  0.17961  1.0000
  H   H3558     1.0  0.37732  0.86605  0.98664  1.0000
  C   C2232     1.0  0.40188  0.84040  0.16049  1.0000
  H   H3559     1.0  0.35242  0.91402  0.01662  1.0000
  H   H3560     1.0  0.38304  0.86747  0.15036  1.0000
  H   H3561     1.0  0.37129  0.92390  0.08327  1.0000
  H   H3562     1.0  0.37378  0.85731  0.17140  1.0000
  S   S906      1.0  0.35402  0.90774  0.14496  1.0000
  H   H3563     1.0  0.37759  0.96996  0.13869  1.0000
  H   H3564     1.0  0.38604  0.85314  0.14537  1.0000
  H   H3565     1.0  0.36591  0.91163  0.11087  1.0000
  H   H3566     1.0  0.36327  0.97398  0.13349  1.0000
  H   H3567     1.0  0.39077  0.86866  0.16811  1.0000
  H   H3568     1.0  0.37704  0.84283  0.16657  1.0000
  H   H3569     1.0  0.33704  0.86330  0.09143  1.0000
  H   H3570     1.0  0.35513  0.93610  0.14101  1.0000
  C   C2233     1.0  0.38993  0.85868  0.14965  1.0000
  H   H3571     1.0  0.38730  0.87480  0.22522  1.0000
  N   N221      1.0  0.37533  0.91938  0.19728  1.0000
  H   H3572     1.0  0.37430  0.90050  0.19873  1.0000
  H   H3573     1.0  0.64913  0.66136  0.09748  1.0000
  N   N222      1.0  0.38012  0.92085  0.09869  1.0000
  C   C2234     1.0  0.36729  0.93180  0.19503  1.0000
  H   H3574     1.0  0.38436  0.90732  0.21164  1.0000
  C   C2235     1.0  0.38310  0.93333  0.09517  1.0000
  C   C2236     1.0  0.39749  0.85981  0.16717  1.0000
  H   H3575     1.0  0.37206  0.98669  0.11346  1.0000
  H   H3576     1.0  0.39339  0.90994  0.18945  1.0000
  C   C2237     1.0  0.38102  0.84883  0.17020  1.0000
  N   N223      1.0  0.34372  0.90448  0.00828  1.0000
  H   H3577     1.0  0.39145  0.91422  0.11241  1.0000
  H   H3578     1.0  0.36054  0.92765  0.10438  1.0000
  S   S907      1.0  0.35030  0.90043  0.17536  1.0000
  S   S908      1.0  0.36346  0.98636  0.08703  1.0000
  H   H3579     1.0  0.36493  0.93405  0.18571  1.0000
  H   H3580     1.0  0.36696  0.91137  0.18707  1.0000
  C   C2238     1.0  0.36385  0.93921  0.13843  1.0000
  Fe  Fe454     1.0  0.34293  0.89619  0.16073  1.0000
  H   H3581     1.0  0.39920  0.85522  0.17660  1.0000
  H   H3582     1.0  0.38744  0.91682  0.08049  1.0000
  C   C2239     1.0  0.38696  0.91905  0.18783  1.0000
  C   C2240     1.0  0.33449  0.91573  0.00470  1.0000
  C   C2241     1.0  0.35484  0.90809  0.00963  1.0000
  C   C2242     1.0  0.36897  0.97717  0.13820  1.0000
  H   H3583     1.0  0.38398  0.93646  0.10331  1.0000
  C   C2243     1.0  0.37828  0.91665  0.20969  1.0000
  H   H3584     1.0  0.34508  0.88886  0.02338  1.0000
  C   C2244     1.0  0.36877  0.91001  0.19651  1.0000
  C   C2245     1.0  0.37871  0.91722  0.08765  1.0000
  H   H3585     1.0  0.38332  0.92347  0.21061  1.0000
  H   H3586     1.0  0.34304  0.88615  0.11059  1.0000
  H   H3587     1.0  0.36975  0.91675  0.21708  1.0000
  C   C2246     1.0  0.39031  0.91190  0.10392  1.0000
  C   C2247     1.0  0.36841  0.92094  0.10802  1.0000
  S   S909      1.0  0.36750  0.92739  0.16158  1.0000
  H   H3588     1.0  0.39201  0.93354  0.08833  1.0000
  S   S910      1.0  0.35485  0.85535  0.99434  1.0000
  H   H3589     1.0  0.35970  0.91032  0.20313  1.0000
  C   C2248     1.0  0.37821  0.98861  0.11865  1.0000
  H   H3590     1.0  0.38893  0.98610  0.13770  1.0000
  H   H3591     1.0  0.59358  0.69990  0.99469  1.0000
  H   H3592     1.0  0.35192  0.95742  0.04681  1.0000
  H   H3593     1.0  0.34061  0.94027  0.06205  1.0000
  N   N224      1.0  0.60500  0.68217  0.99219  1.0000
  H   H3594     1.0  0.59646  0.66735  0.99208  1.0000
  C   C2249     1.0  0.60248  0.69586  0.98903  1.0000
  H   H3595     1.0  0.36377  0.97744  0.14782  1.0000
  C   C2250     1.0  0.34729  0.89692  0.99868  1.0000
  H   H3596     1.0  0.38663  0.98105  0.11828  1.0000
  S   S911      1.0  0.33443  0.92387  0.03706  1.0000
  N   N225      1.0  0.37182  0.98937  0.13151  1.0000
  H   H3597     1.0  0.33445  0.88372  0.14431  1.0000
  H   H3598     1.0  0.65007  0.66713  0.11044  1.0000
  H   H3599     1.0  0.33925  0.89366  0.99762  1.0000
  Fe  Fe455     1.0  0.33717  0.96877  0.10685  1.0000
  C   C2251     1.0  0.33824  0.89718  0.02018  1.0000
  H   H3600     1.0  0.33832  0.92150  0.99579  1.0000
  S   S912      1.0  0.60048  0.66374  0.21908  1.0000
  Fe  Fe456     1.0  0.40796  0.88608  0.23462  1.0000
  H   H3601     1.0  0.33520  0.90269  0.02757  1.0000
  C   C2252     1.0  0.65514  0.88399  0.42397  1.0000
  Fe  Fe457     1.0  0.47229  0.88673  0.30356  1.0000
  S   S913      1.0  0.45726  0.87954  0.31841  1.0000
  S   S914      1.0  0.46528  0.89739  0.28625  1.0000
  Fe  Fe458     1.0  0.49188  0.87627  0.31997  1.0000
  S   S915      1.0  0.47791  0.86852  0.33589  1.0000
  S   S916      1.0  0.51133  0.86933  0.32401  1.0000
  Fe  Fe459     1.0  0.47175  0.86242  0.32172  1.0000
  S   S917      1.0  0.46781  0.84363  0.32390  1.0000
  Fe  Fe460     1.0  0.46503  0.88648  0.33086  1.0000
  S   S918      1.0  0.45209  0.89578  0.34570  1.0000
  S   S919      1.0  0.48638  0.86893  0.30595  1.0000
  S   S920      1.0  0.47931  0.89497  0.31590  1.0000
  C   C2253     1.0  0.61902  0.86567  0.38834  1.0000
  S   S921      1.0  0.39176  0.89462  0.24787  1.0000
  Fe  Fe461     1.0  0.42463  0.87746  0.25393  1.0000
  S   S922      1.0  0.40966  0.88504  0.26855  1.0000
  S   S923      1.0  0.44255  0.86758  0.26032  1.0000
  Fe  Fe462     1.0  0.39712  0.87732  0.26163  1.0000
  S   S924      1.0  0.38249  0.86865  0.27589  1.0000
  Fe  Fe463     1.0  0.40570  0.90163  0.25367  1.0000
  S   S925      1.0  0.40221  0.92102  0.25698  1.0000
  S   S926      1.0  0.41238  0.86810  0.24810  1.0000
  H   H3602     1.0  0.35387  0.87204  0.31583  1.0000
  Fe  Fe464     1.0  0.37061  0.95363  0.33717  1.0000
  S   S927      1.0  0.38118  0.95237  0.31785  1.0000
  S   S928      1.0  0.35823  0.97170  0.34116  1.0000
  Fe  Fe465     1.0  0.37797  0.92603  0.34671  1.0000
  S   S929      1.0  0.38946  0.92245  0.32850  1.0000
  S   S930      1.0  0.37549  0.90976  0.36228  1.0000
  Fe  Fe466     1.0  0.39604  0.93967  0.32738  1.0000
  S   S931      1.0  0.41601  0.94015  0.31897  1.0000
  Fe  Fe467     1.0  0.37365  0.93527  0.32072  1.0000
  S   S932      1.0  0.36618  0.92891  0.30758  1.0000
  S   S933      1.0  0.38613  0.94214  0.34654  1.0000
  S   S934      1.0  0.36159  0.93766  0.33906  1.0000
  Fe  Fe468     1.0  0.37915  0.84874  0.34551  1.0000
  S   S935      1.0  0.39912  0.84753  0.33615  1.0000
  S   S936      1.0  0.36728  0.86753  0.34002  1.0000
  Fe  Fe469     1.0  0.38339  0.82148  0.35839  1.0000
  S   S937      1.0  0.40381  0.81833  0.35005  1.0000
  S   S938      1.0  0.37712  0.80465  0.37138  1.0000
  Fe  Fe470     1.0  0.40306  0.83658  0.35442  1.0000
  S   S939      1.0  0.41713  0.84135  0.36211  1.0000
  Fe  Fe471     1.0  0.39774  0.82952  0.33269  1.0000
  S   S940      1.0  0.40648  0.82463  0.31416  1.0000
  S   S941      1.0  0.38312  0.83905  0.36424  1.0000
  S   S942      1.0  0.37736  0.83140  0.34061  1.0000
  H   H3603     1.0  0.41034  0.92737  0.30274  1.0000
  H   H3604     1.0  0.65483  0.83251  0.34730  1.0000
  H   H3605     1.0  0.59942  0.75399  0.29055  1.0000
  H   H3606     1.0  0.60316  0.76045  0.30165  1.0000
  H   H3607     1.0  0.66050  0.78161  0.34698  1.0000
  H   H3608     1.0  0.36381  0.70451  0.33320  1.0000
  Fe  Fe472     1.0  0.37214  0.72773  0.37084  1.0000
  S   S943      1.0  0.39279  0.72209  0.36818  1.0000
  C   C2254     1.0  0.64952  0.81558  0.37655  1.0000
  S   S944      1.0  0.36223  0.74224  0.38192  1.0000
  S   S945      1.0  0.36964  0.67906  0.43948  1.0000
  H   H3609     1.0  0.40777  0.91759  0.29388  1.0000
  Fe  Fe473     1.0  0.61127  0.79606  0.39269  1.0000
  S   S946      1.0  0.61149  0.81108  0.37580  1.0000
  S   S947      1.0  0.60330  0.80319  0.41051  1.0000
  Fe  Fe474     1.0  0.62035  0.77561  0.37737  1.0000
  S   S948      1.0  0.62162  0.78935  0.35938  1.0000
  S   S949      1.0  0.62503  0.75486  0.37754  1.0000
  Fe  Fe475     1.0  0.62974  0.79993  0.36837  1.0000
  Fe  Fe476     1.0  0.60336  0.79931  0.36833  1.0000
  S   S950      1.0  0.58893  0.80865  0.35701  1.0000
  S   S951      1.0  0.63033  0.78536  0.38579  1.0000
  S   S952      1.0  0.60136  0.78505  0.38586  1.0000
  Fe  Fe477     1.0  0.61443  0.86073  0.46311  1.0000
  S   S953      1.0  0.60062  0.87701  0.45544  1.0000
  Fe  Fe478     1.0  0.61998  0.84915  0.44011  1.0000
  S   S954      1.0  0.60733  0.86482  0.43048  1.0000
  S   S955      1.0  0.63128  0.83424  0.42954  1.0000
  Fe  Fe479     1.0  0.61476  0.87727  0.43780  1.0000
  S   S956      1.0  0.61839  0.89510  0.42516  1.0000
  Fe  Fe480     1.0  0.59422  0.86317  0.44875  1.0000
  S   S957      1.0  0.57432  0.86447  0.44800  1.0000
  S   S958      1.0  0.62904  0.86179  0.44558  1.0000
  S   S959      1.0  0.60648  0.84662  0.45823  1.0000
  S   S960      1.0  0.64066  0.89697  0.36306  1.0000
  Fe  Fe481     1.0  0.55402  0.88636  0.35919  1.0000
  S   S961      1.0  0.54607  0.88118  0.37945  1.0000
  S   S962      1.0  0.54064  0.89654  0.34630  1.0000
  Fe  Fe482     1.0  0.58083  0.87540  0.36272  1.0000
  S   S963      1.0  0.57482  0.86872  0.38304  1.0000
  S   S964      1.0  0.60149  0.87020  0.35493  1.0000
  Fe  Fe483     1.0  0.55937  0.86322  0.37828  1.0000
  S   S965      1.0  0.55366  0.84559  0.38909  1.0000
  Fe  Fe484     1.0  0.56212  0.88724  0.38255  1.0000
  S   S966      1.0  0.55987  0.89712  0.39798  1.0000
  S   S967      1.0  0.56657  0.86778  0.35784  1.0000
  S   S968      1.0  0.56895  0.89450  0.36236  1.0000
  H   H3610     1.0  0.34114  0.88512  0.31440  1.0000
  N   N226      1.0  0.65866  0.76397  0.35908  1.0000
  S   S969      1.0  0.52798  0.68730  0.33308  1.0000
  C   C2255     1.0  0.60503  0.91187  0.39896  1.0000
  S   S970      1.0  0.55157  0.67505  0.26847  1.0000
  H   H3611     1.0  0.40111  0.80359  0.33327  1.0000
  H   H3612     1.0  0.35029  0.66119  0.40413  1.0000
  C   C2256     1.0  0.38945  0.70551  0.34284  1.0000
  Fe  Fe485     1.0  0.59457  0.70446  0.32216  1.0000
  S   S971      1.0  0.61327  0.70380  0.32554  1.0000
  S   S972      1.0  0.59015  0.71058  0.30317  1.0000
  Fe  Fe486     1.0  0.58402  0.69616  0.34930  1.0000
  S   S973      1.0  0.60185  0.69507  0.35506  1.0000
  S   S974      1.0  0.56729  0.69000  0.36234  1.0000
  Fe  Fe487     1.0  0.60287  0.71322  0.34142  1.0000
  S   S975      1.0  0.60641  0.73222  0.34122  1.0000
  Fe  Fe488     1.0  0.61051  0.68590  0.33869  1.0000
  H   H3613     1.0  0.55214  0.85372  0.41121  1.0000
  S   S976      1.0  0.58416  0.71487  0.33708  1.0000
  S   S977      1.0  0.59263  0.68584  0.33395  1.0000
  C   C2257     1.0  0.60420  0.67828  0.28302  1.0000
  C   C2258     1.0  0.60823  0.67784  0.29375  1.0000
  C   C2259     1.0  0.60415  0.68787  0.29978  1.0000
  C   C2260     1.0  0.59614  0.69848  0.29500  1.0000
  C   C2261     1.0  0.59230  0.69908  0.28409  1.0000
  C   C2262     1.0  0.59623  0.68893  0.27816  1.0000
  H   H3614     1.0  0.61443  0.66970  0.29750  1.0000
  H   H3615     1.0  0.60729  0.68739  0.30809  1.0000
  H   H3616     1.0  0.58613  0.70730  0.28034  1.0000
  H   H3617     1.0  0.37809  0.78242  0.32687  1.0000
  H   H3618     1.0  0.34646  0.88879  0.29151  1.0000
  H   H3619     1.0  0.55096  0.66939  0.30790  1.0000
  H   H3620     1.0  0.34900  0.67275  0.36124  1.0000
  H   H3621     1.0  0.35132  0.69122  0.38144  1.0000
  C   C2263     1.0  0.43748  0.69568  0.36755  1.0000
  H   H3622     1.0  0.34067  0.76214  0.38490  1.0000
  C   C2264     1.0  0.53831  0.68861  0.34164  1.0000
  C   C2265     1.0  0.54591  0.69738  0.33680  1.0000
  C   C2266     1.0  0.55494  0.69779  0.34303  1.0000
  C   C2267     1.0  0.55586  0.68994  0.35450  1.0000
  C   C2268     1.0  0.54781  0.68166  0.35964  1.0000
  C   C2269     1.0  0.53930  0.68075  0.35307  1.0000
  H   H3623     1.0  0.54497  0.70374  0.32814  1.0000
  H   H3624     1.0  0.56100  0.70435  0.33910  1.0000
  H   H3625     1.0  0.66005  0.85247  0.43588  1.0000
  H   H3626     1.0  0.64902  0.78250  0.36087  1.0000
  C   C2270     1.0  0.62983  0.88954  0.36069  1.0000
  C   C2271     1.0  0.61709  0.89468  0.36342  1.0000
  C   C2272     1.0  0.60825  0.88883  0.36178  1.0000
  C   C2273     1.0  0.61217  0.87799  0.35703  1.0000
  C   C2274     1.0  0.62494  0.87300  0.35407  1.0000
  C   C2275     1.0  0.63372  0.87861  0.35611  1.0000
  H   H3627     1.0  0.61408  0.90325  0.36676  1.0000
  H   H3628     1.0  0.59845  0.89283  0.36394  1.0000
  H   H3629     1.0  0.62809  0.86474  0.35021  1.0000
  H   H3630     1.0  0.64353  0.87466  0.35384  1.0000
  C   C2276     1.0  0.57047  0.87331  0.43396  1.0000
  C   C2277     1.0  0.57770  0.87086  0.42260  1.0000
  C   C2278     1.0  0.57425  0.87780  0.41149  1.0000
  C   C2279     1.0  0.56372  0.88742  0.41170  1.0000
  C   C2280     1.0  0.55660  0.88989  0.42306  1.0000
  C   C2281     1.0  0.55982  0.88271  0.43414  1.0000
  H   H3631     1.0  0.58581  0.86347  0.42239  1.0000
  H   H3632     1.0  0.57999  0.87599  0.40279  1.0000
  H   H3633     1.0  0.54851  0.89735  0.42330  1.0000
  H   H3634     1.0  0.55416  0.88461  0.44289  1.0000
  C   C2282     1.0  0.63443  0.89347  0.42022  1.0000
  C   C2283     1.0  0.63941  0.89744  0.40775  1.0000
  C   C2284     1.0  0.65217  0.89416  0.40328  1.0000
  C   C2285     1.0  0.64231  0.88707  0.42840  1.0000
  H   H3635     1.0  0.63341  0.90246  0.40139  1.0000
  H   H3636     1.0  0.65587  0.89667  0.39350  1.0000
  H   H3637     1.0  0.63847  0.88431  0.43812  1.0000
  H   H3638     1.0  0.40569  0.78448  0.31772  1.0000
  C   C2286     1.0  0.61132  0.81173  0.41563  1.0000
  C   C2287     1.0  0.60472  0.81899  0.42437  1.0000
  C   C2288     1.0  0.61070  0.82605  0.42859  1.0000
  C   C2289     1.0  0.62345  0.82553  0.42441  1.0000
  C   C2290     1.0  0.63013  0.81806  0.41585  1.0000
  C   C2291     1.0  0.62405  0.81135  0.41129  1.0000
  H   H3639     1.0  0.59498  0.81902  0.42800  1.0000
  H   H3640     1.0  0.60550  0.83164  0.43532  1.0000
  H   H3641     1.0  0.64003  0.81747  0.41271  1.0000
  H   H3642     1.0  0.62925  0.80567  0.40466  1.0000
  C   C2292     1.0  0.57756  0.81778  0.36623  1.0000
  C   C2293     1.0  0.57750  0.81569  0.37883  1.0000
  C   C2294     1.0  0.56954  0.82387  0.38604  1.0000
  C   C2295     1.0  0.56185  0.83432  0.38057  1.0000
  C   C2296     1.0  0.56168  0.83632  0.36802  1.0000
  C   C2297     1.0  0.56942  0.82791  0.36086  1.0000
  H   H3643     1.0  0.58375  0.80789  0.38303  1.0000
  H   H3644     1.0  0.56979  0.82233  0.39571  1.0000
  H   H3645     1.0  0.55569  0.84442  0.36380  1.0000
  H   H3646     1.0  0.56947  0.82955  0.35111  1.0000
  C   C2298     1.0  0.61930  0.74861  0.36780  1.0000
  C   C2299     1.0  0.61383  0.75626  0.35812  1.0000
  C   C2300     1.0  0.60989  0.75104  0.35019  1.0000
  C   C2301     1.0  0.61116  0.73813  0.35192  1.0000
  C   C2302     1.0  0.61652  0.73047  0.36168  1.0000
  C   C2303     1.0  0.62066  0.73569  0.36950  1.0000
  H   H3647     1.0  0.61266  0.76620  0.35669  1.0000
  H   H3648     1.0  0.60577  0.75707  0.34269  1.0000
  H   H3649     1.0  0.61762  0.72052  0.36311  1.0000
  H   H3650     1.0  0.62487  0.72968  0.37695  1.0000
  H   H3651     1.0  0.39119  0.68154  0.34275  1.0000
  H   H3652     1.0  0.56948  0.69005  0.28407  1.0000
  C   C2304     1.0  0.38513  0.68840  0.33681  1.0000
  C   C2305     1.0  0.36036  0.70933  0.41335  1.0000
  C   C2306     1.0  0.36719  0.69899  0.42018  1.0000
  C   C2307     1.0  0.36124  0.69237  0.43124  1.0000
  S   S978      1.0  0.34789  0.77080  0.35830  1.0000
  H   H3653     1.0  0.36501  0.71441  0.40483  1.0000
  H   H3654     1.0  0.37705  0.69606  0.41682  1.0000
  C   C2308     1.0  0.39678  0.70749  0.37734  1.0000
  C   C2309     1.0  0.39084  0.69803  0.37768  1.0000
  C   C2310     1.0  0.39478  0.68602  0.38407  1.0000
  C   C2311     1.0  0.40438  0.68358  0.39047  1.0000
  C   C2312     1.0  0.40987  0.69318  0.39071  1.0000
  C   C2313     1.0  0.40624  0.70510  0.38391  1.0000
  H   H3655     1.0  0.38351  0.69993  0.37269  1.0000
  H   H3656     1.0  0.39046  0.67863  0.38394  1.0000
  H   H3657     1.0  0.41720  0.69132  0.39580  1.0000
  H   H3658     1.0  0.41071  0.71249  0.38378  1.0000
  C   C2314     1.0  0.36965  0.79545  0.36661  1.0000
  C   C2315     1.0  0.37278  0.78254  0.37025  1.0000
  C   C2316     1.0  0.36643  0.77492  0.36736  1.0000
  C   C2317     1.0  0.35659  0.78016  0.36120  1.0000
  C   C2318     1.0  0.35358  0.79309  0.35736  1.0000
  C   C2319     1.0  0.36017  0.80073  0.35996  1.0000
  H   H3659     1.0  0.38015  0.77842  0.37534  1.0000
  H   H3660     1.0  0.36912  0.76500  0.36999  1.0000
  H   H3661     1.0  0.33654  0.69091  0.41444  1.0000
  H   H3662     1.0  0.35761  0.81070  0.35725  1.0000
  C   C2320     1.0  0.37258  0.89803  0.35654  1.0000
  C   C2321     1.0  0.37466  0.88569  0.36289  1.0000
  C   C2322     1.0  0.37322  0.87622  0.35781  1.0000
  C   C2323     1.0  0.36935  0.87913  0.34654  1.0000
  C   C2324     1.0  0.36707  0.89151  0.34033  1.0000
  C   C2325     1.0  0.36881  0.90090  0.34524  1.0000
  H   H3663     1.0  0.37755  0.88339  0.37166  1.0000
  H   H3664     1.0  0.37488  0.86670  0.36274  1.0000
  H   H3665     1.0  0.36409  0.89390  0.33164  1.0000
  H   H3666     1.0  0.36712  0.91039  0.34026  1.0000
  C   C2326     1.0  0.38912  0.85580  0.28598  1.0000
  C   C2327     1.0  0.40175  0.85043  0.28318  1.0000
  C   C2328     1.0  0.40697  0.84038  0.29157  1.0000
  C   C2329     1.0  0.39969  0.83611  0.30300  1.0000
  C   C2330     1.0  0.38708  0.84148  0.30575  1.0000
  C   C2331     1.0  0.38174  0.85110  0.29714  1.0000
  H   H3667     1.0  0.40748  0.85394  0.27450  1.0000
  H   H3668     1.0  0.41668  0.83614  0.28928  1.0000
  H   H3669     1.0  0.38135  0.83816  0.31445  1.0000
  H   H3670     1.0  0.37194  0.85504  0.29925  1.0000
  C   C2332     1.0  0.39260  0.92319  0.27127  1.0000
  C   C2333     1.0  0.39015  0.91304  0.28070  1.0000
  C   C2334     1.0  0.38258  0.91490  0.29210  1.0000
  C   C2335     1.0  0.37711  0.92688  0.29401  1.0000
  C   C2336     1.0  0.37969  0.93708  0.28470  1.0000
  C   C2337     1.0  0.38753  0.93522  0.27336  1.0000
  H   H3671     1.0  0.39402  0.90377  0.27923  1.0000
  H   H3672     1.0  0.38080  0.90705  0.29941  1.0000
  H   H3673     1.0  0.37540  0.94637  0.28612  1.0000
  H   H3674     1.0  0.38940  0.94311  0.26610  1.0000
  C   C2338     1.0  0.45932  0.88906  0.27875  1.0000
  C   C2339     1.0  0.46310  0.87620  0.28007  1.0000
  C   C2340     1.0  0.45829  0.86979  0.27392  1.0000
  C   C2341     1.0  0.44922  0.87608  0.26694  1.0000
  C   C2342     1.0  0.44536  0.88893  0.26569  1.0000
  C   C2343     1.0  0.45065  0.89541  0.27131  1.0000
  H   H3675     1.0  0.46997  0.87123  0.28556  1.0000
  H   H3676     1.0  0.46150  0.85989  0.27469  1.0000
  H   H3677     1.0  0.43853  0.89389  0.26015  1.0000
  H   H3678     1.0  0.44805  0.90537  0.26983  1.0000
  C   C2344     1.0  0.45404  0.84247  0.33489  1.0000
  C   C2345     1.0  0.44699  0.83398  0.33497  1.0000
  C   C2346     1.0  0.43551  0.83370  0.34320  1.0000
  C   C2347     1.0  0.43141  0.84148  0.35176  1.0000
  C   C2348     1.0  0.43867  0.84967  0.35192  1.0000
  C   C2349     1.0  0.44981  0.85039  0.34330  1.0000
  H   H3679     1.0  0.45030  0.82774  0.32857  1.0000
  H   H3680     1.0  0.42998  0.82726  0.34316  1.0000
  H   H3681     1.0  0.43565  0.85552  0.35868  1.0000
  H   H3682     1.0  0.45525  0.85689  0.34335  1.0000
  C   C2350     1.0  0.44236  0.90872  0.33863  1.0000
  C   C2351     1.0  0.43065  0.91340  0.34524  1.0000
  C   C2352     1.0  0.42242  0.92303  0.33924  1.0000
  C   C2353     1.0  0.42615  0.92833  0.32678  1.0000
  C   C2354     1.0  0.43805  0.92398  0.32035  1.0000
  C   C2355     1.0  0.44601  0.91399  0.32618  1.0000
  H   H3683     1.0  0.42785  0.90940  0.35491  1.0000
  H   H3684     1.0  0.41329  0.92648  0.34428  1.0000
  H   H3685     1.0  0.44106  0.92819  0.31079  1.0000
  H   H3686     1.0  0.45504  0.91048  0.32101  1.0000
  C   C2356     1.0  0.51923  0.87710  0.33026  1.0000
  C   C2357     1.0  0.51742  0.89003  0.32783  1.0000
  C   C2358     1.0  0.52408  0.89584  0.33277  1.0000
  C   C2359     1.0  0.53257  0.88880  0.34022  1.0000
  C   C2360     1.0  0.53434  0.87588  0.34268  1.0000
  C   C2361     1.0  0.52779  0.87007  0.33762  1.0000
  H   H3687     1.0  0.51114  0.89556  0.32189  1.0000
  H   H3688     1.0  0.52276  0.90584  0.33070  1.0000
  H   H3689     1.0  0.54087  0.87035  0.34837  1.0000
  H   H3690     1.0  0.52938  0.86006  0.33946  1.0000
  H   H3691     1.0  0.39337  0.79183  0.30941  1.0000
  C   C2362     1.0  0.36505  0.97718  0.37243  1.0000
  C   C2363     1.0  0.36599  0.97219  0.36208  1.0000
  C   C2364     1.0  0.35806  0.97794  0.35381  1.0000
  H   H3692     1.0  0.42005  0.94630  0.28042  1.0000
  H   H3693     1.0  0.37116  0.97270  0.37885  1.0000
  H   H3694     1.0  0.37287  0.96394  0.36050  1.0000
  S   S979      1.0  0.58586  0.67631  0.25073  1.0000
  C   C2365     1.0  0.42677  0.93838  0.28454  1.0000
  H   H3695     1.0  0.64565  0.80763  0.38187  1.0000
  S   S980      1.0  0.41045  0.66833  0.39695  1.0000
  H   H3696     1.0  0.35343  0.77405  0.40557  1.0000
  C   C2366     1.0  0.65979  0.83611  0.36290  1.0000
  H   H3697     1.0  0.55123  0.70264  0.29496  1.0000
  C   C2367     1.0  0.40119  0.66213  0.42802  1.0000
  C   C2368     1.0  0.53517  0.66940  0.29005  1.0000
  H   H3698     1.0  0.65919  0.85145  0.40390  1.0000
  S   S981      1.0  0.37471  0.66567  0.36177  1.0000
  C   C2369     1.0  0.33890  0.75739  0.40943  1.0000
  H   H3699     1.0  0.34165  0.75749  0.41808  1.0000
  H   H3700     1.0  0.65520  0.74892  0.37444  1.0000
  H   H3701     1.0  0.36246  0.68990  0.39847  1.0000
  H   H3702     1.0  0.33438  0.66218  0.35716  1.0000
  H   H3703     1.0  0.66118  0.87859  0.43020  1.0000
  H   H3704     1.0  0.45165  0.67083  0.35433  1.0000
  H   H3705     1.0  0.57024  0.69859  0.30255  1.0000
  C   C2370     1.0  0.33920  0.95733  0.37631  1.0000
  H   H3706     1.0  0.36216  0.88956  0.28358  1.0000
  N   N227      1.0  0.48756  0.89211  0.35724  1.0000
  C   C2371     1.0  0.48157  0.88128  0.36245  1.0000
  C   C2372     1.0  0.50042  0.88881  0.35932  1.0000
  C   C2373     1.0  0.48044  0.90252  0.36330  1.0000
  C   C2374     1.0  0.48774  0.89585  0.34385  1.0000
  H   H3707     1.0  0.47191  0.88342  0.36085  1.0000
  H   H3708     1.0  0.48111  0.87827  0.37258  1.0000
  H   H3709     1.0  0.48679  0.87324  0.35812  1.0000
  H   H3710     1.0  0.50530  0.89672  0.35540  1.0000
  H   H3711     1.0  0.50067  0.88599  0.36933  1.0000
  H   H3712     1.0  0.50604  0.88096  0.35489  1.0000
  H   H3713     1.0  0.48469  0.91086  0.35950  1.0000
  H   H3714     1.0  0.48011  0.90006  0.37343  1.0000
  H   H3715     1.0  0.47068  0.90520  0.36189  1.0000
  H   H3716     1.0  0.49259  0.90371  0.33948  1.0000
  H   H3717     1.0  0.47817  0.89881  0.34199  1.0000
  H   H3718     1.0  0.49262  0.88806  0.33905  1.0000
  H   H3719     1.0  0.41675  0.93224  0.26847  1.0000
  C   C2375     1.0  0.39818  0.79282  0.31635  1.0000
  N   N228      1.0  0.35878  0.88842  0.30319  1.0000
  H   H3720     1.0  0.34383  0.96055  0.38208  1.0000
  H   H3721     1.0  0.36066  0.90692  0.29355  1.0000
  Fe  Fe489     1.0  0.35720  0.66592  0.45067  1.0000
  H   H3722     1.0  0.34540  0.90564  0.30234  1.0000
  H   H3723     1.0  0.65193  0.84033  0.43761  1.0000
  C   C2376     1.0  0.58248  0.74189  0.30653  1.0000
  H   H3724     1.0  0.33520  0.69321  0.34991  1.0000
  H   H3725     1.0  0.40331  0.78723  0.33929  1.0000
  C   C2377     1.0  0.35228  0.66359  0.35915  1.0000
  Fe  Fe490     1.0  0.34801  0.73035  0.38949  1.0000
  H   H3726     1.0  0.36716  0.71716  0.33745  1.0000
  C   C2378     1.0  0.64952  0.76197  0.35298  1.0000
  C   C2379     1.0  0.59578  0.75687  0.29963  1.0000
  H   H3727     1.0  0.39051  0.77486  0.33499  1.0000
  H   H3728     1.0  0.36422  0.69213  0.35401  1.0000
  H   H3729     1.0  0.59469  0.90666  0.38259  1.0000
  H   H3730     1.0  0.34054  0.70064  0.39965  1.0000
  C   C2380     1.0  0.34763  0.71323  0.41773  1.0000
  H   H3731     1.0  0.54362  0.69636  0.31025  1.0000
  H   H3732     1.0  0.60441  0.84921  0.39342  1.0000
  H   H3733     1.0  0.37691  0.71121  0.32429  1.0000
  H   H3734     1.0  0.34715  0.92622  0.38680  1.0000
  H   H3735     1.0  0.65705  0.82780  0.42150  1.0000
  H   H3736     1.0  0.54820  0.67585  0.36866  1.0000
  H   H3737     1.0  0.58278  0.89615  0.41650  1.0000
  H   H3738     1.0  0.65491  0.88743  0.48256  1.0000
  H   H3739     1.0  0.42688  0.93985  0.29377  1.0000
  S   S982      1.0  0.62129  0.85787  0.48102  1.0000
  C   C2381     1.0  0.65835  0.77740  0.35699  1.0000
  C   C2382     1.0  0.45629  0.68090  0.37108  1.0000
  S   S983      1.0  0.33662  0.73956  0.37504  1.0000
  H   H3740     1.0  0.35744  0.76631  0.39284  1.0000
  H   H3741     1.0  0.38392  0.81410  0.32189  1.0000
  H   H3742     1.0  0.44282  0.70249  0.36107  1.0000
  N   N229      1.0  0.38941  0.79445  0.32811  1.0000
  H   H3743     1.0  0.39469  0.66796  0.42198  1.0000
  Fe  Fe491     1.0  0.34864  0.72489  0.36490  1.0000
  C   C2383     1.0  0.34324  0.66936  0.40670  1.0000
  H   H3744     1.0  0.53337  0.67412  0.35701  1.0000
  H   H3745     1.0  0.63121  0.85061  0.40556  1.0000
  H   H3746     1.0  0.61107  0.86904  0.38352  1.0000
  H   H3747     1.0  0.35860  0.87520  0.29277  1.0000
  C   C2384     1.0  0.62685  0.84837  0.37797  1.0000
  H   H3748     1.0  0.39538  0.70821  0.33364  1.0000
  N   N230      1.0  0.62308  0.85206  0.39009  1.0000
  H   H3749     1.0  0.64965  0.90231  0.47336  1.0000
  H   H3750     1.0  0.63484  0.85245  0.37207  1.0000
  H   H3751     1.0  0.61909  0.85144  0.37289  1.0000
  N   N231      1.0  0.43320  0.85394  0.30399  1.0000
  C   C2385     1.0  0.42840  0.86099  0.29281  1.0000
  C   C2386     1.0  0.42992  0.86180  0.31329  1.0000
  C   C2387     1.0  0.44685  0.85003  0.30074  1.0000
  C   C2388     1.0  0.42761  0.84287  0.30914  1.0000
  H   H3752     1.0  0.41809  0.86381  0.29481  1.0000
  H   H3753     1.0  0.43093  0.85541  0.28548  1.0000
  H   H3754     1.0  0.43226  0.86953  0.28873  1.0000
  H   H3755     1.0  0.43394  0.87029  0.30964  1.0000
  H   H3756     1.0  0.41967  0.86472  0.31606  1.0000
  H   H3757     1.0  0.43353  0.85675  0.32177  1.0000
  H   H3758     1.0  0.44973  0.84504  0.29293  1.0000
  H   H3759     1.0  0.45066  0.84376  0.30866  1.0000
  H   H3760     1.0  0.45147  0.85811  0.29800  1.0000
  H   H3761     1.0  0.43068  0.83745  0.31778  1.0000
  H   H3762     1.0  0.43015  0.83654  0.30251  1.0000
  H   H3763     1.0  0.41731  0.84549  0.31139  1.0000
  N   N232      1.0  0.60973  0.83750  0.34338  1.0000
  C   C2389     1.0  0.61965  0.83832  0.34919  1.0000
  C   C2390     1.0  0.61259  0.82532  0.33984  1.0000
  C   C2391     1.0  0.60900  0.84748  0.33227  1.0000
  C   C2392     1.0  0.59767  0.83891  0.35217  1.0000
  H   H3764     1.0  0.61790  0.84745  0.35180  1.0000
  H   H3765     1.0  0.62891  0.83705  0.34287  1.0000
  H   H3766     1.0  0.62038  0.83107  0.35768  1.0000
  H   H3767     1.0  0.62157  0.82394  0.33313  1.0000
  H   H3768     1.0  0.61331  0.81762  0.34802  1.0000
  H   H3769     1.0  0.60515  0.82424  0.33569  1.0000
  H   H3770     1.0  0.60675  0.85680  0.33470  1.0000
  H   H3771     1.0  0.60162  0.84713  0.32764  1.0000
  H   H3772     1.0  0.61795  0.84680  0.32545  1.0000
  H   H3773     1.0  0.59520  0.84791  0.35519  1.0000
  H   H3774     1.0  0.59772  0.83147  0.36060  1.0000
  H   H3775     1.0  0.59002  0.83846  0.34798  1.0000
  H   H3776     1.0  0.57494  0.82977  0.43581  1.0000
  H   H3777     1.0  0.57277  0.84238  0.40269  1.0000
  H   H3778     1.0  0.56601  0.82090  0.42307  1.0000
  N   N233      1.0  0.41250  0.88444  0.34685  1.0000
  C   C2393     1.0  0.40568  0.88932  0.33665  1.0000
  C   C2394     1.0  0.42600  0.88315  0.34180  1.0000
  C   C2395     1.0  0.40972  0.87221  0.35346  1.0000
  C   C2396     1.0  0.40857  0.89304  0.35551  1.0000
  H   H3779     1.0  0.40778  0.89843  0.33128  1.0000
  H   H3780     1.0  0.39546  0.89070  0.34020  1.0000
  H   H3781     1.0  0.40811  0.88286  0.33016  1.0000
  H   H3782     1.0  0.42940  0.87635  0.33561  1.0000
  H   H3783     1.0  0.42838  0.89215  0.33643  1.0000
  H   H3784     1.0  0.43143  0.87989  0.34928  1.0000
  H   H3785     1.0  0.41456  0.86826  0.36135  1.0000
  H   H3786     1.0  0.41260  0.86545  0.34725  1.0000
  H   H3787     1.0  0.39962  0.87274  0.35731  1.0000
  H   H3788     1.0  0.41423  0.89019  0.36278  1.0000
  H   H3789     1.0  0.39871  0.89335  0.36031  1.0000
  H   H3790     1.0  0.40938  0.90266  0.35065  1.0000
  H   H3791     1.0  0.62981  0.83812  0.37900  1.0000
  S   S984      1.0  0.34266  0.71329  0.35502  1.0000
  H   H3792     1.0  0.57967  0.73394  0.31379  1.0000
  C   C2397     1.0  0.34295  0.93607  0.38744  1.0000
  H   H3793     1.0  0.34602  0.79721  0.35251  1.0000
  C   C2398     1.0  0.34870  0.68229  0.38669  1.0000
  H   H3794     1.0  0.36671  0.67340  0.39978  1.0000
  N   N234      1.0  0.50905  0.83426  0.32000  1.0000
  C   C2399     1.0  0.51656  0.82236  0.32518  1.0000
  C   C2400     1.0  0.51736  0.84239  0.31174  1.0000
  C   C2401     1.0  0.50137  0.84035  0.33017  1.0000
  C   C2402     1.0  0.50086  0.83201  0.31296  1.0000
  H   H3795     1.0  0.52280  0.82378  0.33058  1.0000
  H   H3796     1.0  0.52249  0.81749  0.31776  1.0000
  H   H3797     1.0  0.51055  0.81604  0.33150  1.0000
  H   H3798     1.0  0.51199  0.85150  0.30772  1.0000
  H   H3799     1.0  0.52354  0.84445  0.31681  1.0000
  H   H3800     1.0  0.52335  0.83813  0.30393  1.0000
  H   H3801     1.0  0.49483  0.83462  0.33654  1.0000
  H   H3802     1.0  0.49570  0.84935  0.32649  1.0000
  H   H3803     1.0  0.50720  0.84234  0.33566  1.0000
  H   H3804     1.0  0.49427  0.82612  0.31898  1.0000
  H   H3805     1.0  0.50628  0.82735  0.30523  1.0000
  H   H3806     1.0  0.49507  0.84083  0.30892  1.0000
  N   N235      1.0  0.42338  0.92642  0.28551  1.0000
  H   H3807     1.0  0.56182  0.67739  0.28696  1.0000
  C   C2403     1.0  0.43238  0.91622  0.29128  1.0000
  C   C2404     1.0  0.42356  0.92477  0.27304  1.0000
  H   H3808     1.0  0.34013  0.96373  0.36711  1.0000
  H   H3809     1.0  0.34163  0.66834  0.41690  1.0000
  H   H3810     1.0  0.43189  0.91672  0.30099  1.0000
  H   H3811     1.0  0.43069  0.90699  0.29136  1.0000
  H   H3812     1.0  0.44211  0.91655  0.28626  1.0000
  H   H3813     1.0  0.42109  0.91581  0.27336  1.0000
  H   H3814     1.0  0.43287  0.92490  0.26691  1.0000
  H   H3815     1.0  0.60648  0.91825  0.38980  1.0000
  H   H3816     1.0  0.42832  0.69738  0.36490  1.0000
  H   H3817     1.0  0.60517  0.91684  0.40614  1.0000
  C   C2405     1.0  0.60325  0.73628  0.31044  1.0000
  C   C2406     1.0  0.65558  0.75892  0.37250  1.0000
  H   H3818     1.0  0.60091  0.72839  0.31793  1.0000
  H   H3819     1.0  0.39910  0.66633  0.43631  1.0000
  H   H3820     1.0  0.61538  0.83587  0.39890  1.0000
  H   H3821     1.0  0.43769  0.68166  0.35170  1.0000
  H   H3822     1.0  0.58770  0.76469  0.29864  1.0000
  N   N236      1.0  0.34728  0.68109  0.40015  1.0000
  C   C2407     1.0  0.61273  0.84613  0.39773  1.0000
  H   H3823     1.0  0.58353  0.92449  0.39228  1.0000
  H   H3824     1.0  0.57630  0.67495  0.29165  1.0000
  H   H3825     1.0  0.35981  0.94927  0.36059  1.0000
  H   H3826     1.0  0.54290  0.69052  0.29736  1.0000
  H   H3827     1.0  0.56398  0.69097  0.31771  1.0000
  C   C2408     1.0  0.65469  0.82962  0.35710  1.0000
  H   H3828     1.0  0.35855  0.67987  0.41311  1.0000
  H   H3829     1.0  0.40272  0.80095  0.31222  1.0000
  C   C2409     1.0  0.54907  0.69394  0.30132  1.0000
  H   H3830     1.0  0.64709  0.85060  0.41741  1.0000
  H   H3831     1.0  0.60692  0.73265  0.30176  1.0000
  C   C2410     1.0  0.37192  0.69639  0.35433  1.0000
  H   H3832     1.0  0.37433  0.88635  0.31156  1.0000
  S   S985      1.0  0.65764  0.87233  0.38452  1.0000
  H   H3833     1.0  0.34996  0.78236  0.39083  1.0000
  H   H3834     1.0  0.35252  0.88474  0.32292  1.0000
  C   C2411     1.0  0.64964  0.81928  0.36390  1.0000
  C   C2412     1.0  0.56822  0.83865  0.43389  1.0000
  C   C2413     1.0  0.55904  0.82977  0.42218  1.0000
  H   H3835     1.0  0.57755  0.68311  0.30872  1.0000
  H   H3836     1.0  0.43561  0.69776  0.37694  1.0000
  C   C2414     1.0  0.65673  0.85210  0.41378  1.0000
  C   C2415     1.0  0.44655  0.68046  0.35475  1.0000
  C   C2416     1.0  0.57537  0.84103  0.41177  1.0000
  C   C2417     1.0  0.56733  0.68159  0.29091  1.0000
  Fe  Fe492     1.0  0.35194  0.75026  0.36642  1.0000
  H   H3837     1.0  0.37756  0.68963  0.36068  1.0000
  H   H3838     1.0  0.56012  0.83860  0.44177  1.0000
  H   H3839     1.0  0.55097  0.82873  0.42998  1.0000
  C   C2418     1.0  0.59386  0.90054  0.39193  1.0000
  H   H3840     1.0  0.55866  0.86012  0.42029  1.0000
  H   H3841     1.0  0.37436  0.80509  0.31925  1.0000
  H   H3842     1.0  0.61609  0.86872  0.39735  1.0000
  C   C2419     1.0  0.35637  0.98807  0.37438  1.0000
  N   N237      1.0  0.56442  0.84036  0.42201  1.0000
  H   H3843     1.0  0.57271  0.84624  0.43396  1.0000
  H   H3844     1.0  0.57969  0.84889  0.41138  1.0000
  H   H3845     1.0  0.58256  0.83235  0.41274  1.0000
  H   H3846     1.0  0.55572  0.83097  0.41349  1.0000
  N   N238      1.0  0.56049  0.68455  0.30300  1.0000
  C   C2420     1.0  0.56841  0.68949  0.30822  1.0000
  C   C2421     1.0  0.41079  0.92634  0.29320  1.0000
  H   H3847     1.0  0.66510  0.77931  0.36147  1.0000
  H   H3848     1.0  0.54654  0.85167  0.42762  1.0000
  H   H3849     1.0  0.33970  0.94703  0.35761  1.0000
  H   H3850     1.0  0.61319  0.90402  0.39895  1.0000
  H   H3851     1.0  0.36304  0.94589  0.37579  1.0000
  C   C2422     1.0  0.37209  0.88397  0.30363  1.0000
  H   H3852     1.0  0.63999  0.76690  0.35647  1.0000
  C   C2423     1.0  0.65996  0.88717  0.41133  1.0000
  H   H3853     1.0  0.64630  0.76374  0.37678  1.0000
  S   S986      1.0  0.64398  0.81083  0.35634  1.0000
  H   H3854     1.0  0.59232  0.90366  0.42115  1.0000
  C   C2424     1.0  0.65495  0.82183  0.38225  1.0000
  C   C2425     1.0  0.34175  0.70672  0.42885  1.0000
  S   S987      1.0  0.36291  0.73644  0.35476  1.0000
  H   H3855     1.0  0.59479  0.75378  0.32408  1.0000
  C   C2426     1.0  0.55713  0.67321  0.31149  1.0000
  H   H3856     1.0  0.45222  0.68678  0.34792  1.0000
  H   H3857     1.0  0.46238  0.68701  0.36455  1.0000
  H   H3858     1.0  0.37306  0.80733  0.33456  1.0000
  H   H3859     1.0  0.62667  0.87042  0.38269  1.0000
  H   H3860     1.0  0.37785  0.68368  0.33630  1.0000
  H   H3861     1.0  0.34596  0.75020  0.40503  1.0000
  C   C2427     1.0  0.55504  0.85196  0.42021  1.0000
  N   N239      1.0  0.33797  0.76967  0.40103  1.0000
  H   H3862     1.0  0.60810  0.88372  0.47862  1.0000
  C   C2428     1.0  0.59187  0.89905  0.41381  1.0000
  H   H3863     1.0  0.38551  0.71401  0.34681  1.0000
  H   H3864     1.0  0.38983  0.79743  0.34586  1.0000
  C   C2429     1.0  0.35635  0.88538  0.29231  1.0000
  H   H3865     1.0  0.43486  0.67562  0.38564  1.0000
  N   N240      1.0  0.44429  0.68281  0.36735  1.0000
  H   H3866     1.0  0.39556  0.69909  0.34898  1.0000
  H   H3867     1.0  0.37699  0.78449  0.34215  1.0000
  C   C2430     1.0  0.38351  0.78356  0.33322  1.0000
  H   H3868     1.0  0.64909  0.75198  0.35482  1.0000
  C   C2431     1.0  0.39621  0.79571  0.33702  1.0000
  H   H3869     1.0  0.34388  0.69139  0.44411  1.0000
  C   C2432     1.0  0.43682  0.67413  0.37603  1.0000
  H   H3870     1.0  0.57378  0.91476  0.40311  1.0000
  S   S988      1.0  0.35894  0.71494  0.38002  1.0000
  S   S989      1.0  0.33882  0.72606  0.40939  1.0000
  C   C2433     1.0  0.66115  0.84305  0.43406  1.0000
  H   H3871     1.0  0.65667  0.86174  0.41430  1.0000
  H   H3872     1.0  0.36765  0.70468  0.35845  1.0000
  C   C2434     1.0  0.37975  0.80573  0.32585  1.0000
  H   H3873     1.0  0.35599  0.67469  0.38319  1.0000
  H   H3874     1.0  0.59322  0.68937  0.26978  1.0000
  Fe  Fe493     1.0  0.65934  0.88528  0.36624  1.0000
  C   C2435     1.0  0.37156  0.70854  0.33381  1.0000
  H   H3875     1.0  0.37479  0.87373  0.30473  1.0000
  H   H3876     1.0  0.35760  0.90474  0.31006  1.0000
  H   H3877     1.0  0.58195  0.92319  0.40861  1.0000
  H   H3878     1.0  0.43618  0.93882  0.27869  1.0000
  N   N241      1.0  0.37954  0.69971  0.34192  1.0000
  C   C2436     1.0  0.35546  0.90200  0.30226  1.0000
  S   S990      1.0  0.62573  0.66879  0.33849  1.0000
  H   H3879     1.0  0.36268  0.93352  0.36885  1.0000
  H   H3880     1.0  0.66382  0.84397  0.35757  1.0000
  H   H3881     1.0  0.65169  0.76535  0.34281  1.0000
  H   H3882     1.0  0.39085  0.69050  0.32737  1.0000
  S   S991      1.0  0.33728  0.67023  0.46040  1.0000
  C   C2437     1.0  0.34851  0.69625  0.43551  1.0000
  H   H3883     1.0  0.53271  0.67925  0.28980  1.0000
  C   C2438     1.0  0.35122  0.88233  0.31456  1.0000
  S   S992      1.0  0.42165  0.89467  0.23932  1.0000
  H   H3884     1.0  0.58577  0.73851  0.29769  1.0000
  C   C2439     1.0  0.34942  0.98882  0.35578  1.0000
  N   N242      1.0  0.59336  0.90736  0.40152  1.0000
  C   C2440     1.0  0.35022  0.77327  0.39743  1.0000
  N   N243      1.0  0.59226  0.74641  0.30950  1.0000
  H   H3885     1.0  0.59931  0.89055  0.41409  1.0000
  H   H3886     1.0  0.33437  0.66896  0.40452  1.0000
  H   H3887     1.0  0.40382  0.93413  0.28930  1.0000
  H   H3888     1.0  0.64168  0.85245  0.39080  1.0000
  C   C2441     1.0  0.58755  0.75056  0.32140  1.0000
  C   C2442     1.0  0.58270  0.91795  0.40137  1.0000
  H   H3889     1.0  0.65524  0.81863  0.39194  1.0000
  C   C2443     1.0  0.33784  0.69159  0.40431  1.0000
  H   H3890     1.0  0.37810  0.88795  0.29495  1.0000
  C   C2444     1.0  0.66016  0.83206  0.37544  1.0000
  C   C2445     1.0  0.35928  0.68105  0.40299  1.0000
  H   H3891     1.0  0.58483  0.74286  0.32906  1.0000
  H   H3892     1.0  0.58530  0.89685  0.39361  1.0000
  C   C2446     1.0  0.63374  0.84809  0.39633  1.0000
  H   H3893     1.0  0.61086  0.73928  0.31272  1.0000
  H   H3894     1.0  0.60996  0.84830  0.40715  1.0000
  H   H3895     1.0  0.60190  0.89260  0.39162  1.0000
  C   C2447     1.0  0.35816  0.94320  0.36988  1.0000
  H   H3896     1.0  0.57930  0.75825  0.32107  1.0000
  H   H3897     1.0  0.63718  0.83790  0.39769  1.0000
  H   H3898     1.0  0.41077  0.66300  0.42295  1.0000
  H   H3899     1.0  0.57401  0.74925  0.30572  1.0000
  H   H3900     1.0  0.55200  0.67515  0.32072  1.0000
  H   H3901     1.0  0.45495  0.68277  0.38047  1.0000
  H   H3902     1.0  0.64499  0.92127  0.48210  1.0000
  S   S993      1.0  0.40859  0.66309  0.36543  1.0000
  H   H3903     1.0  0.66243  0.75997  0.37740  1.0000
  N   N244      1.0  0.34474  0.94435  0.37515  1.0000
  H   H3904     1.0  0.46151  0.67119  0.37131  1.0000
  H   H3905     1.0  0.56552  0.66592  0.31289  1.0000
  H   H3906     1.0  0.34738  0.93855  0.39388  1.0000
  C   C2448     1.0  0.33874  0.94076  0.36689  1.0000
  H   H3907     1.0  0.34299  0.93114  0.36547  1.0000
  Fe  Fe494     1.0  0.52188  0.66899  0.33928  1.0000
  Fe  Fe495     1.0  0.57088  0.66564  0.26096  1.0000
  S   S994      1.0  0.60920  0.66532  0.27603  1.0000
  C   C2449     1.0  0.64917  0.89687  0.48298  1.0000
  H   H3908     1.0  0.42774  0.67522  0.37345  1.0000
  H   H3909     1.0  0.58958  0.66112  0.35801  1.0000
  H   H3910     1.0  0.33990  0.68198  0.38429  1.0000
  H   H3911     1.0  0.57407  0.66644  0.35536  1.0000
  C   C2450     1.0  0.54396  0.66481  0.28039  1.0000
  N   N245      1.0  0.66553  0.84293  0.42075  1.0000
  C   C2451     1.0  0.66629  0.83045  0.41864  1.0000
  C   C2452     1.0  0.52965  0.66125  0.30010  1.0000
  Fe  Fe496     1.0  0.59719  0.66326  0.26401  1.0000
  H   H3912     1.0  0.52309  0.66486  0.30764  1.0000
  S   S995      1.0  0.50697  0.66418  0.33265  1.0000
  H   H3913     1.0  0.44165  0.66433  0.37619  1.0000
  H   H3914     1.0  0.56662  0.66554  0.37795  1.0000
  Fe  Fe497     1.0  0.59198  0.66131  0.23947  1.0000
  C   C2453     1.0  0.66622  0.90466  0.48527  1.0000
  C   C2454     1.0  0.61314  0.88159  0.48601  1.0000
  S   S996      1.0  0.51596  0.65985  0.35900  1.0000
  H   H3915     1.0  0.63506  0.65967  0.30120  1.0000
  H   H3916     1.0  0.58219  0.65980  0.38028  1.0000
  H   H3917     1.0  0.66693  0.91062  0.47586  1.0000
  C   C2455     1.0  0.33400  0.76909  0.38988  1.0000
  H   H3918     1.0  0.37028  0.67458  0.71180  1.0000
  Fe  Fe498     1.0  0.62363  0.98024  0.59137  1.0000
  H   H3919     1.0  0.59678  0.89159  0.53616  1.0000
  S   S997      1.0  0.60843  0.97098  0.60361  1.0000
  H   H3920     1.0  0.60639  0.89967  0.49060  1.0000
  S   S998      1.0  0.64599  0.97335  0.54884  1.0000
  H   H3921     1.0  0.59629  0.93575  0.69110  1.0000
  N   N246      1.0  0.64731  0.86233  0.68081  1.0000
  S   S999      1.0  0.64102  0.96787  0.58360  1.0000
  H   H3922     1.0  0.65905  0.88599  0.50315  1.0000
  Fe  Fe499     1.0  0.64433  0.88824  0.64141  1.0000
  S   S1000     1.0  0.62683  0.88098  0.64516  1.0000
  Fe  Fe500     1.0  0.63054  0.91390  0.64489  1.0000
  S   S1001     1.0  0.61195  0.90881  0.64912  1.0000
  S   S1002     1.0  0.63280  0.93274  0.64529  1.0000
  Fe  Fe501     1.0  0.62074  0.89145  0.66066  1.0000
  S   S1003     1.0  0.61189  0.88363  0.68016  1.0000
  Fe  Fe502     1.0  0.61993  0.89908  0.63312  1.0000
  S   S1004     1.0  0.60818  0.90303  0.61882  1.0000
  S   S1005     1.0  0.63878  0.89736  0.65765  1.0000
  S   S1006     1.0  0.63801  0.90552  0.62808  1.0000
  Fe  Fe503     1.0  0.62179  0.92156  0.54148  1.0000
  S   S1007     1.0  0.61253  0.90558  0.54429  1.0000
  S   S1008     1.0  0.61077  0.93959  0.54642  1.0000
  Fe  Fe504     1.0  0.64734  0.90666  0.53317  1.0000
  S   S1009     1.0  0.64039  0.88932  0.53521  1.0000
  Fe  Fe505     1.0  0.62498  0.90191  0.52627  1.0000
  S   S1010     1.0  0.61661  0.89977  0.51095  1.0000
  Fe  Fe506     1.0  0.62857  0.89447  0.55293  1.0000
  S   S1011     1.0  0.62670  0.88017  0.57052  1.0000
  S   S1012     1.0  0.63294  0.91897  0.52281  1.0000
  S   S1013     1.0  0.63683  0.91074  0.55160  1.0000
  S   S1014     1.0  0.60410  0.91957  0.71691  1.0000
  C   C2456     1.0  0.61023  0.89318  0.69068  1.0000
  C   C2457     1.0  0.60360  0.89031  0.70284  1.0000
  C   C2458     1.0  0.60196  0.89813  0.71114  1.0000
  C   C2459     1.0  0.60698  0.90884  0.70729  1.0000
  C   C2460     1.0  0.61397  0.91143  0.69528  1.0000
  C   C2461     1.0  0.61554  0.90367  0.68699  1.0000
  H   H3923     1.0  0.59950  0.88217  0.70577  1.0000
  H   H3924     1.0  0.59655  0.89605  0.72040  1.0000
  H   H3925     1.0  0.61823  0.91944  0.69240  1.0000
  H   H3926     1.0  0.62080  0.90588  0.67773  1.0000
  C   C2462     1.0  0.61361  0.89639  0.60558  1.0000
  C   C2463     1.0  0.60732  0.90106  0.59576  1.0000
  C   C2464     1.0  0.61158  0.89640  0.58484  1.0000
  C   C2465     1.0  0.62190  0.88667  0.58385  1.0000
  C   C2466     1.0  0.62811  0.88185  0.59374  1.0000
  C   C2467     1.0  0.62411  0.88685  0.60450  1.0000
  H   H3927     1.0  0.59910  0.90833  0.59661  1.0000
  H   H3928     1.0  0.60666  0.90008  0.57733  1.0000
  H   H3929     1.0  0.63608  0.87429  0.59303  1.0000
  H   H3930     1.0  0.62902  0.88318  0.61204  1.0000
  C   C2468     1.0  0.63572  0.96493  0.54723  1.0000
  C   C2469     1.0  0.62342  0.96653  0.55376  1.0000
  C   C2470     1.0  0.61555  0.95920  0.55285  1.0000
  C   C2471     1.0  0.62015  0.94985  0.54595  1.0000
  C   C2472     1.0  0.63241  0.94835  0.53933  1.0000
  C   C2473     1.0  0.64006  0.95614  0.53969  1.0000
  H   H3931     1.0  0.61993  0.97348  0.55940  1.0000
  H   H3932     1.0  0.60599  0.96054  0.55780  1.0000
  H   H3933     1.0  0.63596  0.94128  0.53384  1.0000
  H   H3934     1.0  0.64940  0.95518  0.53426  1.0000
  C   C2474     1.0  0.61434  0.96078  0.61594  1.0000
  C   C2475     1.0  0.62273  0.96398  0.62108  1.0000
  C   C2476     1.0  0.62803  0.95550  0.63048  1.0000
  C   C2477     1.0  0.62528  0.94366  0.63440  1.0000
  C   C2478     1.0  0.61691  0.94045  0.62925  1.0000
  C   C2479     1.0  0.61124  0.94911  0.62021  1.0000
  H   H3935     1.0  0.62502  0.97305  0.61792  1.0000
  H   H3936     1.0  0.63444  0.95805  0.63450  1.0000
  H   H3937     1.0  0.61480  0.93132  0.63216  1.0000
  H   H3938     1.0  0.60468  0.94664  0.61631  1.0000
  C   C2480     1.0  0.60983  0.93170  0.58067  1.0000
  H   H3939     1.0  0.65681  0.85019  0.69475  1.0000
  H   H3940     1.0  0.37462  0.66972  0.53854  1.0000
  H   H3941     1.0  0.63847  0.88098  0.68290  1.0000
  C   C2481     1.0  0.62681  0.86716  0.49861  1.0000
  C   C2482     1.0  0.62601  0.87626  0.50533  1.0000
  C   C2483     1.0  0.61854  0.88801  0.50256  1.0000
  N   N247      1.0  0.35820  0.66307  0.54913  1.0000
  C   C2484     1.0  0.65051  0.85005  0.68878  1.0000
  H   H3942     1.0  0.63243  0.85802  0.50092  1.0000
  H   H3943     1.0  0.63104  0.87411  0.51271  1.0000
  C   C2485     1.0  0.65876  0.86598  0.67272  1.0000
  H   H3944     1.0  0.66495  0.93326  0.57171  1.0000
  C   C2486     1.0  0.61219  0.89062  0.49284  1.0000
  H   H3945     1.0  0.58097  0.94051  0.67738  1.0000
  N   N248      1.0  0.61899  0.93530  0.58553  1.0000
  H   H3946     1.0  0.61484  0.92856  0.66885  1.0000
  C   C2487     1.0  0.61584  0.87309  0.54127  1.0000
  H   H3947     1.0  0.60302  0.87586  0.52340  1.0000
  C   C2488     1.0  0.66703  0.94125  0.56416  1.0000
  H   H3948     1.0  0.60536  0.94932  0.59390  1.0000
  S   S1015     1.0  0.63360  0.99156  0.59741  1.0000
  C   C2489     1.0  0.61447  0.94819  0.58733  1.0000
  N   N249      1.0  0.59957  0.94384  0.67163  1.0000
  H   H3949     1.0  0.60089  0.93152  0.58748  1.0000
  H   H3950     1.0  0.59155  0.86733  0.53286  1.0000
  H   H3951     1.0  0.66540  0.86645  0.67817  1.0000
  H   H3952     1.0  0.62110  0.95121  0.59106  1.0000
  H   H3953     1.0  0.61073  0.94087  0.68516  1.0000
  H   H3954     1.0  0.60570  0.85330  0.55308  1.0000
  H   H3955     1.0  0.62713  0.92968  0.60167  1.0000
  C   C2490     1.0  0.65321  0.93132  0.61077  1.0000
  H   H3956     1.0  0.65199  0.93923  0.60284  1.0000
  H   H3957     1.0  0.36137  0.68860  0.72669  1.0000
  H   H3958     1.0  0.60532  0.95413  0.65332  1.0000
  C   C2491     1.0  0.62062  0.92700  0.59749  1.0000
  H   H3959     1.0  0.64456  0.93241  0.61795  1.0000
  H   H3960     1.0  0.64203  0.84706  0.69495  1.0000
  H   H3961     1.0  0.66359  0.85936  0.66648  1.0000
  C   C2492     1.0  0.58629  0.94737  0.67091  1.0000
  C   C2493     1.0  0.60489  0.93165  0.66817  1.0000
  H   H3962     1.0  0.63805  0.93717  0.57995  1.0000
  C   C2494     1.0  0.65286  0.89527  0.50327  1.0000
  Fe  Fe507     1.0  0.63984  0.98160  0.56588  1.0000
  C   C2495     1.0  0.63101  0.93431  0.57667  1.0000
  H   H3963     1.0  0.60278  0.96247  0.66545  1.0000
  H   H3964     1.0  0.58198  0.95660  0.67333  1.0000
  H   H3965     1.0  0.61333  0.92237  0.57831  1.0000
  H   H3966     1.0  0.61317  0.95481  0.57855  1.0000
  C   C2496     1.0  0.66629  0.93040  0.54879  1.0000
  H   H3967     1.0  0.58985  0.86161  0.55558  1.0000
  H   H3968     1.0  0.59988  0.92437  0.67425  1.0000
  H   H3969     1.0  0.61643  0.95053  0.66298  1.0000
  H   H3970     1.0  0.63468  0.92464  0.57517  1.0000
  H   H3971     1.0  0.34214  0.66694  0.54098  1.0000
  H   H3972     1.0  0.62430  0.91721  0.59646  1.0000
  H   H3973     1.0  0.63005  0.94033  0.56751  1.0000
  H   H3974     1.0  0.59649  0.95200  0.68750  1.0000
  H   H3975     1.0  0.60771  0.93830  0.57212  1.0000
  H   H3976     1.0  0.58504  0.94785  0.66143  1.0000
  C   C2497     1.0  0.59455  0.88415  0.54435  1.0000
  C   C2498     1.0  0.66516  0.92073  0.62645  1.0000
  H   H3977     1.0  0.65684  0.92183  0.63401  1.0000
  H   H3978     1.0  0.65406  0.92260  0.60763  1.0000
  C   C2499     1.0  0.60081  0.94310  0.68438  1.0000
  N   N250      1.0  0.60280  0.87208  0.54286  1.0000
  C   C2500     1.0  0.63893  0.86168  0.67311  1.0000
  H   H3979     1.0  0.62238  0.86418  0.54007  1.0000
  C   C2501     1.0  0.35974  0.68028  0.73400  1.0000
  H   H3980     1.0  0.65460  0.94429  0.62707  1.0000
  H   H3981     1.0  0.66606  0.91165  0.62398  1.0000
  H   H3982     1.0  0.61848  0.88024  0.53301  1.0000
  H   H3983     1.0  0.66508  0.92158  0.55548  1.0000
  C   C2502     1.0  0.36879  0.66658  0.71955  1.0000
  C   C2503     1.0  0.60629  0.95318  0.66299  1.0000
  Fe  Fe508     1.0  0.65086  0.98056  0.58768  1.0000
  H   H3984     1.0  0.65667  0.87523  0.66663  1.0000
  H   H3985     1.0  0.61164  0.92724  0.60431  1.0000
  H   H3986     1.0  0.34742  0.67072  0.56483  1.0000
  H   H3987     1.0  0.60444  0.93201  0.65847  1.0000
  H   H3988     1.0  0.65689  0.93604  0.54809  1.0000
  C   C2504     1.0  0.64507  0.91524  0.49142  1.0000
  H   H3989     1.0  0.61741  0.87572  0.54944  1.0000
  N   N251      1.0  0.65333  0.90301  0.49072  1.0000
  S   S1016     1.0  0.66314  0.87584  0.63901  1.0000
  H   H3990     1.0  0.38909  0.66311  0.72900  1.0000
  C   C2505     1.0  0.64101  0.87159  0.68861  1.0000
  H   H3991     1.0  0.63627  0.87082  0.66712  1.0000
  H   H3992     1.0  0.60765  0.85979  0.53004  1.0000
  C   C2506     1.0  0.60119  0.86858  0.53183  1.0000
  H   H3993     1.0  0.59547  0.88706  0.55263  1.0000
  H   H3994     1.0  0.63530  0.91431  0.49574  1.0000
  H   H3995     1.0  0.64329  0.89375  0.50761  1.0000
  H   H3996     1.0  0.65583  0.89969  0.50940  1.0000
  H   H3997     1.0  0.36144  0.67487  0.53116  1.0000
  C   C2507     1.0  0.36643  0.66693  0.53720  1.0000
  H   H3998     1.0  0.58463  0.88379  0.54545  1.0000
  C   C2508     1.0  0.59968  0.86254  0.55396  1.0000
  H   H3999     1.0  0.60099  0.86488  0.56239  1.0000
  C   C2509     1.0  0.35353  0.67348  0.55571  1.0000
  H   H4000     1.0  0.66094  0.89317  0.55071  1.0000
  H   H4001     1.0  0.64804  0.92022  0.49704  1.0000
  H   H4002     1.0  0.34805  0.68157  0.55029  1.0000
  H   H4003     1.0  0.64697  0.87229  0.69466  1.0000
  H   H4004     1.0  0.63013  0.85903  0.67885  1.0000
  H   H4005     1.0  0.65811  0.94780  0.56288  1.0000
  H   H4006     1.0  0.64338  0.85494  0.66694  1.0000
  H   H4007     1.0  0.66150  0.95088  0.61164  1.0000
  C   C2510     1.0  0.66279  0.94285  0.61943  1.0000
  H   H4008     1.0  0.65524  0.84285  0.68317  1.0000
  N   N252      1.0  0.66416  0.93102  0.61566  1.0000
  H   H4009     1.0  0.35025  0.67894  0.73446  1.0000
  H   H4010     1.0  0.63936  0.89582  0.48671  1.0000
  H   H4011     1.0  0.63217  0.86927  0.69463  1.0000
  C   C2511     1.0  0.62036  0.86975  0.48893  1.0000
  C   C2512     1.0  0.38170  0.67137  0.73081  1.0000
  N   N253      1.0  0.36925  0.66919  0.73145  1.0000
  H   H4012     1.0  0.38396  0.67932  0.72327  1.0000
  H   H4013     1.0  0.35972  0.66436  0.71983  1.0000
  H   H4014     1.0  0.36130  0.67660  0.55753  1.0000
  H   H4015     1.0  0.37003  0.65922  0.53203  1.0000
  C   C2513     1.0  0.34759  0.65928  0.54686  1.0000
  Fe  Fe509     1.0  0.38180  0.76109  0.88828  1.0000
  S   S1017     1.0  0.38892  0.77540  0.87227  1.0000
  S   S1018     1.0  0.38733  0.74149  0.88440  1.0000
  Fe  Fe510     1.0  0.37094  0.78050  0.90493  1.0000
  S   S1019     1.0  0.37714  0.79585  0.88996  1.0000
  S   S1020     1.0  0.36001  0.78669  0.92262  1.0000
  Fe  Fe511     1.0  0.37047  0.78748  0.87780  1.0000
  S   S1021     1.0  0.35916  0.79983  0.86427  1.0000
  Fe  Fe512     1.0  0.39483  0.78214  0.88622  1.0000
  S   S1022     1.0  0.41235  0.78886  0.88392  1.0000
  S   S1023     1.0  0.36281  0.77291  0.89297  1.0000
  S   S1024     1.0  0.38922  0.76707  0.90202  1.0000
  Fe  Fe513     1.0  0.36899  0.83508  0.95584  1.0000
  S   S1025     1.0  0.36214  0.84932  0.94036  1.0000
  S   S1026     1.0  0.37875  0.81580  0.95260  1.0000
  Fe  Fe514     1.0  0.35938  0.85300  0.97422  1.0000
  S   S1027     1.0  0.35161  0.86849  0.95982  1.0000
  H   H4016     1.0  0.37435  0.75386  0.83796  1.0000
  H   H4017     1.0  0.34049  0.66778  0.79203  1.0000
  Fe  Fe515     1.0  0.36952  0.86227  0.94711  1.0000
  S   S1028     1.0  0.37947  0.87588  0.93277  1.0000
  S   S1029     1.0  0.35127  0.83883  0.96973  1.0000
  S   S1030     1.0  0.37789  0.84771  0.96171  1.0000
  S   S1031     1.0  0.34576  0.87586  0.84675  1.0000
  Fe  Fe516     1.0  0.41584  0.85335  0.85311  1.0000
  S   S1032     1.0  0.41666  0.87259  0.84237  1.0000
  S   S1033     1.0  0.41137  0.83931  0.84516  1.0000
  Fe  Fe517     1.0  0.42059  0.85846  0.87597  1.0000
  S   S1034     1.0  0.42196  0.87828  0.86736  1.0000
  S   S1035     1.0  0.42148  0.84831  0.89535  1.0000
  Fe  Fe518     1.0  0.40544  0.87844  0.85983  1.0000
  S   S1036     1.0  0.38830  0.89341  0.86040  1.0000
  Fe  Fe519     1.0  0.43316  0.87063  0.85066  1.0000
  S   S1037     1.0  0.45057  0.87504  0.83723  1.0000
  S   S1038     1.0  0.40316  0.85935  0.86985  1.0000
  S   S1039     1.0  0.43325  0.85077  0.85996  1.0000
  C   C2514     1.0  0.44643  0.67305  0.82284  1.0000
  Fe  Fe520     1.0  0.39338  0.69094  0.82859  1.0000
  S   S1040     1.0  0.39150  0.68682  0.84917  1.0000
  S   S1041     1.0  0.40965  0.69793  0.81590  1.0000
  Fe  Fe521     1.0  0.36843  0.68568  0.82968  1.0000
  S   S1042     1.0  0.36425  0.68133  0.85039  1.0000
  S   S1043     1.0  0.35338  0.68507  0.82041  1.0000
  Fe  Fe522     1.0  0.37210  0.69799  0.84925  1.0000
  S   S1044     1.0  0.36105  0.71267  0.86041  1.0000
  Fe  Fe523     1.0  0.38382  0.67074  0.84830  1.0000
  H   H4018     1.0  0.63365  0.71841  0.86568  1.0000
  S   S1045     1.0  0.37460  0.70321  0.82860  1.0000
  S   S1046     1.0  0.38751  0.67390  0.82767  1.0000
  Fe  Fe524     1.0  0.60659  0.73133  0.89131  1.0000
  S   S1047     1.0  0.60354  0.71757  0.88205  1.0000
  S   S1048     1.0  0.62006  0.72604  0.90395  1.0000
  Fe  Fe525     1.0  0.58972  0.75297  0.87817  1.0000
  S   S1049     1.0  0.58492  0.74092  0.86798  1.0000
  S   S1050     1.0  0.58148  0.77342  0.87347  1.0000
  Fe  Fe526     1.0  0.58359  0.72718  0.88589  1.0000
  S   S1051     1.0  0.56940  0.71516  0.89378  1.0000
  Fe  Fe527     1.0  0.60520  0.73245  0.86497  1.0000
  S   S1052     1.0  0.61574  0.73101  0.84575  1.0000
  S   S1053     1.0  0.58645  0.73995  0.89658  1.0000
  S   S1054     1.0  0.61015  0.74540  0.87385  1.0000
  S   S1055     1.0  0.60269  0.69239  0.95563  1.0000
  S   S1056     1.0  0.56332  0.68539  0.85668  1.0000
  Fe  Fe528     1.0  0.52543  0.89686  0.83716  1.0000
  S   S1057     1.0  0.51121  0.89256  0.82943  1.0000
  S   S1058     1.0  0.53442  0.88261  0.85127  1.0000
  Fe  Fe529     1.0  0.52301  0.92319  0.82273  1.0000
  S   S1059     1.0  0.50788  0.92142  0.81421  1.0000
  S   S1060     1.0  0.53237  0.93960  0.81590  1.0000
  Fe  Fe530     1.0  0.50025  0.91103  0.83304  1.0000
  S   S1061     1.0  0.48051  0.91207  0.84396  1.0000
  Fe  Fe531     1.0  0.52021  0.90313  0.81147  1.0000
  S   S1062     1.0  0.52293  0.89670  0.79380  1.0000
  S   S1063     1.0  0.51415  0.91478  0.84189  1.0000
  S   S1064     1.0  0.53568  0.90545  0.81889  1.0000
  Fe  Fe532     1.0  0.61272  0.89971  0.75894  1.0000
  S   S1065     1.0  0.60694  0.89205  0.74551  1.0000
  S   S1066     1.0  0.63167  0.89325  0.76349  1.0000
  Fe  Fe533     1.0  0.58869  0.91833  0.76295  1.0000
  S   S1067     1.0  0.58073  0.91278  0.74958  1.0000
  S   S1068     1.0  0.57715  0.93089  0.77569  1.0000
  Fe  Fe534     1.0  0.58846  0.89349  0.75864  1.0000
  S   S1069     1.0  0.57699  0.87890  0.76402  1.0000
  S   S1070     1.0  0.58094  0.66917  0.96756  1.0000
  S   S1071     1.0  0.59500  0.89901  0.77291  1.0000
  S   S1072     1.0  0.60702  0.91958  0.75005  1.0000
  Fe  Fe535     1.0  0.61033  0.83018  0.84874  1.0000
  S   S1073     1.0  0.61013  0.83058  0.82910  1.0000
  S   S1074     1.0  0.61622  0.81232  0.86178  1.0000
  Fe  Fe536     1.0  0.60188  0.85823  0.84582  1.0000
  S   S1075     1.0  0.60080  0.86094  0.82605  1.0000
  S   S1076     1.0  0.59559  0.87459  0.85513  1.0000
  Fe  Fe537     1.0  0.59219  0.84420  0.83229  1.0000
  S   S1077     1.0  0.57602  0.84496  0.82412  1.0000
  Fe  Fe538     1.0  0.61882  0.84721  0.82465  1.0000
  S   S1078     1.0  0.63523  0.84859  0.80900  1.0000
  S   S1079     1.0  0.59162  0.84258  0.85237  1.0000
  S   S1080     1.0  0.62069  0.84573  0.84405  1.0000
  Fe  Fe539     1.0  0.60477  0.95589  0.81331  1.0000
  S   S1081     1.0  0.62090  0.95343  0.82223  1.0000
  S   S1082     1.0  0.60748  0.96061  0.79269  1.0000
  Fe  Fe540     1.0  0.58762  0.94759  0.83758  1.0000
  S   S1083     1.0  0.60250  0.94409  0.84845  1.0000
  S   S1084     1.0  0.56906  0.94308  0.84784  1.0000
  Fe  Fe541     1.0  0.60687  0.96239  0.83698  1.0000
  S   S1085     1.0  0.60560  0.97888  0.84563  1.0000
  Fe  Fe542     1.0  0.61495  0.93559  0.83278  1.0000
  S   S1086     1.0  0.62712  0.91662  0.83291  1.0000
  S   S1087     1.0  0.59111  0.96622  0.82694  1.0000
  S   S1088     1.0  0.59969  0.93766  0.82297  1.0000
  C   C2515     1.0  0.50944  0.66097  0.83004  1.0000
  H   H4019     1.0  0.59128  0.67717  0.85942  1.0000
  C   C2516     1.0  0.62987  0.97970  0.84602  1.0000
  H   H4020     1.0  0.38228  0.88153  0.89327  1.0000
  H   H4021     1.0  0.34346  0.81483  0.94384  1.0000
  H   H4022     1.0  0.33859  0.71068  0.82827  1.0000
  C   C2517     1.0  0.33393  0.83357  0.92655  1.0000
  H   H4023     1.0  0.63267  0.97072  0.84349  1.0000
  H   H4024     1.0  0.36308  0.74876  0.85128  1.0000
  H   H4025     1.0  0.62669  0.70453  0.89173  1.0000
  C   C2518     1.0  0.60452  0.88613  0.84894  1.0000
  C   C2519     1.0  0.59982  0.89793  0.85174  1.0000
  C   C2520     1.0  0.60663  0.90737  0.84664  1.0000
  C   C2521     1.0  0.61838  0.90493  0.83907  1.0000
  C   C2522     1.0  0.62311  0.89310  0.83631  1.0000
  C   C2523     1.0  0.61610  0.88377  0.84106  1.0000
  H   H4026     1.0  0.59091  0.89980  0.85788  1.0000
  H   H4027     1.0  0.60292  0.91646  0.84885  1.0000
  H   H4028     1.0  0.63222  0.89112  0.83052  1.0000
  H   H4029     1.0  0.61979  0.87469  0.83883  1.0000
  C   C2524     1.0  0.58561  0.93927  0.78019  1.0000
  C   C2525     1.0  0.58140  0.94269  0.79171  1.0000
  C   C2526     1.0  0.58806  0.94933  0.79552  1.0000
  C   C2527     1.0  0.59882  0.95278  0.78774  1.0000
  C   C2528     1.0  0.60291  0.94956  0.77612  1.0000
  C   C2529     1.0  0.59638  0.94268  0.77241  1.0000
  H   H4030     1.0  0.57301  0.94015  0.79771  1.0000
  H   H4031     1.0  0.58476  0.95202  0.80438  1.0000
  H   H4032     1.0  0.61119  0.95229  0.77006  1.0000
  H   H4033     1.0  0.59954  0.94026  0.76341  1.0000
  C   C2530     1.0  0.63255  0.88128  0.77649  1.0000
  C   C2531     1.0  0.64338  0.87215  0.77667  1.0000
  C   C2532     1.0  0.64415  0.86225  0.78679  1.0000
  C   C2533     1.0  0.63420  0.86158  0.79689  1.0000
  C   C2534     1.0  0.62356  0.87103  0.79696  1.0000
  C   C2535     1.0  0.62266  0.88079  0.78669  1.0000
  H   H4034     1.0  0.65109  0.87258  0.76884  1.0000
  H   H4035     1.0  0.65244  0.85503  0.78674  1.0000
  H   H4036     1.0  0.61604  0.87079  0.80486  1.0000
  H   H4037     1.0  0.61442  0.88802  0.78674  1.0000
  C   C2536     1.0  0.53821  0.89142  0.78627  1.0000
  C   C2537     1.0  0.54016  0.88350  0.77809  1.0000
  C   C2538     1.0  0.55212  0.87949  0.77153  1.0000
  C   C2539     1.0  0.56217  0.88375  0.77273  1.0000
  C   C2540     1.0  0.56028  0.89173  0.78087  1.0000
  C   C2541     1.0  0.54833  0.89537  0.78781  1.0000
  H   H4038     1.0  0.53237  0.88043  0.77684  1.0000
  H   H4039     1.0  0.55353  0.87333  0.76526  1.0000
  H   H4040     1.0  0.56803  0.89503  0.78186  1.0000
  H   H4041     1.0  0.54693  0.90146  0.79410  1.0000
  C   C2542     1.0  0.54257  0.94047  0.82482  1.0000
  C   C2543     1.0  0.55211  0.94710  0.81938  1.0000
  C   C2544     1.0  0.56046  0.94773  0.82631  1.0000
  C   C2545     1.0  0.55910  0.94198  0.83879  1.0000
  C   C2546     1.0  0.54951  0.93542  0.84425  1.0000
  C   C2547     1.0  0.54136  0.93453  0.83726  1.0000
  H   H4042     1.0  0.55307  0.95174  0.80977  1.0000
  H   H4043     1.0  0.56775  0.95291  0.82207  1.0000
  H   H4044     1.0  0.54838  0.93102  0.85393  1.0000
  H   H4045     1.0  0.53398  0.92946  0.84155  1.0000
  C   C2548     1.0  0.54488  0.87124  0.84394  1.0000
  C   C2549     1.0  0.54588  0.87175  0.83136  1.0000
  C   C2550     1.0  0.55512  0.86328  0.82531  1.0000
  C   C2551     1.0  0.56327  0.85429  0.83188  1.0000
  C   C2552     1.0  0.56180  0.85342  0.84457  1.0000
  C   C2553     1.0  0.55267  0.86193  0.85059  1.0000
  H   H4046     1.0  0.53969  0.87874  0.82622  1.0000
  H   H4047     1.0  0.55614  0.86392  0.81550  1.0000
  H   H4048     1.0  0.56763  0.84612  0.84979  1.0000
  H   H4049     1.0  0.55181  0.86141  0.86035  1.0000
  C   C2554     1.0  0.61497  0.71664  0.91817  1.0000
  C   C2555     1.0  0.61486  0.72007  0.92911  1.0000
  C   C2556     1.0  0.61105  0.71258  0.94056  1.0000
  C   C2557     1.0  0.60776  0.70139  0.94112  1.0000
  C   C2558     1.0  0.60828  0.69774  0.93017  1.0000
  C   C2559     1.0  0.61156  0.70550  0.91869  1.0000
  H   H4050     1.0  0.61758  0.72862  0.92873  1.0000
  H   H4051     1.0  0.61074  0.71543  0.94899  1.0000
  H   H4052     1.0  0.60622  0.68893  0.93054  1.0000
  H   H4053     1.0  0.61173  0.70271  0.91029  1.0000
  C   C2560     1.0  0.56820  0.70658  0.88350  1.0000
  C   C2561     1.0  0.57169  0.71067  0.87076  1.0000
  C   C2562     1.0  0.57005  0.70414  0.86261  1.0000
  C   C2563     1.0  0.56530  0.69328  0.86716  1.0000
  C   C2564     1.0  0.56221  0.68893  0.87992  1.0000
  C   C2565     1.0  0.56349  0.69568  0.88809  1.0000
  H   H4054     1.0  0.57526  0.71910  0.86716  1.0000
  H   H4055     1.0  0.57238  0.70758  0.85275  1.0000
  H   H4056     1.0  0.55851  0.68056  0.88348  1.0000
  H   H4057     1.0  0.56077  0.69249  0.89795  1.0000
  C   C2566     1.0  0.62310  0.71605  0.84332  1.0000
  C   C2567     1.0  0.62958  0.71455  0.83147  1.0000
  C   C2568     1.0  0.63577  0.70276  0.82931  1.0000
  C   C2569     1.0  0.63582  0.69247  0.83905  1.0000
  C   C2570     1.0  0.62930  0.69391  0.85093  1.0000
  C   C2571     1.0  0.62276  0.70569  0.85300  1.0000
  Fe  Fe543     1.0  0.65648  0.65939  0.87692  1.0000
  Fe  Fe544     1.0  0.34500  0.85401  0.95448  1.0000
  H   H4058     1.0  0.61742  0.70675  0.86203  1.0000
  C   C2572     1.0  0.59103  0.78422  0.87089  1.0000
  C   C2573     1.0  0.58702  0.79650  0.86506  1.0000
  C   C2574     1.0  0.59476  0.80513  0.86209  1.0000
  C   C2575     1.0  0.60645  0.80160  0.86522  1.0000
  C   C2576     1.0  0.61038  0.78939  0.87128  1.0000
  C   C2577     1.0  0.60273  0.78069  0.87403  1.0000
  H   H4059     1.0  0.57796  0.79930  0.86266  1.0000
  H   H4060     1.0  0.59163  0.81452  0.85744  1.0000
  H   H4061     1.0  0.61939  0.78663  0.87378  1.0000
  H   H4062     1.0  0.60585  0.77129  0.87866  1.0000
  C   C2578     1.0  0.43435  0.69321  0.81554  1.0000
  C   C2579     1.0  0.42371  0.68818  0.81853  1.0000
  H   H4063     1.0  0.36087  0.86127  0.91320  1.0000
  H   H4064     1.0  0.58329  0.96997  0.86704  1.0000
  H   H4065     1.0  0.43380  0.70298  0.81162  1.0000
  H   H4066     1.0  0.38189  0.77315  0.83638  1.0000
  H   H4067     1.0  0.38240  0.67336  0.73963  1.0000
  H   H4068     1.0  0.66019  0.70265  0.86435  1.0000
  H   H4069     1.0  0.62980  0.72251  0.82393  1.0000
  C   C2580     1.0  0.56056  0.66351  0.92057  1.0000
  C   C2581     1.0  0.35654  0.67610  0.80899  1.0000
  C   C2582     1.0  0.36859  0.67024  0.80404  1.0000
  S   S1089     1.0  0.63953  0.65959  0.87024  1.0000
  H   H4070     1.0  0.55767  0.67349  0.91839  1.0000
  C   C2583     1.0  0.37049  0.66347  0.79467  1.0000
  H   H4071     1.0  0.33595  0.81335  0.90234  1.0000
  C   C2584     1.0  0.57307  0.98863  0.85052  1.0000
  C   C2585     1.0  0.45879  0.88525  0.83941  1.0000
  C   C2586     1.0  0.45475  0.89118  0.84947  1.0000
  C   C2587     1.0  0.46131  0.89963  0.85064  1.0000
  C   C2588     1.0  0.47209  0.90196  0.84192  1.0000
  C   C2589     1.0  0.47618  0.89592  0.83196  1.0000
  C   C2590     1.0  0.46951  0.88765  0.83068  1.0000
  H   H4072     1.0  0.44663  0.88922  0.85635  1.0000
  H   H4073     1.0  0.45819  0.90421  0.85843  1.0000
  H   H4074     1.0  0.48443  0.89770  0.82516  1.0000
  H   H4075     1.0  0.47267  0.88311  0.82287  1.0000
  C   C2591     1.0  0.35744  0.88082  0.85064  1.0000
  C   C2592     1.0  0.36994  0.87619  0.84590  1.0000
  C   C2593     1.0  0.37940  0.87985  0.84909  1.0000
  C   C2594     1.0  0.37643  0.88863  0.85656  1.0000
  C   C2595     1.0  0.36393  0.89340  0.86118  1.0000
  C   C2596     1.0  0.35445  0.88927  0.85847  1.0000
  H   H4076     1.0  0.37229  0.86974  0.83976  1.0000
  H   H4077     1.0  0.38900  0.87614  0.84546  1.0000
  H   H4078     1.0  0.36153  0.90026  0.86687  1.0000
  H   H4079     1.0  0.34481  0.89292  0.86212  1.0000
  C   C2597     1.0  0.39179  0.86831  0.92285  1.0000
  C   C2598     1.0  0.39673  0.87499  0.91135  1.0000
  C   C2599     1.0  0.40579  0.86885  0.90283  1.0000
  C   C2600     1.0  0.41030  0.85610  0.90602  1.0000
  C   C2601     1.0  0.40565  0.84948  0.91769  1.0000
  C   C2602     1.0  0.39621  0.85553  0.92600  1.0000
  H   H4080     1.0  0.39339  0.88489  0.90894  1.0000
  H   H4081     1.0  0.40943  0.87403  0.89390  1.0000
  H   H4082     1.0  0.40924  0.83967  0.92030  1.0000
  H   H4083     1.0  0.39247  0.85033  0.93490  1.0000
  C   C2603     1.0  0.36678  0.79490  0.92949  1.0000
  C   C2604     1.0  0.37276  0.78857  0.93923  1.0000
  C   C2605     1.0  0.37645  0.79513  0.94609  1.0000
  C   C2606     1.0  0.37386  0.80811  0.94358  1.0000
  C   C2607     1.0  0.36812  0.81452  0.93362  1.0000
  C   C2608     1.0  0.36468  0.80790  0.92653  1.0000
  H   H4084     1.0  0.37425  0.77856  0.94172  1.0000
  H   H4085     1.0  0.38099  0.79009  0.95368  1.0000
  H   H4086     1.0  0.36631  0.82453  0.93144  1.0000
  H   H4087     1.0  0.36014  0.81280  0.91894  1.0000
  C   C2609     1.0  0.41259  0.80249  0.87268  1.0000
  C   C2610     1.0  0.40598  0.80510  0.86322  1.0000
  C   C2611     1.0  0.40604  0.81624  0.85446  1.0000
  C   C2612     1.0  0.41210  0.82504  0.85558  1.0000
  C   C2613     1.0  0.41858  0.82246  0.86512  1.0000
  C   C2614     1.0  0.41916  0.81103  0.87340  1.0000
  H   H4088     1.0  0.40100  0.79844  0.86255  1.0000
  H   H4089     1.0  0.40117  0.81812  0.84698  1.0000
  H   H4090     1.0  0.42327  0.82917  0.86610  1.0000
  H   H4091     1.0  0.42452  0.80890  0.88052  1.0000
  C   C2615     1.0  0.34745  0.80960  0.87271  1.0000
  H   H4092     1.0  0.34908  0.76961  0.84770  1.0000
  H   H4093     1.0  0.41580  0.93371  0.83217  1.0000
  H   H4094     1.0  0.35049  0.79856  0.89043  1.0000
  H   H4095     1.0  0.42897  0.89478  0.84280  1.0000
  C   C2616     1.0  0.37976  0.73373  0.87773  1.0000
  C   C2617     1.0  0.38699  0.72495  0.87070  1.0000
  C   C2618     1.0  0.38141  0.71849  0.86531  1.0000
  C   C2619     1.0  0.36847  0.72061  0.86703  1.0000
  C   C2620     1.0  0.36121  0.72933  0.87414  1.0000
  C   C2621     1.0  0.36680  0.73583  0.87949  1.0000
  H   H4096     1.0  0.39701  0.72313  0.86941  1.0000
  H   H4097     1.0  0.38713  0.71181  0.85989  1.0000
  H   H4098     1.0  0.35119  0.73093  0.87567  1.0000
  H   H4099     1.0  0.36111  0.74222  0.88524  1.0000
  H   H4100     1.0  0.60586  0.92427  0.80011  1.0000
  N   N254      1.0  0.57176  0.90209  0.83060  1.0000
  C   C2622     1.0  0.56942  0.90504  0.84297  1.0000
  C   C2623     1.0  0.58529  0.89885  0.82588  1.0000
  C   C2624     1.0  0.56625  0.91298  0.82207  1.0000
  C   C2625     1.0  0.56607  0.89148  0.83153  1.0000
  H   H4101     1.0  0.55928  0.90753  0.84680  1.0000
  H   H4102     1.0  0.57356  0.91302  0.84269  1.0000
  H   H4103     1.0  0.57345  0.89698  0.84963  1.0000
  H   H4104     1.0  0.58996  0.90639  0.82574  1.0000
  H   H4105     1.0  0.58960  0.89032  0.83180  1.0000
  H   H4106     1.0  0.58740  0.89706  0.81637  1.0000
  H   H4107     1.0  0.56804  0.91123  0.81257  1.0000
  H   H4108     1.0  0.57006  0.92127  0.82146  1.0000
  H   H4109     1.0  0.55601  0.91546  0.82521  1.0000
  H   H4110     1.0  0.56749  0.88900  0.82238  1.0000
  H   H4111     1.0  0.55588  0.89357  0.83522  1.0000
  H   H4112     1.0  0.57004  0.88307  0.83788  1.0000
  C   C2626     1.0  0.40933  0.91309  0.84736  1.0000
  H   H4113     1.0  0.42529  0.92543  0.85060  1.0000
  H   H4114     1.0  0.41454  0.92336  0.82322  1.0000
  H   H4115     1.0  0.40328  0.91111  0.84210  1.0000
  H   H4116     1.0  0.40439  0.92164  0.85092  1.0000
  H   H4117     1.0  0.41002  0.90533  0.85551  1.0000
  N   N255      1.0  0.54019  0.93525  0.77834  1.0000
  C   C2627     1.0  0.54597  0.94276  0.78324  1.0000
  C   C2628     1.0  0.53334  0.94337  0.76891  1.0000
  C   C2629     1.0  0.53151  0.92908  0.78854  1.0000
  C   C2630     1.0  0.54992  0.92578  0.77271  1.0000
  H   H4118     1.0  0.55124  0.93688  0.79038  1.0000
  H   H4119     1.0  0.53889  0.94988  0.78772  1.0000
  H   H4120     1.0  0.55265  0.94754  0.77583  1.0000
  H   H4121     1.0  0.52592  0.95061  0.77287  1.0000
  H   H4122     1.0  0.53966  0.94816  0.76108  1.0000
  H   H4123     1.0  0.52885  0.93796  0.76508  1.0000
  H   H4124     1.0  0.52400  0.93596  0.79295  1.0000
  H   H4125     1.0  0.53639  0.92312  0.79588  1.0000
  H   H4126     1.0  0.52711  0.92309  0.78533  1.0000
  H   H4127     1.0  0.54588  0.91967  0.76929  1.0000
  H   H4128     1.0  0.55552  0.91974  0.77949  1.0000
  H   H4129     1.0  0.55652  0.93010  0.76481  1.0000
  N   N256      1.0  0.36921  0.83819  0.86491  1.0000
  C   C2631     1.0  0.36449  0.83343  0.87813  1.0000
  C   C2632     1.0  0.37356  0.82781  0.85829  1.0000
  C   C2633     1.0  0.37962  0.84432  0.86361  1.0000
  C   C2634     1.0  0.35914  0.84722  0.85960  1.0000
  H   H4130     1.0  0.36077  0.84106  0.88334  1.0000
  H   H4131     1.0  0.65560  0.68862  0.87347  1.0000
  H   H4132     1.0  0.35680  0.82857  0.87934  1.0000
  H   H4133     1.0  0.37813  0.83089  0.84852  1.0000
  H   H4134     1.0  0.38028  0.82022  0.86280  1.0000
  H   H4135     1.0  0.36574  0.82372  0.85812  1.0000
  H   H4136     1.0  0.37663  0.85231  0.86836  1.0000
  H   H4137     1.0  0.60179  0.69933  0.97913  1.0000
  H   H4138     1.0  0.35102  0.84304  0.86053  1.0000
  H   H4139     1.0  0.36226  0.85092  0.84959  1.0000
  H   H4140     1.0  0.35569  0.85524  0.86429  1.0000
  N   N257      1.0  0.49853  0.87571  0.86646  1.0000
  C   C2635     1.0  0.48868  0.87721  0.85958  1.0000
  C   C2636     1.0  0.50980  0.86731  0.86128  1.0000
  C   C2637     1.0  0.49421  0.87041  0.87962  1.0000
  C   C2638     1.0  0.50143  0.88793  0.86536  1.0000
  H   H4141     1.0  0.48010  0.88361  0.86317  1.0000
  H   H4142     1.0  0.48616  0.86822  0.86019  1.0000
  H   H4143     1.0  0.49166  0.88121  0.84961  1.0000
  H   H4144     1.0  0.51748  0.86603  0.86619  1.0000
  H   H4145     1.0  0.50798  0.85800  0.86190  1.0000
  H   H4146     1.0  0.51337  0.87107  0.85137  1.0000
  H   H4147     1.0  0.49192  0.86118  0.88081  1.0000
  H   H4148     1.0  0.48571  0.87654  0.88380  1.0000
  H   H4149     1.0  0.50144  0.86919  0.88506  1.0000
  H   H4150     1.0  0.50900  0.88718  0.87024  1.0000
  H   H4151     1.0  0.49314  0.89456  0.86911  1.0000
  H   H4152     1.0  0.50462  0.89221  0.85556  1.0000
  N   N258      1.0  0.57104  0.70201  0.92948  1.0000
  C   C2639     1.0  0.57464  0.71423  0.92520  1.0000
  C   C2640     1.0  0.57243  0.69709  0.94243  1.0000
  C   C2641     1.0  0.57911  0.69336  0.92164  1.0000
  C   C2642     1.0  0.55798  0.70331  0.92868  1.0000
  H   H4153     1.0  0.57381  0.71823  0.91544  1.0000
  H   H4154     1.0  0.58444  0.71357  0.92574  1.0000
  H   H4155     1.0  0.56865  0.72100  0.93083  1.0000
  H   H4156     1.0  0.56956  0.68800  0.94608  1.0000
  H   H4157     1.0  0.58223  0.69571  0.94331  1.0000
  H   H4158     1.0  0.56664  0.70347  0.94857  1.0000
  H   H4159     1.0  0.57685  0.68398  0.92483  1.0000
  H   H4160     1.0  0.58905  0.69242  0.92164  1.0000
  H   H4161     1.0  0.57801  0.69657  0.91190  1.0000
  H   H4162     1.0  0.55506  0.69418  0.93178  1.0000
  H   H4163     1.0  0.55661  0.70704  0.91901  1.0000
  H   H4164     1.0  0.55156  0.70969  0.93451  1.0000
  N   N259      1.0  0.40642  0.80945  0.91391  1.0000
  C   C2643     1.0  0.40989  0.82078  0.90550  1.0000
  C   C2644     1.0  0.39555  0.80694  0.91083  1.0000
  C   C2645     1.0  0.40333  0.81124  0.92679  1.0000
  C   C2646     1.0  0.41692  0.79882  0.91252  1.0000
  H   H4165     1.0  0.41834  0.82273  0.90727  1.0000
  H   H4166     1.0  0.40234  0.82907  0.90662  1.0000
  H   H4167     1.0  0.41186  0.82002  0.89567  1.0000
  H   H4168     1.0  0.39256  0.79854  0.91715  1.0000
  H   H4169     1.0  0.38750  0.81482  0.91159  1.0000
  H   H4170     1.0  0.39766  0.80528  0.90125  1.0000
  H   H4171     1.0  0.41131  0.81318  0.92943  1.0000
  H   H4172     1.0  0.40061  0.80291  0.93346  1.0000
  H   H4173     1.0  0.39543  0.81919  0.92818  1.0000
  H   H4174     1.0  0.41452  0.79010  0.91867  1.0000
  H   H4175     1.0  0.42531  0.80032  0.91481  1.0000
  H   H4176     1.0  0.41950  0.79723  0.90289  1.0000
  N   N260      1.0  0.44801  0.83600  0.82649  1.0000
  C   C2647     1.0  0.44218  0.84917  0.82645  1.0000
  C   C2648     1.0  0.44107  0.83066  0.82052  1.0000
  C   C2649     1.0  0.44775  0.82912  0.83937  1.0000
  C   C2650     1.0  0.46102  0.83507  0.81966  1.0000
  H   H4177     1.0  0.44704  0.85344  0.83110  1.0000
  H   H4178     1.0  0.43230  0.85024  0.83137  1.0000
  H   H4179     1.0  0.44236  0.85472  0.81690  1.0000
  H   H4180     1.0  0.44518  0.82071  0.82040  1.0000
  H   H4181     1.0  0.43121  0.83120  0.82552  1.0000
  H   H4182     1.0  0.44096  0.83568  0.81082  1.0000
  H   H4183     1.0  0.43806  0.82967  0.84476  1.0000
  H   H4184     1.0  0.45284  0.83293  0.84421  1.0000
  H   H4185     1.0  0.45200  0.81913  0.83979  1.0000
  H   H4186     1.0  0.46645  0.83914  0.82391  1.0000
  H   H4187     1.0  0.46156  0.84012  0.80989  1.0000
  H   H4188     1.0  0.46576  0.82524  0.81959  1.0000
  N   N261      1.0  0.60785  0.83706  0.88552  1.0000
  C   C2651     1.0  0.60757  0.83717  0.89849  1.0000
  C   C2652     1.0  0.60389  0.84985  0.87885  1.0000
  C   C2653     1.0  0.59932  0.82932  0.88519  1.0000
  C   C2654     1.0  0.62062  0.83192  0.87954  1.0000
  H   H4189     1.0  0.61050  0.82764  0.90377  1.0000
  H   H4190     1.0  0.59806  0.84103  0.90326  1.0000
  H   H4191     1.0  0.61390  0.84294  0.89907  1.0000
  H   H4192     1.0  0.60410  0.85009  0.86903  1.0000
  H   H4193     1.0  0.59424  0.85406  0.88294  1.0000
  H   H4194     1.0  0.61008  0.85603  0.87885  1.0000
  H   H4195     1.0  0.60226  0.81948  0.88974  1.0000
  H   H4196     1.0  0.59912  0.82923  0.87555  1.0000
  H   H4197     1.0  0.58963  0.83277  0.88980  1.0000
  H   H4198     1.0  0.62378  0.82210  0.88400  1.0000
  H   H4199     1.0  0.62737  0.83737  0.87982  1.0000
  H   H4200     1.0  0.62122  0.83198  0.86966  1.0000
  C   C2655     1.0  0.36033  0.66261  0.79029  1.0000
  H   H4201     1.0  0.62156  0.90906  0.78112  1.0000
  S   S1090     1.0  0.56408  0.66665  0.94236  1.0000
  N   N262      1.0  0.36762  0.76614  0.85085  1.0000
  C   C2656     1.0  0.35753  0.77374  0.84456  1.0000
  C   C2657     1.0  0.37856  0.77203  0.84655  1.0000
  H   H4202     1.0  0.36017  0.77453  0.86674  1.0000
  C   C2658     1.0  0.36333  0.76523  0.86431  1.0000
  C   C2659     1.0  0.61020  0.68128  0.83106  1.0000
  H   H4203     1.0  0.35540  0.76038  0.86800  1.0000
  H   H4204     1.0  0.37643  0.67119  0.80719  1.0000
  H   H4205     1.0  0.60698  0.66052  0.89457  1.0000
  H   H4206     1.0  0.33773  0.80929  0.92674  1.0000
  S   S1091     1.0  0.65378  0.66818  0.89313  1.0000
  H   H4207     1.0  0.62802  0.69835  0.87833  1.0000
  C   C2660     1.0  0.42442  0.67551  0.82359  1.0000
  H   H4208     1.0  0.40667  0.66171  0.86417  1.0000
  C   C2661     1.0  0.34838  0.66837  0.79537  1.0000
  H   H4209     1.0  0.51615  0.66163  0.82104  1.0000
  H   H4210     1.0  0.63645  0.67496  0.91488  1.0000
  N   N263      1.0  0.36381  0.87787  0.89985  1.0000
  C   C2662     1.0  0.36827  0.86488  0.90570  1.0000
  C   C2663     1.0  0.37378  0.88222  0.88982  1.0000
  C   C2664     1.0  0.36032  0.88574  0.90917  1.0000
  C   C2665     1.0  0.35291  0.87862  0.89467  1.0000
  H   H4211     1.0  0.49917  0.67606  0.81132  1.0000
  H   H4212     1.0  0.37629  0.86405  0.90998  1.0000
  H   H4213     1.0  0.37129  0.85873  0.89889  1.0000
  C   C2666     1.0  0.64565  0.65942  0.90615  1.0000
  H   H4214     1.0  0.37082  0.89209  0.88542  1.0000
  C   C2667     1.0  0.61680  0.67727  0.98430  1.0000
  H   H4215     1.0  0.35402  0.88183  0.91762  1.0000
  H   H4216     1.0  0.41818  0.66846  0.86678  1.0000
  H   H4217     1.0  0.36859  0.88653  0.91219  1.0000
  H   H4218     1.0  0.55730  0.66095  0.90363  1.0000
  H   H4219     1.0  0.34889  0.88836  0.89066  1.0000
  H   H4220     1.0  0.37650  0.87668  0.88248  1.0000
  N   N264      1.0  0.60141  0.77097  0.83665  1.0000
  C   C2668     1.0  0.60965  0.76711  0.84566  1.0000
  C   C2669     1.0  0.59173  0.76341  0.84059  1.0000
  C   C2670     1.0  0.60882  0.76910  0.82438  1.0000
  C   C2671     1.0  0.59544  0.78418  0.83607  1.0000
  H   H4221     1.0  0.61682  0.77288  0.84328  1.0000
  H   H4222     1.0  0.61452  0.75725  0.84615  1.0000
  H   H4223     1.0  0.60429  0.76802  0.85507  1.0000
  H   H4224     1.0  0.58539  0.76596  0.83397  1.0000
  H   H4225     1.0  0.59590  0.75335  0.84135  1.0000
  H   H4226     1.0  0.58591  0.76472  0.84979  1.0000
  H   H4227     1.0  0.61625  0.77462  0.82118  1.0000
  H   H4228     1.0  0.60291  0.77188  0.81733  1.0000
  H   H4229     1.0  0.61339  0.75916  0.82462  1.0000
  H   H4230     1.0  0.58945  0.78570  0.84513  1.0000
  H   H4231     1.0  0.58941  0.78753  0.82912  1.0000
  H   H4232     1.0  0.60244  0.79016  0.83368  1.0000
  C   C2672     1.0  0.62918  0.92731  0.79626  1.0000
  H   H4233     1.0  0.51038  0.66798  0.83481  1.0000
  H   H4234     1.0  0.64829  0.98036  0.84739  1.0000
  H   H4235     1.0  0.64702  0.69815  0.86211  1.0000
  H   H4236     1.0  0.33841  0.68606  0.84689  1.0000
  H   H4237     1.0  0.65890  0.70999  0.88348  1.0000
  N   N265      1.0  0.62524  0.91627  0.79520  1.0000
  H   H4238     1.0  0.34187  0.69783  0.86088  1.0000
  C   C2673     1.0  0.57754  0.96757  0.86175  1.0000
  H   H4239     1.0  0.57900  0.99146  0.85530  1.0000
  H   H4240     1.0  0.64363  0.90497  0.79371  1.0000
  C   C2674     1.0  0.61274  0.91575  0.80295  1.0000
  H   H4241     1.0  0.35480  0.78328  0.84655  1.0000
  Fe  Fe545     1.0  0.59878  0.67394  0.95584  1.0000
  C   C2675     1.0  0.61737  0.98570  0.84741  1.0000
  C   C2676     1.0  0.37106  0.75358  0.84804  1.0000
  H   H4242     1.0  0.37866  0.74765  0.85270  1.0000
  N   N266      1.0  0.59722  0.85603  0.78896  1.0000
  C   C2677     1.0  0.59067  0.86703  0.79434  1.0000
  C   C2678     1.0  0.60539  0.85991  0.77698  1.0000
  C   C2679     1.0  0.58798  0.84993  0.78714  1.0000
  C   C2680     1.0  0.60482  0.84724  0.79745  1.0000
  H   H4243     1.0  0.58473  0.87373  0.78819  1.0000
  H   H4244     1.0  0.59732  0.87196  0.79574  1.0000
  H   H4245     1.0  0.58450  0.86440  0.80343  1.0000
  H   H4246     1.0  0.61034  0.85188  0.77257  1.0000
  H   H4247     1.0  0.60002  0.86666  0.77038  1.0000
  H   H4248     1.0  0.61255  0.86443  0.77808  1.0000
  H   H4249     1.0  0.59253  0.84159  0.78309  1.0000
  H   H4250     1.0  0.58204  0.85629  0.78081  1.0000
  H   H4251     1.0  0.58166  0.84697  0.79605  1.0000
  H   H4252     1.0  0.59895  0.84404  0.80653  1.0000
  H   H4253     1.0  0.61180  0.85152  0.79920  1.0000
  H   H4254     1.0  0.60998  0.83890  0.79363  1.0000
  S   S1092     1.0  0.46070  0.66413  0.82595  1.0000
  S   S1093     1.0  0.64336  0.67782  0.83592  1.0000
  C   C2681     1.0  0.65202  0.69839  0.86922  1.0000
  H   H4255     1.0  0.61853  0.92561  0.77857  1.0000
  H   H4256     1.0  0.41849  0.66679  0.85150  1.0000
  Fe  Fe546     1.0  0.56068  0.66586  0.86455  1.0000
  H   H4257     1.0  0.41620  0.67161  0.82578  1.0000
  H   H4258     1.0  0.37187  0.82666  0.88251  1.0000
  C   C2682     1.0  0.42034  0.92484  0.82905  1.0000
  C   C2683     1.0  0.48804  0.66185  0.84056  1.0000
  N   N267      1.0  0.56754  0.97810  0.85836  1.0000
  N   N268      1.0  0.64384  0.70529  0.87861  1.0000
  H   H4259     1.0  0.62097  0.65977  0.84322  1.0000
  C   C2684     1.0  0.65086  0.70540  0.88783  1.0000
  H   H4260     1.0  0.37638  0.78139  0.84888  1.0000
  C   C2685     1.0  0.63323  0.69923  0.88496  1.0000
  H   H4261     1.0  0.36039  0.77465  0.83437  1.0000
  H   H4262     1.0  0.64069  0.70165  0.82009  1.0000
  C   C2686     1.0  0.43586  0.66789  0.82554  1.0000
  H   H4263     1.0  0.63473  0.90425  0.80921  1.0000
  C   C2687     1.0  0.63746  0.66514  0.91545  1.0000
  H   H4264     1.0  0.35557  0.89530  0.90552  1.0000
  H   H4265     1.0  0.55520  0.97401  0.87584  1.0000
  H   H4266     1.0  0.35535  0.87328  0.88718  1.0000
  C   C2688     1.0  0.44565  0.68570  0.81787  1.0000
  H   H4267     1.0  0.38341  0.84799  0.85373  1.0000
  H   H4268     1.0  0.37090  0.76009  0.86933  1.0000
  Fe  Fe547     1.0  0.65115  0.66428  0.85141  1.0000
  H   H4269     1.0  0.64695  0.72298  0.86755  1.0000
  H   H4270     1.0  0.33719  0.67956  0.80834  1.0000
  C   C2689     1.0  0.56016  0.97435  0.85150  1.0000
  H   H4271     1.0  0.43049  0.90905  0.85532  1.0000
  H   H4272     1.0  0.62909  0.68595  0.85845  1.0000
  H   H4273     1.0  0.34130  0.71902  0.83855  1.0000
  H   H4274     1.0  0.61019  0.65974  0.85777  1.0000
  H   H4275     1.0  0.63136  0.89644  0.79893  1.0000
  H   H4276     1.0  0.62942  0.92709  0.80601  1.0000
  H   H4277     1.0  0.63629  0.68975  0.89019  1.0000
  C   C2690     1.0  0.42945  0.91669  0.84713  1.0000
  H   H4278     1.0  0.49348  0.68263  0.82495  1.0000
  H   H4279     1.0  0.38743  0.83777  0.86749  1.0000
  H   H4280     1.0  0.63423  0.91701  0.77608  1.0000
  H   H4281     1.0  0.62269  0.93600  0.79311  1.0000
  C   C2691     1.0  0.61418  0.66584  0.84919  1.0000
  H   H4282     1.0  0.62413  0.66258  0.93259  1.0000
  H   H4283     1.0  0.59277  0.66041  0.84861  1.0000
  N   N269      1.0  0.42171  0.91437  0.83965  1.0000
  C   C2692     1.0  0.63871  0.98520  0.84824  1.0000
  H   H4284     1.0  0.34539  0.87492  0.90187  1.0000
  H   H4285     1.0  0.47824  0.66325  0.83966  1.0000
  H   H4286     1.0  0.55593  0.96635  0.85711  1.0000
  H   H4287     1.0  0.64487  0.71044  0.89512  1.0000
  H   H4288     1.0  0.58874  0.68873  0.84594  1.0000
  H   H4289     1.0  0.42952  0.92603  0.82304  1.0000
  H   H4290     1.0  0.34215  0.82255  0.85667  1.0000
  H   H4291     1.0  0.61646  0.68043  0.97432  1.0000
  H   H4292     1.0  0.45380  0.68971  0.81573  1.0000
  H   H4293     1.0  0.48330  0.67664  0.81928  1.0000
  H   H4294     1.0  0.57921  0.98615  0.84184  1.0000
  H   H4295     1.0  0.61278  0.91495  0.81286  1.0000
  H   H4296     1.0  0.38643  0.76636  0.85095  1.0000
  H   H4297     1.0  0.43897  0.91743  0.84168  1.0000
  H   H4298     1.0  0.63859  0.92800  0.79059  1.0000
  C   C2693     1.0  0.42775  0.90284  0.83505  1.0000
  C   C2694     1.0  0.34550  0.80699  0.88561  1.0000
  C   C2695     1.0  0.63412  0.90497  0.79946  1.0000
  C   C2696     1.0  0.55943  0.98181  0.86971  1.0000
  H   H4299     1.0  0.42217  0.90071  0.82942  1.0000
  H   H4300     1.0  0.60299  0.65981  0.83395  1.0000
  N   N270      1.0  0.60440  0.67392  0.84273  1.0000
  H   H4301     1.0  0.65448  0.69580  0.89257  1.0000
  H   H4302     1.0  0.57383  0.95925  0.86731  1.0000
  H   H4303     1.0  0.56474  0.98471  0.87507  1.0000
  H   H4304     1.0  0.60940  0.90765  0.80221  1.0000
  H   H4305     1.0  0.43717  0.90339  0.82923  1.0000
  S   S1094     1.0  0.59730  0.66696  0.93977  1.0000
  C   C2697     1.0  0.59710  0.66624  0.84002  1.0000
  C   C2698     1.0  0.62488  0.91704  0.78219  1.0000
  C   C2699     1.0  0.59611  0.68238  0.85065  1.0000
  H   H4306     1.0  0.60310  0.68731  0.82582  1.0000
  H   H4307     1.0  0.60128  0.68824  0.85305  1.0000
  H   H4308     1.0  0.58397  0.96483  0.85339  1.0000
  H   H4309     1.0  0.35979  0.68236  0.74300  1.0000
  H   H4310     1.0  0.56603  0.97134  0.84295  1.0000
  H   H4311     1.0  0.34374  0.82947  0.92303  1.0000
  H   H4312     1.0  0.61682  0.67521  0.82499  1.0000
  C   C2700     1.0  0.34075  0.82050  0.86664  1.0000
  H   H4313     1.0  0.55254  0.98206  0.84870  1.0000
  C   C2701     1.0  0.63920  0.71815  0.87252  1.0000
  C   C2702     1.0  0.34650  0.67506  0.80462  1.0000
  C   C2703     1.0  0.34022  0.70985  0.83768  1.0000
  H   H4314     1.0  0.63313  0.72368  0.87936  1.0000
  H   H4315     1.0  0.59360  0.68089  0.98036  1.0000
  Fe  Fe548     1.0  0.59982  0.91194  0.73749  1.0000
  H   H4316     1.0  0.48852  0.66890  0.84552  1.0000
  H   H4317     1.0  0.33558  0.87825  0.93815  1.0000
  H   H4318     1.0  0.61958  0.67136  0.85175  1.0000
  H   H4319     1.0  0.61556  0.68738  0.83280  1.0000
  H   H4320     1.0  0.36712  0.66006  0.75060  1.0000
  H   H4321     1.0  0.58940  0.67204  0.83545  1.0000
  N   N271      1.0  0.49658  0.66275  0.82837  1.0000
  C   C2704     1.0  0.33719  0.81538  0.89240  1.0000
  Fe  Fe549     1.0  0.58030  0.66082  0.95196  1.0000
  H   H4322     1.0  0.55173  0.98972  0.86751  1.0000
  C   C2705     1.0  0.49300  0.67508  0.82063  1.0000
  H   H4323     1.0  0.34926  0.70341  0.83822  1.0000
  C   C2706     1.0  0.41668  0.66223  0.86145  1.0000
  H   H4324     1.0  0.33405  0.82756  0.95065  1.0000
  H   H4325     1.0  0.33398  0.84149  0.93055  1.0000
  H   H4326     1.0  0.62478  0.68030  0.98579  1.0000
  H   H4327     1.0  0.37978  0.65925  0.79061  1.0000
  H   H4328     1.0  0.61887  0.66700  0.98619  1.0000
  Fe  Fe550     1.0  0.74765  0.11650  0.13300  1.0000
  S   S1095     1.0  0.75844  0.12679  0.13958  1.0000
  S   S1096     1.0  0.72668  0.12052  0.13521  1.0000
  Fe  Fe551     1.0  0.77042  0.09781  0.12468  1.0000
  S   S1097     1.0  0.78337  0.10631  0.13009  1.0000
  S   S1098     1.0  0.77718  0.08105  0.11609  1.0000
  Fe  Fe552     1.0  0.76880  0.10796  0.14722  1.0000
  S   S1099     1.0  0.77623  0.10241  0.16471  1.0000
  Fe  Fe553     1.0  0.77235  0.12445  0.12205  1.0000
  S   S1100     1.0  0.78367  0.13861  0.11125  1.0000
  S   S1101     1.0  0.75666  0.09778  0.14252  1.0000
  S   S1102     1.0  0.76077  0.11580  0.11472  1.0000
  Fe  Fe554     1.0  0.83367  0.03733  0.13317  1.0000
  S   S1103     1.0  0.84082  0.05334  0.12001  1.0000
  S   S1104     1.0  0.81518  0.04208  0.14560  1.0000
  Fe  Fe555     1.0  0.85678  0.01860  0.12560  1.0000
  S   S1105     1.0  0.86601  0.03317  0.11200  1.0000
  H   H4329     1.0  0.85782  0.02213  0.07031  1.0000
  Fe  Fe556     1.0  0.85862  0.04473  0.12645  1.0000
  S   S1106     1.0  0.86935  0.05811  0.12815  1.0000
  Fe  Fe557     1.0  0.84756  0.04060  0.10666  1.0000
  S   S1107     1.0  0.84598  0.04822  0.08686  1.0000
  S   S1108     1.0  0.85107  0.02950  0.14077  1.0000
  S   S1109     1.0  0.83862  0.02520  0.11918  1.0000
  Fe  Fe558     1.0  0.84888  0.10003  0.17247  1.0000
  S   S1110     1.0  0.86583  0.10767  0.17032  1.0000
  S   S1111     1.0  0.84844  0.07975  0.17675  1.0000
  Fe  Fe559     1.0  0.83260  0.12540  0.16614  1.0000
  S   S1112     1.0  0.84819  0.13525  0.16348  1.0000
  S   S1113     1.0  0.81428  0.13586  0.16113  1.0000
  Fe  Fe560     1.0  0.85952  0.12019  0.15332  1.0000
  S   S1114     1.0  0.87227  0.12361  0.13458  1.0000
  Fe  Fe561     1.0  0.85299  0.12195  0.18080  1.0000
  S   S1115     1.0  0.85470  0.12673  0.19863  1.0000
  S   S1116     1.0  0.84361  0.11140  0.15485  1.0000
  S   S1117     1.0  0.83631  0.11322  0.18407  1.0000
  Fe  Fe562     1.0  0.83580  0.12072  0.06266  1.0000
  S   S1118     1.0  0.83891  0.14010  0.05821  1.0000
  S   S1119     1.0  0.81680  0.11693  0.06538  1.0000
  Fe  Fe563     1.0  0.86274  0.10953  0.06269  1.0000
  S   S1120     1.0  0.86824  0.12804  0.05807  1.0000
  S   S1121     1.0  0.87575  0.09158  0.06790  1.0000
  Fe  Fe564     1.0  0.85108  0.13312  0.07220  1.0000
  S   S1122     1.0  0.84887  0.14407  0.08682  1.0000
  Fe  Fe565     1.0  0.85553  0.13313  0.04444  1.0000
  S   S1123     1.0  0.85859  0.14544  0.02539  1.0000
  S   S1124     1.0  0.84656  0.11428  0.07776  1.0000
  S   S1125     1.0  0.85147  0.11412  0.04798  1.0000
  C   C2707     1.0  0.89305  0.09494  0.09376  1.0000
  S   S1126     1.0  0.89343  0.14298  0.22036  1.0000
  H   H4330     1.0  0.90017  0.08761  0.09799  1.0000
  H   H4331     1.0  0.88382  0.11304  0.21677  1.0000
  C   C2708     1.0  0.72300  0.08967  0.12494  1.0000
  H   H4332     1.0  0.89768  0.10176  0.21881  1.0000
  S   S1127     1.0  0.67896  0.15673  0.08088  1.0000
  C   C2709     1.0  0.85729  0.01265  0.09435  1.0000
  H   H4333     1.0  0.88532  0.10841  0.11158  1.0000
  H   H4334     1.0  0.87095  0.09743  0.22429  1.0000
  H   H4335     1.0  0.70999  0.15125  0.10424  1.0000
  Fe  Fe566     1.0  0.68284  0.13625  0.08837  1.0000
  S   S1128     1.0  0.70297  0.12739  0.08877  1.0000
  H   H4336     1.0  0.73668  0.12576  0.10877  1.0000
  H   H4337     1.0  0.88426  0.99737  0.07929  1.0000
  C   C2710     1.0  0.87723  0.09234  0.23084  1.0000
  H   H4338     1.0  0.85452  0.16021  0.00180  1.0000
  H   H4339     1.0  0.88879  0.09225  0.11857  1.0000
  C   C2711     1.0  0.88208  0.09951  0.11370  1.0000
  H   H4340     1.0  0.84674  0.99575  0.12096  1.0000
  H   H4341     1.0  0.89648  0.10378  0.09099  1.0000
  C   C2712     1.0  0.68750  0.16825  0.12274  1.0000
  C   C2713     1.0  0.82688  0.09410  0.09155  1.0000
  N   N272      1.0  0.81791  0.08614  0.09845  1.0000
  C   C2714     1.0  0.85314  0.15103  0.00228  1.0000
  C   C2715     1.0  0.85488  0.14176  0.01280  1.0000
  C   C2716     1.0  0.84938  0.12744  0.00350  1.0000
  C   C2717     1.0  0.85323  0.12989  0.01325  1.0000
  H   H4342     1.0  0.84793  0.11828  0.00401  1.0000
  H   H4343     1.0  0.85489  0.12259  0.02113  1.0000
  C   C2718     1.0  0.86542  0.13218  0.20388  1.0000
  C   C2719     1.0  0.86212  0.13456  0.21592  1.0000
  C   C2720     1.0  0.87050  0.13805  0.22098  1.0000
  C   C2721     1.0  0.88230  0.13937  0.21402  1.0000
  C   C2722     1.0  0.88550  0.13737  0.20183  1.0000
  C   C2723     1.0  0.87714  0.13372  0.19680  1.0000
  H   H4344     1.0  0.85301  0.13359  0.22140  1.0000
  H   H4345     1.0  0.67562  0.15596  0.11408  1.0000
  H   H4346     1.0  0.89456  0.13846  0.19631  1.0000
  H   H4347     1.0  0.87981  0.13201  0.18751  1.0000
  C   C2724     1.0  0.86571  0.12870  0.12128  1.0000
  C   C2725     1.0  0.85543  0.12455  0.12034  1.0000
  C   C2726     1.0  0.85070  0.12863  0.10941  1.0000
  C   C2727     1.0  0.85606  0.13704  0.09951  1.0000
  C   C2728     1.0  0.86638  0.14104  0.10044  1.0000
  C   C2729     1.0  0.87132  0.13669  0.11117  1.0000
  H   H4348     1.0  0.85121  0.11816  0.12799  1.0000
  H   H4349     1.0  0.84277  0.12546  0.10868  1.0000
  H   H4350     1.0  0.87046  0.14767  0.09291  1.0000
  H   H4351     1.0  0.87932  0.13986  0.11178  1.0000
  C   C2730     1.0  0.85472  0.05990  0.08075  1.0000
  C   C2731     1.0  0.86596  0.05870  0.08425  1.0000
  C   C2732     1.0  0.87260  0.06829  0.07992  1.0000
  C   C2733     1.0  0.86781  0.07931  0.07242  1.0000
  C   C2734     1.0  0.85658  0.08052  0.06885  1.0000
  C   C2735     1.0  0.85019  0.07070  0.07278  1.0000
  H   H4352     1.0  0.86969  0.05034  0.09015  1.0000
  H   H4353     1.0  0.88135  0.06724  0.08257  1.0000
  H   H4354     1.0  0.85292  0.08894  0.06293  1.0000
  H   H4355     1.0  0.84165  0.07160  0.06981  1.0000
  C   C2736     1.0  0.86417  0.06359  0.14200  1.0000
  C   C2737     1.0  0.85712  0.05716  0.15235  1.0000
  C   C2738     1.0  0.85282  0.06186  0.16324  1.0000
  C   C2739     1.0  0.85523  0.07319  0.16367  1.0000
  C   C2740     1.0  0.86235  0.07958  0.15335  1.0000
  C   C2741     1.0  0.86694  0.07470  0.14259  1.0000
  H   H4356     1.0  0.85509  0.04850  0.15202  1.0000
  H   H4357     1.0  0.84739  0.05685  0.17125  1.0000
  H   H4358     1.0  0.86438  0.08826  0.15367  1.0000
  H   H4359     1.0  0.87255  0.07960  0.13469  1.0000
  N   N273      1.0  0.86815  0.01129  0.08412  1.0000
  C   C2742     1.0  0.73799  0.07657  0.11205  1.0000
  H   H4360     1.0  0.88459  0.08563  0.22606  1.0000
  H   H4361     1.0  0.86238  0.10680  0.10235  1.0000
  H   H4362     1.0  0.87955  0.99756  0.09549  1.0000
  C   C2743     1.0  0.78732  0.06986  0.12449  1.0000
  C   C2744     1.0  0.78724  0.07036  0.13661  1.0000
  C   C2745     1.0  0.79558  0.06156  0.14318  1.0000
  C   C2746     1.0  0.80440  0.05260  0.13746  1.0000
  C   C2747     1.0  0.80464  0.05225  0.12525  1.0000
  C   C2748     1.0  0.79589  0.06068  0.11888  1.0000
  H   H4363     1.0  0.78062  0.07739  0.14103  1.0000
  H   H4364     1.0  0.79525  0.06177  0.15266  1.0000
  H   H4365     1.0  0.81139  0.04528  0.12083  1.0000
  H   H4366     1.0  0.79591  0.06022  0.10954  1.0000
  C   C2749     1.0  0.79253  0.13346  0.09790  1.0000
  C   C2750     1.0  0.80479  0.13508  0.09364  1.0000
  C   C2751     1.0  0.81221  0.13016  0.08351  1.0000
  C   C2752     1.0  0.80732  0.12379  0.07751  1.0000
  C   C2753     1.0  0.79496  0.12248  0.08153  1.0000
  C   C2754     1.0  0.78761  0.12722  0.09180  1.0000
  H   H4367     1.0  0.80865  0.13988  0.09834  1.0000
  H   H4368     1.0  0.82173  0.13125  0.08047  1.0000
  H   H4369     1.0  0.79112  0.11761  0.07687  1.0000
  H   H4370     1.0  0.77807  0.12619  0.09489  1.0000
  C   C2755     1.0  0.78624  0.11204  0.16442  1.0000
  C   C2756     1.0  0.78616  0.12329  0.15594  1.0000
  C   C2757     1.0  0.79450  0.13071  0.15533  1.0000
  C   C2758     1.0  0.80342  0.12666  0.16275  1.0000
  C   C2759     1.0  0.80361  0.11534  0.17118  1.0000
  C   C2760     1.0  0.79483  0.10817  0.17221  1.0000
  H   H4371     1.0  0.77955  0.12637  0.14993  1.0000
  H   H4372     1.0  0.79409  0.13952  0.14896  1.0000
  H   H4373     1.0  0.81036  0.11225  0.17708  1.0000
  H   H4374     1.0  0.79484  0.09954  0.17888  1.0000
  C   C2761     1.0  0.72009  0.12275  0.12223  1.0000
  C   C2762     1.0  0.70758  0.12211  0.12397  1.0000
  C   C2763     1.0  0.70219  0.12351  0.11378  1.0000
  C   C2764     1.0  0.70928  0.12566  0.10180  1.0000
  C   C2765     1.0  0.72178  0.12626  0.10008  1.0000
  C   C2766     1.0  0.72713  0.12498  0.11025  1.0000
  H   H4375     1.0  0.70209  0.12035  0.13324  1.0000
  H   H4376     1.0  0.69259  0.12279  0.11518  1.0000
  H   H4377     1.0  0.72731  0.12791  0.09081  1.0000
  N   N274      1.0  0.69264  0.16187  0.11222  1.0000
  C   C2767     1.0  0.68570  0.15210  0.11356  1.0000
  C   C2768     1.0  0.69137  0.17090  0.10055  1.0000
  C   C2769     1.0  0.70590  0.15621  0.11203  1.0000
  C   C2770     1.0  0.87534  0.02089  0.08273  1.0000
  H   H4378     1.0  0.85832  0.00575  0.07332  1.0000
  H   H4379     1.0  0.88350  0.02032  0.07494  1.0000
  H   H4380     1.0  0.87885  0.01992  0.09125  1.0000
  H   H4381     1.0  0.67749  0.17260  0.12309  1.0000
  H   H4382     1.0  0.69636  0.17851  0.09926  1.0000
  H   H4383     1.0  0.69521  0.16638  0.09242  1.0000
  H   H4384     1.0  0.68667  0.14495  0.12212  1.0000
  H   H4385     1.0  0.68907  0.14736  0.10558  1.0000
  H   H4386     1.0  0.69251  0.17571  0.12205  1.0000
  N   N275      1.0  0.81591  0.13679  0.02915  1.0000
  C   C2771     1.0  0.82162  0.12353  0.02967  1.0000
  C   C2772     1.0  0.82226  0.14216  0.03569  1.0000
  C   C2773     1.0  0.80264  0.13802  0.03519  1.0000
  C   C2774     1.0  0.81712  0.14346  0.01613  1.0000
  H   H4387     1.0  0.81722  0.11920  0.02465  1.0000
  H   H4388     1.0  0.82079  0.11822  0.03937  1.0000
  H   H4389     1.0  0.83168  0.12220  0.02546  1.0000
  H   H4390     1.0  0.81857  0.15226  0.03510  1.0000
  H   H4391     1.0  0.82109  0.13767  0.04564  1.0000
  H   H4392     1.0  0.83242  0.14092  0.03177  1.0000
  H   H4393     1.0  0.79753  0.13414  0.03045  1.0000
  H   H4394     1.0  0.79807  0.14790  0.03516  1.0000
  H   H4395     1.0  0.80149  0.13300  0.04503  1.0000
  H   H4396     1.0  0.82703  0.14326  0.01158  1.0000
  H   H4397     1.0  0.81246  0.15338  0.01537  1.0000
  H   H4398     1.0  0.81311  0.13925  0.01065  1.0000
  H   H4399     1.0  0.72153  0.09578  0.13165  1.0000
  H   H4400     1.0  0.74037  0.08341  0.13853  1.0000
  H   H4401     1.0  0.81317  0.09447  0.11437  1.0000
  C   C2775     1.0  0.82250  0.07369  0.09548  1.0000
  H   H4402     1.0  0.86021  0.01174  0.10317  1.0000
  C   C2776     1.0  0.87661  0.08434  0.10569  1.0000
  C   C2777     1.0  0.84934  0.14858  0.99248  1.0000
  H   H4403     1.0  0.86562  0.11465  0.23496  1.0000
  C   C2778     1.0  0.84725  0.13681  0.99316  1.0000
  H   H4404     1.0  0.74802  0.07276  0.10877  1.0000
  H   H4405     1.0  0.73753  0.06942  0.13630  1.0000
  H   H4406     1.0  0.68825  0.16167  0.13169  1.0000
  H   H4407     1.0  0.82308  0.07398  0.08555  1.0000
  H   H4408     1.0  0.88335  0.07662  0.11006  1.0000
  C   C2779     1.0  0.87605  0.99886  0.08689  1.0000
  H   H4409     1.0  0.73330  0.06860  0.11642  1.0000
  H   H4410     1.0  0.74168  0.10138  0.12096  1.0000
  H   H4411     1.0  0.82834  0.09478  0.08140  1.0000
  H   H4412     1.0  0.86779  0.13979  0.23026  1.0000
  H   H4413     1.0  0.73404  0.08171  0.10377  1.0000
  H   H4414     1.0  0.85102  0.02185  0.09254  1.0000
  H   H4415     1.0  0.80150  0.10052  0.09802  1.0000
  H   H4416     1.0  0.71868  0.09537  0.11705  1.0000
  H   H4417     1.0  0.89242  0.09242  0.08515  1.0000
  C   C2780     1.0  0.81653  0.08519  0.11185  1.0000
  H   H4418     1.0  0.80663  0.09353  0.08469  1.0000
  C   C2781     1.0  0.74273  0.09511  0.11457  1.0000
  N   N276      1.0  0.88089  0.09620  0.10240  1.0000
  H   H4419     1.0  0.82355  0.10370  0.09327  1.0000
  H   H4420     1.0  0.81635  0.06718  0.10094  1.0000
  H   H4421     1.0  0.83614  0.09037  0.09410  1.0000
  H   H4422     1.0  0.82551  0.08092  0.11486  1.0000
  C   C2782     1.0  0.80575  0.09161  0.09489  1.0000
  H   H4423     1.0  0.79908  0.08532  0.09906  1.0000
  N   N277      1.0  0.81869  0.07999  0.15503  1.0000
  C   C2783     1.0  0.80661  0.08632  0.15164  1.0000
  C   C2784     1.0  0.82865  0.08582  0.14634  1.0000
  C   C2785     1.0  0.82108  0.06677  0.15443  1.0000
  C   C2786     1.0  0.81845  0.08105  0.16772  1.0000
  H   H4424     1.0  0.79876  0.08266  0.15840  1.0000
  H   H4425     1.0  0.80619  0.08513  0.14241  1.0000
  H   H4426     1.0  0.80480  0.09644  0.15139  1.0000
  H   H4427     1.0  0.83787  0.08125  0.14863  1.0000
  H   H4428     1.0  0.82915  0.08518  0.13668  1.0000
  H   H4429     1.0  0.82721  0.09578  0.14670  1.0000
  H   H4430     1.0  0.83007  0.06164  0.15700  1.0000
  H   H4431     1.0  0.82147  0.06558  0.14497  1.0000
  H   H4432     1.0  0.81371  0.06208  0.16082  1.0000
  H   H4433     1.0  0.81051  0.07756  0.17445  1.0000
  H   H4434     1.0  0.81768  0.09082  0.16834  1.0000
  H   H4435     1.0  0.82709  0.07565  0.17089  1.0000
  N   N278      1.0  0.81781  0.15167  0.12395  1.0000
  C   C2787     1.0  0.81882  0.15717  0.11064  1.0000
  C   C2788     1.0  0.81607  0.13879  0.12623  1.0000
  C   C2789     1.0  0.80704  0.15898  0.13114  1.0000
  C   C2790     1.0  0.82926  0.15175  0.12782  1.0000
  H   H4436     1.0  0.82678  0.15177  0.10495  1.0000
  H   H4437     1.0  0.82034  0.16682  0.10850  1.0000
  H   H4438     1.0  0.81026  0.15736  0.10747  1.0000
  H   H4439     1.0  0.81584  0.13416  0.13608  1.0000
  H   H4440     1.0  0.80722  0.13844  0.12392  1.0000
  H   H4441     1.0  0.82377  0.13315  0.12062  1.0000
  H   H4442     1.0  0.80782  0.16884  0.12933  1.0000
  H   H4443     1.0  0.80634  0.15533  0.14125  1.0000
  H   H4444     1.0  0.79816  0.15871  0.12886  1.0000
  H   H4445     1.0  0.83764  0.14676  0.12229  1.0000
  H   H4446     1.0  0.82902  0.14721  0.13772  1.0000
  H   H4447     1.0  0.83060  0.16134  0.12666  1.0000
  H   H4448     1.0  0.71781  0.08211  0.12957  1.0000
  H   H4449     1.0  0.87447  0.11522  0.09419  1.0000
  H   H4450     1.0  0.80970  0.07937  0.11731  1.0000
  H   H4451     1.0  0.75285  0.09180  0.11130  1.0000
  H   H4452     1.0  0.75202  0.07422  0.12884  1.0000
  H   H4453     1.0  0.87303  0.10068  0.12037  1.0000
  S   S1129     1.0  0.67289  0.13212  0.07563  1.0000
  H   H4454     1.0  0.86757  0.08484  0.11238  1.0000
  N   N279      1.0  0.73637  0.08472  0.12079  1.0000
  H   H4455     1.0  0.73888  0.10074  0.10640  1.0000
  H   H4456     1.0  0.87110  0.10412  0.08754  1.0000
  H   H4457     1.0  0.83193  0.06957  0.09747  1.0000
  H   H4458     1.0  0.71147  0.16329  0.11099  1.0000
  C   C2791     1.0  0.87180  0.10603  0.09637  1.0000
  H   H4459     1.0  0.87537  0.08173  0.09740  1.0000
  C   C2792     1.0  0.74180  0.07760  0.13158  1.0000
  C   C2793     1.0  0.88974  0.10797  0.22360  1.0000
  H   H4460     1.0  0.70720  0.14931  0.12070  1.0000
  H   H4461     1.0  0.86954  0.03039  0.08092  1.0000
  H   H4462     1.0  0.85170  0.00548  0.09579  1.0000
  H   H4463     1.0  0.87178  0.01188  0.06460  1.0000
  S   S1130     1.0  0.86882  0.99934  0.12715  1.0000
  C   C2794     1.0  0.86384  0.01281  0.07256  1.0000
  H   H4464     1.0  0.68144  0.17519  0.10035  1.0000
  H   H4465     1.0  0.89356  0.11495  0.22601  1.0000
  N   N280      1.0  0.88259  0.10098  0.23464  1.0000
  H   H4466     1.0  0.66966  0.18159  0.08277  1.0000
  H   H4467     1.0  0.66915  0.13721  0.98790  1.0000
  H   H4468     1.0  0.66913  0.21065  0.03184  1.0000
  Fe  Fe567     1.0  0.66750  0.15269  0.06964  1.0000
  H   H4469     1.0  0.66736  0.20189  0.06844  1.0000
  S   S1131     1.0  0.83484  0.99345  0.36238  1.0000
  H   H4470     1.0  0.85295  0.12342  0.28437  1.0000
  H   H4471     1.0  0.90453  0.29192  0.40685  1.0000
  S   S1132     1.0  0.84236  0.02515  0.33795  1.0000
  Fe  Fe568     1.0  0.90914  0.13282  0.26072  1.0000
  S   S1133     1.0  0.89294  0.13009  0.27626  1.0000
  S   S1134     1.0  0.92855  0.12782  0.26489  1.0000
  S   S1135     1.0  0.87544  0.13871  0.25528  1.0000
  Fe  Fe569     1.0  0.88302  0.14788  0.26623  1.0000
  S   S1136     1.0  0.86957  0.15938  0.27932  1.0000
  Fe  Fe570     1.0  0.88673  0.12126  0.26414  1.0000
  S   S1137     1.0  0.87762  0.10487  0.27156  1.0000
  Fe  Fe571     1.0  0.98171  0.12988  0.32616  1.0000
  S   S1138     1.0  0.97463  0.11630  0.34291  1.0000
  Fe  Fe572     1.0  0.95682  0.13678  0.31711  1.0000
  S   S1139     1.0  0.94790  0.12434  0.33358  1.0000
  S   S1140     1.0  0.94329  0.14826  0.30500  1.0000
  Fe  Fe573     1.0  0.95749  0.13115  0.34452  1.0000
  S   S1141     1.0  0.94848  0.13702  0.36247  1.0000
  Fe  Fe574     1.0  0.96573  0.11069  0.33023  1.0000
  S   S1142     1.0  0.96292  0.09187  0.33016  1.0000
  S   S1143     1.0  0.96483  0.14507  0.32849  1.0000
  S   S1144     1.0  0.97441  0.12281  0.31302  1.0000
  Fe  Fe575     1.0  0.89943  0.18863  0.34477  1.0000
  S   S1145     1.0  0.88259  0.18706  0.35982  1.0000
  S   S1146     1.0  0.91664  0.19056  0.34959  1.0000
  Fe  Fe576     1.0  0.88575  0.18966  0.32474  1.0000
  S   S1147     1.0  0.86774  0.18828  0.33819  1.0000
  S   S1148     1.0  0.88799  0.19347  0.30403  1.0000
  Fe  Fe577     1.0  0.87255  0.20189  0.34667  1.0000
  S   S1149     1.0  0.86023  0.22033  0.34972  1.0000
  Fe  Fe578     1.0  0.87964  0.17358  0.34991  1.0000
  S   S1150     1.0  0.87526  0.15513  0.36082  1.0000
  S   S1151     1.0  0.88975  0.20425  0.33229  1.0000
  S   S1152     1.0  0.89742  0.17403  0.33582  1.0000
  Fe  Fe579     1.0  0.87844  0.09547  0.33939  1.0000
  S   S1153     1.0  0.89910  0.09174  0.33318  1.0000
  S   S1154     1.0  0.86919  0.11542  0.33368  1.0000
  Fe  Fe580     1.0  0.87806  0.06821  0.35142  1.0000
  S   S1155     1.0  0.89884  0.06264  0.34632  1.0000
  S   S1156     1.0  0.86890  0.05236  0.36306  1.0000
  Fe  Fe581     1.0  0.89912  0.07996  0.35204  1.0000
  S   S1157     1.0  0.91135  0.08199  0.36374  1.0000
  Fe  Fe582     1.0  0.89661  0.07492  0.32810  1.0000
  S   S1158     1.0  0.90724  0.06892  0.31054  1.0000
  S   S1159     1.0  0.87852  0.08470  0.35872  1.0000
  S   S1160     1.0  0.87582  0.07950  0.33261  1.0000
  Fe  Fe583     1.0  0.87105  0.26259  0.38962  1.0000
  S   S1161     1.0  0.88098  0.27379  0.37258  1.0000
  S   S1162     1.0  0.87138  0.24226  0.39091  1.0000
  Fe  Fe584     1.0  0.86393  0.28392  0.40382  1.0000
  S   S1163     1.0  0.87315  0.29658  0.38778  1.0000
  S   S1164     1.0  0.85407  0.29244  0.42051  1.0000
  Fe  Fe585     1.0  0.86456  0.28914  0.37637  1.0000
  S   S1165     1.0  0.85586  0.30273  0.36142  1.0000
  Fe  Fe586     1.0  0.88852  0.28008  0.38576  1.0000
  S   S1166     1.0  0.90798  0.28259  0.38346  1.0000
  S   S1167     1.0  0.85400  0.27756  0.39253  1.0000
  S   S1168     1.0  0.87999  0.26775  0.40267  1.0000
  C   C2795     1.0  0.91016  0.29630  0.37277  1.0000
  C   C2796     1.0  0.90311  0.30102  0.36360  1.0000
  H   H4472     1.0  0.82152  0.31658  0.47154  1.0000
  C   C2797     1.0  0.88418  0.04663  0.32769  1.0000
  C   C2798     1.0  0.87671  0.03086  0.32261  1.0000
  C   C2799     1.0  0.91867  0.30283  0.37372  1.0000
  H   H4473     1.0  0.89669  0.29589  0.36268  1.0000
  C   C2800     1.0  0.83877  0.32455  0.36015  1.0000
  H   H4474     1.0  0.92443  0.29897  0.38052  1.0000
  H   H4475     1.0  0.86793  0.03736  0.32079  1.0000
  C   C2801     1.0  0.83872  0.31153  0.38049  1.0000
  C   C2802     1.0  0.86546  0.31626  0.43396  1.0000
  H   H4476     1.0  0.88938  0.30006  0.41295  1.0000
  H   H4477     1.0  0.84233  0.30311  0.38644  1.0000
  C   C2803     1.0  0.90646  0.30405  0.42341  1.0000
  C   C2804     1.0  0.91243  0.31922  0.35691  1.0000
  H   H4478     1.0  0.93630  0.16750  0.28500  1.0000
  C   C2805     1.0  0.87283  0.30838  0.44208  1.0000
  C   C2806     1.0  0.86064  0.31138  0.42648  1.0000
  C   C2807     1.0  0.86294  0.29856  0.42720  1.0000
  C   C2808     1.0  0.87059  0.29070  0.43504  1.0000
  C   C2809     1.0  0.87557  0.29560  0.44239  1.0000
  H   H4479     1.0  0.88768  0.04290  0.38062  1.0000
  H   H4480     1.0  0.89688  0.30503  0.39722  1.0000
  H   H4481     1.0  0.87221  0.28076  0.43585  1.0000
  H   H4482     1.0  0.88126  0.28942  0.44863  1.0000
  C   C2810     1.0  0.86275  0.22650  0.36144  1.0000
  C   C2811     1.0  0.86721  0.21868  0.37164  1.0000
  C   C2812     1.0  0.86920  0.22369  0.38086  1.0000
  C   C2813     1.0  0.86718  0.23657  0.37981  1.0000
  C   C2814     1.0  0.86264  0.24443  0.36965  1.0000
  C   C2815     1.0  0.86029  0.23940  0.36058  1.0000
  H   H4483     1.0  0.86891  0.20875  0.37255  1.0000
  H   H4484     1.0  0.87249  0.21753  0.38879  1.0000
  H   H4485     1.0  0.86098  0.25437  0.36876  1.0000
  H   H4486     1.0  0.85674  0.24553  0.35278  1.0000
  C   C2816     1.0  0.87396  0.14415  0.35298  1.0000
  C   C2817     1.0  0.87495  0.14682  0.34018  1.0000
  C   C2818     1.0  0.87371  0.13790  0.33426  1.0000
  C   C2819     1.0  0.87178  0.12616  0.34105  1.0000
  C   C2820     1.0  0.87117  0.12338  0.35380  1.0000
  C   C2821     1.0  0.87205  0.13241  0.35976  1.0000
  H   H4487     1.0  0.87645  0.15583  0.33487  1.0000
  H   H4488     1.0  0.87429  0.14014  0.32439  1.0000
  H   H4489     1.0  0.86950  0.11444  0.35914  1.0000
  H   H4490     1.0  0.87106  0.13034  0.36969  1.0000
  C   C2822     1.0  0.94887  0.08874  0.33989  1.0000
  C   C2823     1.0  0.94373  0.09405  0.35031  1.0000
  C   C2824     1.0  0.93240  0.09160  0.35785  1.0000
  C   C2825     1.0  0.92590  0.08433  0.35468  1.0000
  C   C2826     1.0  0.93101  0.07906  0.34423  1.0000
  C   C2827     1.0  0.94263  0.08102  0.33704  1.0000
  H   H4491     1.0  0.94866  0.09977  0.35273  1.0000
  H   H4492     1.0  0.92865  0.09541  0.36609  1.0000
  H   H4493     1.0  0.92615  0.07324  0.34187  1.0000
  H   H4494     1.0  0.94677  0.07662  0.32921  1.0000
  C   C2828     1.0  0.93911  0.15165  0.35917  1.0000
  C   C2829     1.0  0.93557  0.15584  0.34773  1.0000
  C   C2830     1.0  0.92851  0.16778  0.34484  1.0000
  C   C2831     1.0  0.92528  0.17562  0.35328  1.0000
  C   C2832     1.0  0.92882  0.17144  0.36473  1.0000
  C   C2833     1.0  0.93557  0.15935  0.36777  1.0000
  H   H4495     1.0  0.93817  0.14987  0.34111  1.0000
  H   H4496     1.0  0.92575  0.17099  0.33600  1.0000
  H   H4497     1.0  0.92615  0.17746  0.37132  1.0000
  H   H4498     1.0  0.93825  0.15607  0.37665  1.0000
  C   C2834     1.0  0.93910  0.14182  0.29445  1.0000
  C   C2835     1.0  0.94807  0.13460  0.28688  1.0000
  C   C2836     1.0  0.94474  0.13067  0.27766  1.0000
  C   C2837     1.0  0.93241  0.13374  0.27603  1.0000
  C   C2838     1.0  0.92341  0.14092  0.28363  1.0000
  C   C2839     1.0  0.92676  0.14497  0.29278  1.0000
  H   H4499     1.0  0.95764  0.13233  0.28789  1.0000
  H   H4500     1.0  0.95179  0.12522  0.27173  1.0000
  H   H4501     1.0  0.91387  0.14333  0.28249  1.0000
  H   H4502     1.0  0.91972  0.15052  0.29857  1.0000
  C   C2840     1.0  0.88625  0.09391  0.28153  1.0000
  C   C2841     1.0  0.89884  0.09377  0.28030  1.0000
  C   C2842     1.0  0.90550  0.08552  0.28884  1.0000
  C   C2843     1.0  0.89942  0.07786  0.29891  1.0000
  C   C2844     1.0  0.88685  0.07795  0.30008  1.0000
  C   C2845     1.0  0.88034  0.08577  0.29121  1.0000
  H   H4503     1.0  0.90344  0.10004  0.27279  1.0000
  H   H4504     1.0  0.91524  0.08537  0.28785  1.0000
  H   H4505     1.0  0.88212  0.07208  0.30786  1.0000
  H   H4506     1.0  0.87060  0.08588  0.29215  1.0000
  C   C2846     1.0  0.88363  0.18303  0.29765  1.0000
  C   C2847     1.0  0.88861  0.18228  0.28524  1.0000
  C   C2848     1.0  0.88488  0.17446  0.27976  1.0000
  C   C2849     1.0  0.87576  0.16774  0.28652  1.0000
  C   C2850     1.0  0.87080  0.16847  0.29895  1.0000
  C   C2851     1.0  0.87491  0.17589  0.30459  1.0000
  H   H4507     1.0  0.89524  0.18786  0.27974  1.0000
  H   H4508     1.0  0.88862  0.17407  0.27013  1.0000
  H   H4509     1.0  0.86369  0.16335  0.30423  1.0000
  H   H4510     1.0  0.87105  0.17636  0.31417  1.0000
  C   C2852     1.0  0.84922  0.03257  0.34559  1.0000
  C   C2853     1.0  0.85459  0.02622  0.35576  1.0000
  C   C2854     1.0  0.86043  0.03242  0.36117  1.0000
  C   C2855     1.0  0.86111  0.04493  0.35635  1.0000
  C   C2856     1.0  0.85568  0.05127  0.34623  1.0000
  C   C2857     1.0  0.84973  0.04513  0.34093  1.0000
  H   H4511     1.0  0.85424  0.01655  0.35944  1.0000
  H   H4512     1.0  0.86454  0.02745  0.36904  1.0000
  H   H4513     1.0  0.85594  0.06096  0.34258  1.0000
  H   H4514     1.0  0.84550  0.05012  0.33313  1.0000
  C   C2858     1.0  0.82385  0.32213  0.46206  1.0000
  C   C2859     1.0  0.89579  0.32178  0.41072  1.0000
  H   H4515     1.0  0.93633  0.18209  0.27452  1.0000
  H   H4516     1.0  0.95568  0.17069  0.35637  1.0000
  H   H4517     1.0  0.92464  0.20143  0.28138  1.0000
  H   H4518     1.0  0.85650  0.14484  0.30212  1.0000
  S   S1169     1.0  0.90385  0.12207  0.24942  1.0000
  H   H4519     1.0  0.86864  0.11077  0.31098  1.0000
  H   H4520     1.0  0.92249  0.30195  0.40154  1.0000
  H   H4521     1.0  0.86921  0.06741  0.38204  1.0000
  H   H4522     1.0  0.96074  0.16475  0.34246  1.0000
  H   H4523     1.0  0.87006  0.32472  0.37770  1.0000
  H   H4524     1.0  0.88980  0.05779  0.37175  1.0000
  C   C2860     1.0  0.82925  0.32047  0.38559  1.0000
  H   H4525     1.0  0.86731  0.10482  0.24965  1.0000
  H   H4526     1.0  0.86349  0.13310  0.31343  1.0000
  S   S1170     1.0  0.82614  0.99974  0.33595  1.0000
  Fe  Fe587     1.0  0.89288  0.14024  0.24100  1.0000
  H   H4527     1.0  0.88404  0.07280  0.39847  1.0000
  H   H4528     1.0  0.88075  0.05217  0.41101  1.0000
  H   H4529     1.0  0.90655  0.03305  0.32018  1.0000
  C   C2861     1.0  0.88584  0.04812  0.40279  1.0000
  N   N281      1.0  0.88416  0.05707  0.39118  1.0000
  C   C2862     1.0  0.96341  0.16980  0.34822  1.0000
  H   H4530     1.0  0.91294  0.22028  0.34918  1.0000
  H   H4531     1.0  0.89775  0.23569  0.38162  1.0000
  H   H4532     1.0  0.88782  0.07514  0.38193  1.0000
  H   H4533     1.0  0.92102  0.31666  0.40540  1.0000
  C   C2863     1.0  0.90456  0.31227  0.35543  1.0000
  C   C2864     1.0  0.88895  0.06818  0.39059  1.0000
  H   H4534     1.0  0.89392  0.22174  0.38061  1.0000
  C   C2865     1.0  0.91006  0.21847  0.35942  1.0000
  C   C2866     1.0  0.87081  0.06069  0.39071  1.0000
  C   C2867     1.0  0.91524  0.23736  0.36078  1.0000
  C   C2868     1.0  0.89106  0.05128  0.38057  1.0000
  N   N282      1.0  0.90421  0.30954  0.41080  1.0000
  C   C2869     1.0  0.98537  0.16281  0.34097  1.0000
  H   H4535     1.0  0.82556  0.31883  0.39543  1.0000
  H   H4536     1.0  0.88579  0.08867  0.25172  1.0000
  H   H4537     1.0  0.83905  0.13335  0.30811  1.0000
  C   C2870     1.0  0.84345  0.31350  0.36776  1.0000
  H   H4538     1.0  0.91474  0.31594  0.39282  1.0000
  H   H4539     1.0  0.89737  0.02343  0.33204  1.0000
  H   H4540     1.0  0.86510  0.13188  0.28097  1.0000
  H   H4541     1.0  0.88266  0.04217  0.33767  1.0000
  H   H4542     1.0  0.81606  0.30162  0.46232  1.0000
  H   H4543     1.0  0.84215  0.11752  0.30636  1.0000
  H   H4544     1.0  0.84320  0.29917  0.44830  1.0000
  H   H4545     1.0  0.84717  0.12126  0.31845  1.0000
  H   H4546     1.0  0.94174  0.17475  0.30095  1.0000
  H   H4547     1.0  0.96396  0.17930  0.34277  1.0000
  H   H4548     1.0  0.88057  0.05065  0.30454  1.0000
  N   N283      1.0  0.91034  0.12870  0.36188  1.0000
  C   C2871     1.0  0.91021  0.14068  0.35301  1.0000
  C   C2872     1.0  0.90047  0.13030  0.37294  1.0000
  C   C2873     1.0  0.92248  0.12438  0.36563  1.0000
  C   C2874     1.0  0.90821  0.11946  0.35600  1.0000
  H   H4549     1.0  0.91770  0.13987  0.34464  1.0000
  H   H4550     1.0  0.91156  0.14794  0.35722  1.0000
  H   H4551     1.0  0.90119  0.14415  0.34992  1.0000
  H   H4552     1.0  0.90035  0.12148  0.37988  1.0000
  H   H4553     1.0  0.90166  0.13740  0.37744  1.0000
  H   H4554     1.0  0.89117  0.13347  0.37052  1.0000
  H   H4555     1.0  0.92296  0.11534  0.37228  1.0000
  H   H4556     1.0  0.92430  0.13112  0.37018  1.0000
  H   H4557     1.0  0.93025  0.12317  0.35758  1.0000
  H   H4558     1.0  0.90790  0.11038  0.36251  1.0000
  H   H4559     1.0  0.91572  0.11776  0.34783  1.0000
  H   H4560     1.0  0.89923  0.12259  0.35280  1.0000
  H   H4561     1.0  0.99452  0.15853  0.34357  1.0000
  H   H4562     1.0  0.90107  0.02126  0.31638  1.0000
  H   H4563     1.0  0.89677  0.04893  0.30428  1.0000
  H   H4564     1.0  0.98271  0.14546  0.36230  1.0000
  C   C2875     1.0  0.90144  0.22713  0.37772  1.0000
  C   C2876     1.0  0.81844  0.30763  0.45309  1.0000
  H   H4565     1.0  0.87210  0.13658  0.29797  1.0000
  H   H4566     1.0  0.86697  0.05254  0.39088  1.0000
  H   H4567     1.0  0.88234  0.03962  0.40348  1.0000
  H   H4568     1.0  0.87618  0.11515  0.29522  1.0000
  H   H4569     1.0  0.91463  0.20071  0.29645  1.0000
  S   S1171     1.0  0.89965  0.15131  0.25108  1.0000
  H   H4570     1.0  0.88681  0.32102  0.41728  1.0000
  S   S1172     1.0  0.87888  0.31419  0.45178  1.0000
  H   H4571     1.0  0.97888  0.17951  0.35557  1.0000
  H   H4572     1.0  0.80370  0.00135  0.30401  1.0000
  C   C2877     1.0  0.97421  0.15048  0.35868  1.0000
  N   N284      1.0  0.85223  0.21919  0.31418  1.0000
  C   C2878     1.0  0.84384  0.21796  0.32647  1.0000
  C   C2879     1.0  0.85413  0.20789  0.30923  1.0000
  C   C2880     1.0  0.86430  0.22090  0.31535  1.0000
  C   C2881     1.0  0.84667  0.23006  0.30567  1.0000
  H   H4573     1.0  0.84238  0.22626  0.33054  1.0000
  H   H4574     1.0  0.84777  0.20990  0.33317  1.0000
  H   H4575     1.0  0.83460  0.21668  0.32601  1.0000
  H   H4576     1.0  0.85831  0.19950  0.31541  1.0000
  H   H4577     1.0  0.84525  0.20630  0.30813  1.0000
  H   H4578     1.0  0.86062  0.20842  0.30006  1.0000
  H   H4579     1.0  0.87097  0.22176  0.30631  1.0000
  H   H4580     1.0  0.86865  0.21285  0.32169  1.0000
  H   H4581     1.0  0.86326  0.22923  0.31923  1.0000
  H   H4582     1.0  0.84516  0.23874  0.30913  1.0000
  H   H4583     1.0  0.83753  0.22910  0.30458  1.0000
  H   H4584     1.0  0.85279  0.23126  0.29632  1.0000
  H   H4585     1.0  0.89907  0.06584  0.39065  1.0000
  H   H4586     1.0  0.84948  0.13935  0.28612  1.0000
  H   H4587     1.0  0.85473  0.31750  0.42043  1.0000
  N   N285      1.0  0.90536  0.23010  0.36413  1.0000
  H   H4588     1.0  0.80979  0.31423  0.45108  1.0000
  H   H4589     1.0  0.90121  0.04859  0.38043  1.0000
  H   H4590     1.0  0.86372  0.10702  0.29889  1.0000
  C   C2882     1.0  0.88905  0.04379  0.30667  1.0000
  C   C2883     1.0  0.86273  0.13557  0.30360  1.0000
  H   H4591     1.0  0.92258  0.16697  0.30681  1.0000
  Fe  Fe588     1.0  0.84026  0.00497  0.34343  1.0000
  H   H4592     1.0  0.98606  0.17223  0.33537  1.0000
  H   H4593     1.0  0.92276  0.17533  0.27881  1.0000
  C   C2884     1.0  0.97806  0.16984  0.36026  1.0000
  N   N286      1.0  0.88711  0.03741  0.31978  1.0000
  H   H4594     1.0  0.86524  0.06504  0.39860  1.0000
  C   C2885     1.0  0.85623  0.13037  0.28739  1.0000
  H   H4595     1.0  0.88747  0.23190  0.36012  1.0000
  C   C2886     1.0  0.91954  0.31447  0.36604  1.0000
  N   N287      1.0  0.97526  0.16323  0.35203  1.0000
  H   H4596     1.0  0.90280  0.21275  0.36192  1.0000
  H   H4597     1.0  0.87563  0.05363  0.32609  1.0000
  H   H4598     1.0  0.89583  0.04518  0.40339  1.0000
  H   H4599     1.0  0.91818  0.21263  0.36329  1.0000
  C   C2887     1.0  0.89466  0.23746  0.35862  1.0000
  H   H4600     1.0  0.90925  0.22156  0.38221  1.0000
  H   H4601     1.0  0.89743  0.24066  0.34847  1.0000
  H   H4602     1.0  0.91185  0.24625  0.36415  1.0000
  H   H4603     1.0  0.91851  0.23971  0.35060  1.0000
  H   H4604     1.0  0.89013  0.24579  0.36276  1.0000
  H   H4605     1.0  0.92341  0.23216  0.36491  1.0000
  N   N288      1.0  0.93321  0.09874  0.30213  1.0000
  C   C2888     1.0  0.93984  0.09797  0.28934  1.0000
  C   C2889     1.0  0.93168  0.08623  0.30913  1.0000
  C   C2890     1.0  0.92086  0.10696  0.30195  1.0000
  C   C2891     1.0  0.94045  0.10375  0.30809  1.0000
  H   H4606     1.0  0.94103  0.10724  0.28370  1.0000
  H   H4607     1.0  0.93463  0.09423  0.28457  1.0000
  H   H4608     1.0  0.94925  0.09196  0.28910  1.0000
  H   H4609     1.0  0.92648  0.08208  0.30476  1.0000
  H   H4610     1.0  0.94081  0.07983  0.30960  1.0000
  H   H4611     1.0  0.92646  0.08644  0.31875  1.0000
  H   H4612     1.0  0.91510  0.10340  0.29762  1.0000
  H   H4613     1.0  0.92168  0.11643  0.29656  1.0000
  H   H4614     1.0  0.91564  0.10786  0.31144  1.0000
  H   H4615     1.0  0.93581  0.10427  0.31783  1.0000
  H   H4616     1.0  0.94168  0.11325  0.30314  1.0000
  H   H4617     1.0  0.94988  0.09786  0.30831  1.0000
  N   N289      1.0  0.92571  0.18317  0.29286  1.0000
  C   C2892     1.0  0.93047  0.17677  0.28232  1.0000
  C   C2893     1.0  0.91867  0.19573  0.28867  1.0000
  C   C2894     1.0  0.93622  0.18410  0.29776  1.0000
  C   C2895     1.0  0.91744  0.17611  0.30272  1.0000
  C   C2896     1.0  0.86702  0.11426  0.30141  1.0000
  H   H4618     1.0  0.87862  0.02369  0.31696  1.0000
  C   C2897     1.0  0.91614  0.31106  0.40226  1.0000
  H   H4619     1.0  0.91078  0.19532  0.28479  1.0000
  H   H4620     1.0  0.94266  0.18938  0.29060  1.0000
  H   H4621     1.0  0.97068  0.17022  0.36877  1.0000
  H   H4622     1.0  0.93291  0.18876  0.30581  1.0000
  H   H4623     1.0  0.89499  0.10031  0.24628  1.0000
  H   H4624     1.0  0.87483  0.02612  0.33250  1.0000
  H   H4625     1.0  0.91296  0.18116  0.31038  1.0000
  H   H4626     1.0  0.92587  0.31964  0.36701  1.0000
  H   H4627     1.0  0.90992  0.17437  0.29916  1.0000
  N   N290      1.0  0.85800  0.12617  0.30027  1.0000
  C   C2898     1.0  0.84603  0.12450  0.30866  1.0000
  H   H4628     1.0  0.89769  0.30272  0.43011  1.0000
  H   H4629     1.0  0.84706  0.30984  0.45523  1.0000
  H   H4630     1.0  0.96620  0.15042  0.36668  1.0000
  H   H4631     1.0  0.91060  0.31012  0.42679  1.0000
  H   H4632     1.0  0.98701  0.16511  0.36324  1.0000
  H   H4633     1.0  0.83775  0.29897  0.46453  1.0000
  C   C2899     1.0  0.89854  0.02838  0.32220  1.0000
  H   H4634     1.0  0.87611  0.11680  0.24327  1.0000
  H   H4635     1.0  0.89184  0.05172  0.32582  1.0000
  H   H4636     1.0  0.91284  0.29483  0.42380  1.0000
  H   H4637     1.0  0.89946  0.31572  0.34805  1.0000
  C   C2900     1.0  0.89849  0.30130  0.40680  1.0000
  H   H4638     1.0  0.87813  0.31859  0.35807  1.0000
  H   H4639     1.0  0.89137  0.03711  0.30040  1.0000
  H   H4640     1.0  0.78986  0.99748  0.31445  1.0000
  H   H4641     1.0  0.97279  0.14496  0.35257  1.0000
  H   H4642     1.0  0.83398  0.31652  0.43296  1.0000
  C   C2901     1.0  0.83954  0.30516  0.45531  1.0000
  N   N291      1.0  0.82820  0.31426  0.45270  1.0000
  H   H4643     1.0  0.82153  0.30158  0.44613  1.0000
  S   S1173     1.0  0.00041  0.13553  0.32275  1.0000
  H   H4644     1.0  0.79402  0.99387  0.29931  1.0000
  H   H4645     1.0  0.98398  0.15727  0.33485  1.0000
  C   C2902     1.0  0.89090  0.09397  0.24322  1.0000
  H   H4646     1.0  0.99556  0.12715  0.34962  1.0000
  C   C2903     1.0  0.83100  0.32212  0.44030  1.0000
  H   H4647     1.0  0.87167  0.08699  0.23892  1.0000
  H   H4648     1.0  0.86458  0.32493  0.35167  1.0000
  C   C2904     1.0  0.87246  0.10969  0.24090  1.0000
  H   H4649     1.0  0.89870  0.08733  0.23884  1.0000
  C   C2905     1.0  0.79782  0.99422  0.30725  1.0000
  C   C2906     1.0  0.68084  0.01632  0.57925  1.0000
  H   H4650     1.0  0.68891  0.31598  0.56855  1.0000
  H   H4651     1.0  0.67802  0.31291  0.55545  1.0000
  H   H4652     1.0  0.68598  0.00670  0.57859  1.0000
  H   H4653     1.0  0.67401  0.02324  0.55720  1.0000
  C   C2907     1.0  0.68251  0.31750  0.57705  1.0000
  H   H4654     1.0  0.67670  0.30885  0.54180  1.0000
  H   H4655     1.0  0.67444  0.30159  0.57930  1.0000
  C   C2908     1.0  0.67443  0.30934  0.58316  1.0000
  H   H4656     1.0  0.69050  0.32317  0.52945  1.0000
  C   C2909     1.0  0.66888  0.01669  0.56439  1.0000
  H   H4657     1.0  0.68057  0.01763  0.58865  1.0000
  H   H4658     1.0  0.68634  0.02281  0.57243  1.0000
  N   N292      1.0  0.66818  0.01845  0.57695  1.0000
  H   H4659     1.0  0.67001  0.32518  0.52452  1.0000
  H   H4660     1.0  0.66765  0.30126  0.51941  1.0000
  H   H4661     1.0  0.67363  0.00709  0.56326  1.0000
  C   C2910     1.0  0.67263  0.31559  0.54802  1.0000
  H   H4662     1.0  0.93101  0.17201  0.86234  1.0000
  H   H4663     1.0  0.87281  0.17104  0.89073  1.0000
  C   C2911     1.0  0.85466  0.26386  0.89340  1.0000
  H   H4664     1.0  0.85879  0.18771  0.87891  1.0000
  S   S1174     1.0  0.88417  0.29922  0.86425  1.0000
  Fe  Fe589     1.0  0.88450  0.31961  0.85733  1.0000
  Fe  Fe590     1.0  0.85330  0.16675  0.94473  1.0000
  S   S1175     1.0  0.84306  0.16728  0.93026  1.0000
  S   S1176     1.0  0.86777  0.17801  0.94165  1.0000
  Fe  Fe591     1.0  0.84144  0.14685  0.96332  1.0000
  S   S1177     1.0  0.83005  0.14540  0.95041  1.0000
  H   H4665     1.0  0.99049  0.11196  0.87968  1.0000
  Fe  Fe592     1.0  0.84724  0.14664  0.93581  1.0000
  S   S1178     1.0  0.85111  0.13735  0.91981  1.0000
  Fe  Fe593     1.0  0.82665  0.16607  0.94579  1.0000
  S   S1179     1.0  0.80802  0.17701  0.94240  1.0000
  S   S1180     1.0  0.85911  0.14607  0.94896  1.0000
  S   S1181     1.0  0.83638  0.16764  0.96002  1.0000
  Fe  Fe594     1.0  0.84379  0.25290  0.86885  1.0000
  S   S1182     1.0  0.83757  0.23996  0.86066  1.0000
  S   S1183     1.0  0.84172  0.27365  0.86178  1.0000
  Fe  Fe595     1.0  0.85243  0.23257  0.88943  1.0000
  S   S1184     1.0  0.84741  0.21783  0.88312  1.0000
  S   S1185     1.0  0.86042  0.23048  0.90604  1.0000
  Fe  Fe596     1.0  0.85538  0.22714  0.86414  1.0000
  S   S1186     1.0  0.86637  0.21401  0.85188  1.0000
  Fe  Fe597     1.0  0.82995  0.23150  0.88026  1.0000
  S   S1187     1.0  0.81343  0.22240  0.88779  1.0000
  S   S1188     1.0  0.86232  0.24062  0.87065  1.0000
  S   S1189     1.0  0.83424  0.24567  0.88822  1.0000
  Fe  Fe598     1.0  0.89953  0.14570  0.86002  1.0000
  S   S1190     1.0  0.89525  0.14856  0.87939  1.0000
  S   S1191     1.0  0.88334  0.15092  0.85032  1.0000
  Fe  Fe599     1.0  0.92764  0.14062  0.85864  1.0000
  S   S1192     1.0  0.92540  0.14319  0.87796  1.0000
  S   S1193     1.0  0.94634  0.13770  0.84578  1.0000
  Fe  Fe600     1.0  0.91060  0.13208  0.88245  1.0000
  S   S1194     1.0  0.90806  0.11935  0.90091  1.0000
  Fe  Fe601     1.0  0.91035  0.15926  0.87310  1.0000
  S   S1195     1.0  0.90667  0.17703  0.87953  1.0000
  S   S1196     1.0  0.91380  0.12810  0.86348  1.0000
  S   S1197     1.0  0.91374  0.15777  0.85334  1.0000
  Fe  Fe602     1.0  0.79658  0.15440  0.88901  1.0000
  S   S1198     1.0  0.79928  0.13675  0.88253  1.0000
  S   S1199     1.0  0.78601  0.15582  0.90823  1.0000
  Fe  Fe603     1.0  0.80824  0.16795  0.86395  1.0000
  S   S1200     1.0  0.81175  0.15149  0.85514  1.0000
  S   S1201     1.0  0.81452  0.18574  0.85394  1.0000
  Fe  Fe604     1.0  0.79248  0.14884  0.86566  1.0000
  S   S1202     1.0  0.77526  0.14809  0.85904  1.0000
  Fe  Fe605     1.0  0.81810  0.14087  0.87271  1.0000
  S   S1203     1.0  0.83586  0.12721  0.87543  1.0000
  S   S1204     1.0  0.78866  0.16639  0.87295  1.0000
  S   S1205     1.0  0.81580  0.15753  0.88068  1.0000
  S   S1206     1.0  0.98509  0.16847  0.84694  1.0000
  Fe  Fe606     1.0  0.73174  0.10835  0.84773  1.0000
  S   S1207     1.0  0.72029  0.12505  0.83749  1.0000
  S   S1208     1.0  0.75195  0.10704  0.84858  1.0000
  Fe  Fe607     1.0  0.71034  0.09383  0.85567  1.0000
  S   S1209     1.0  0.69758  0.10951  0.84614  1.0000
  S   S1210     1.0  0.70106  0.07789  0.86685  1.0000
  Fe  Fe608     1.0  0.71394  0.11132  0.83068  1.0000
  S   S1211     1.0  0.71082  0.11321  0.81157  1.0000
  Fe  Fe609     1.0  0.70502  0.12154  0.85396  1.0000
  S   S1212     1.0  0.69114  0.13632  0.86259  1.0000
  S   S1213     1.0  0.72648  0.09466  0.83954  1.0000
  S   S1214     1.0  0.71681  0.10581  0.86475  1.0000
  H   H4666     1.0  0.67671  0.14868  0.81798  1.0000
  H   H4667     1.0  0.89366  0.30845  0.83674  1.0000
  H   H4668     1.0  0.91609  0.18324  0.84838  1.0000
  H   H4669     1.0  0.67476  0.01136  0.82116  1.0000
  C   C2912     1.0  0.69517  0.06965  0.85921  1.0000
  C   C2913     1.0  0.70045  0.06840  0.84701  1.0000
  C   C2914     1.0  0.69571  0.06149  0.84132  1.0000
  C   C2915     1.0  0.68547  0.05605  0.84769  1.0000
  C   C2916     1.0  0.68016  0.05736  0.85986  1.0000
  C   C2917     1.0  0.68512  0.06398  0.86562  1.0000
  H   H4670     1.0  0.70836  0.07254  0.84205  1.0000
  H   H4671     1.0  0.69995  0.06040  0.83195  1.0000
  C   C2918     1.0  0.67298  0.07407  0.90885  1.0000
  H   H4672     1.0  0.68117  0.06471  0.87509  1.0000
  C   C2919     1.0  0.69666  0.12320  0.80915  1.0000
  C   C2920     1.0  0.69155  0.13288  0.81554  1.0000
  C   C2921     1.0  0.68031  0.14085  0.81349  1.0000
  H   H4673     1.0  0.97931  0.13284  0.86068  1.0000
  N   N293      1.0  0.68237  0.00514  0.83765  1.0000
  C   C2922     1.0  0.69032  0.12141  0.80088  1.0000
  H   H4674     1.0  0.69647  0.13445  0.82178  1.0000
  H   H4675     1.0  0.67376  0.12747  0.79311  1.0000
  H   H4676     1.0  0.67061  0.14551  0.88100  1.0000
  H   H4677     1.0  0.69433  0.11408  0.79574  1.0000
  C   C2923     1.0  0.68224  0.12873  0.87587  1.0000
  H   H4678     1.0  0.84775  0.15587  0.98455  1.0000
  C   C2924     1.0  0.98897  0.12768  0.85800  1.0000
  H   H4679     1.0  0.69655  0.00158  0.82176  1.0000
  C   C2925     1.0  0.67786  0.10958  0.88956  1.0000
  C   C2926     1.0  0.68464  0.11579  0.87887  1.0000
  H   H4680     1.0  0.67248  0.08732  0.80834  1.0000
  C   C2927     1.0  0.67256  0.13549  0.88332  1.0000
  H   H4681     1.0  0.68001  0.09958  0.89190  1.0000
  H   H4682     1.0  0.69173  0.11045  0.87299  1.0000
  C   C2928     1.0  0.76890  0.13624  0.85679  1.0000
  C   C2929     1.0  0.75663  0.13924  0.85488  1.0000
  C   C2930     1.0  0.75119  0.13032  0.85275  1.0000
  C   C2931     1.0  0.75804  0.11832  0.85226  1.0000
  C   C2932     1.0  0.77031  0.11532  0.85416  1.0000
  C   C2933     1.0  0.77568  0.12417  0.85654  1.0000
  H   H4683     1.0  0.75131  0.14855  0.85496  1.0000
  H   H4684     1.0  0.74174  0.13280  0.85133  1.0000
  H   H4685     1.0  0.77571  0.10607  0.85379  1.0000
  H   H4686     1.0  0.78513  0.12172  0.85793  1.0000
  C   C2934     1.0  0.95738  0.14578  0.84646  1.0000
  C   C2935     1.0  0.96781  0.14664  0.83683  1.0000
  C   C2936     1.0  0.97649  0.15345  0.83694  1.0000
  C   C2937     1.0  0.97480  0.15937  0.84674  1.0000
  C   C2938     1.0  0.96457  0.15823  0.85653  1.0000
  C   C2939     1.0  0.95586  0.15149  0.85638  1.0000
  H   H4687     1.0  0.96906  0.14220  0.82915  1.0000
  H   H4688     1.0  0.98436  0.15431  0.82933  1.0000
  H   H4689     1.0  0.96341  0.16258  0.86425  1.0000
  H   H4690     1.0  0.94799  0.15071  0.86393  1.0000
  C   C2940     1.0  0.87053  0.14369  0.85713  1.0000
  C   C2941     1.0  0.87096  0.13356  0.86706  1.0000
  C   C2942     1.0  0.86034  0.12842  0.87260  1.0000
  C   C2943     1.0  0.84919  0.13357  0.86840  1.0000
  C   C2944     1.0  0.84875  0.14377  0.85858  1.0000
  C   C2945     1.0  0.85945  0.14863  0.85282  1.0000
  H   H4691     1.0  0.87952  0.12961  0.87036  1.0000
  H   H4692     1.0  0.86077  0.12047  0.88015  1.0000
  H   H4693     1.0  0.84024  0.14770  0.85518  1.0000
  H   H4694     1.0  0.85916  0.15620  0.84497  1.0000
  C   C2946     1.0  0.81325  0.21232  0.87848  1.0000
  C   C2947     1.0  0.81747  0.21528  0.86571  1.0000
  C   C2948     1.0  0.81733  0.20728  0.85826  1.0000
  C   C2949     1.0  0.81345  0.19603  0.86354  1.0000
  C   C2950     1.0  0.80921  0.19303  0.87634  1.0000
  C   C2951     1.0  0.80899  0.20124  0.88379  1.0000
  H   H4695     1.0  0.82048  0.22393  0.86151  1.0000
  H   H4696     1.0  0.82018  0.20986  0.84836  1.0000
  H   H4697     1.0  0.80597  0.18449  0.88050  1.0000
  H   H4698     1.0  0.80559  0.19896  0.89366  1.0000
  C   C2952     1.0  0.87736  0.20373  0.85980  1.0000
  C   C2953     1.0  0.88151  0.20732  0.86864  1.0000
  C   C2954     1.0  0.89045  0.19908  0.87486  1.0000
  C   C2955     1.0  0.89497  0.18715  0.87245  1.0000
  C   C2956     1.0  0.89036  0.18341  0.86404  1.0000
  C   C2957     1.0  0.88177  0.19175  0.85754  1.0000
  H   H4699     1.0  0.87807  0.21654  0.87050  1.0000
  H   H4700     1.0  0.89387  0.20198  0.88146  1.0000
  H   H4701     1.0  0.89344  0.17412  0.86243  1.0000
  H   H4702     1.0  0.87851  0.18882  0.85086  1.0000
  C   C2958     1.0  0.86556  0.19243  0.93158  1.0000
  C   C2959     1.0  0.86937  0.20227  0.93380  1.0000
  C   C2960     1.0  0.86778  0.21388  0.92587  1.0000
  C   C2961     1.0  0.86266  0.21564  0.91550  1.0000
  C   C2962     1.0  0.85922  0.20568  0.91305  1.0000
  C   C2963     1.0  0.86054  0.19410  0.92116  1.0000
  H   H4703     1.0  0.87338  0.20096  0.94179  1.0000
  H   H4704     1.0  0.87055  0.22151  0.92778  1.0000
  H   H4705     1.0  0.85554  0.20688  0.90494  1.0000
  H   H4706     1.0  0.85795  0.18641  0.91922  1.0000
  C   C2964     1.0  0.80228  0.17125  0.93252  1.0000
  C   C2965     1.0  0.81024  0.16582  0.92288  1.0000
  C   C2966     1.0  0.80532  0.16151  0.91500  1.0000
  C   C2967     1.0  0.79249  0.16216  0.91707  1.0000
  C   C2968     1.0  0.78462  0.16749  0.92675  1.0000
  C   C2969     1.0  0.78946  0.17224  0.93428  1.0000
  H   H4707     1.0  0.82016  0.16504  0.92146  1.0000
  H   H4708     1.0  0.81143  0.15747  0.90751  1.0000
  H   H4709     1.0  0.77472  0.16801  0.92842  1.0000
  H   H4710     1.0  0.78327  0.17642  0.94169  1.0000
  C   C2970     1.0  0.86676  0.13083  0.91523  1.0000
  C   C2971     1.0  0.87118  0.12907  0.90309  1.0000
  C   C2972     1.0  0.88386  0.12489  0.89889  1.0000
  C   C2973     1.0  0.89211  0.12226  0.90687  1.0000
  C   C2974     1.0  0.88762  0.12341  0.91919  1.0000
  C   C2975     1.0  0.87493  0.12785  0.92334  1.0000
  H   H4711     1.0  0.86487  0.13123  0.89683  1.0000
  H   H4712     1.0  0.88734  0.12380  0.88942  1.0000
  H   H4713     1.0  0.89399  0.12125  0.92539  1.0000
  H   H4714     1.0  0.87148  0.12887  0.93282  1.0000
  H   H4715     1.0  0.69133  0.08861  0.83021  1.0000
  H   H4716     1.0  0.86046  0.25233  0.91549  1.0000
  H   H4717     1.0  0.87424  0.25311  0.90382  1.0000
  H   H4718     1.0  0.86236  0.25862  0.88735  1.0000
  C   C2976     1.0  0.85110  0.18270  0.88376  1.0000
  C   C2977     1.0  0.87263  0.29268  0.86208  1.0000
  C   C2978     1.0  0.87512  0.27989  0.86258  1.0000
  C   C2979     1.0  0.86581  0.27406  0.86210  1.0000
  C   C2980     1.0  0.85390  0.28094  0.86119  1.0000
  C   C2981     1.0  0.85154  0.29384  0.86019  1.0000
  C   C2982     1.0  0.86089  0.29971  0.86065  1.0000
  H   H4719     1.0  0.88423  0.27442  0.86357  1.0000
  H   H4720     1.0  0.86786  0.26422  0.86252  1.0000
  H   H4721     1.0  0.84236  0.29925  0.85941  1.0000
  H   H4722     1.0  0.85887  0.30959  0.86030  1.0000
  H   H4723     1.0  0.92985  0.18675  0.86590  1.0000
  H   H4724     1.0  0.67234  0.05313  0.86489  1.0000
  H   H4725     1.0  0.84432  0.18495  0.87759  1.0000
  C   C2983     1.0  0.88964  0.31365  0.81357  1.0000
  C   C2984     1.0  0.68764  0.08985  0.82175  1.0000
  H   H4726     1.0  0.98839  0.11816  0.85769  1.0000
  N   N294      1.0  0.82036  0.20895  0.92345  1.0000
  C   C2985     1.0  0.82580  0.19961  0.91562  1.0000
  C   C2986     1.0  0.80667  0.21124  0.92545  1.0000
  C   C2987     1.0  0.82464  0.22064  0.91727  1.0000
  C   C2988     1.0  0.82431  0.20431  0.93545  1.0000
  H   H4727     1.0  0.82257  0.19075  0.92003  1.0000
  H   H4728     1.0  0.83609  0.19756  0.91397  1.0000
  H   H4729     1.0  0.82304  0.20286  0.90648  1.0000
  H   H4730     1.0  0.80345  0.21472  0.91652  1.0000
  H   H4731     1.0  0.80310  0.20261  0.93008  1.0000
  H   H4732     1.0  0.80217  0.21821  0.93135  1.0000
  H   H4733     1.0  0.83492  0.21932  0.91556  1.0000
  H   H4734     1.0  0.82065  0.22789  0.92292  1.0000
  H   H4735     1.0  0.82184  0.22442  0.90819  1.0000
  H   H4736     1.0  0.82028  0.21106  0.94166  1.0000
  H   H4737     1.0  0.83461  0.20252  0.93426  1.0000
  H   H4738     1.0  0.82130  0.19547  0.94038  1.0000
  H   H4739     1.0  0.87048  0.26228  0.91549  1.0000
  H   H4740     1.0  0.67192  0.05803  0.89583  1.0000
  H   H4741     1.0  0.69289  0.01614  0.84211  1.0000
  S   S1215     1.0  0.84084  0.13380  0.98195  1.0000
  H   H4742     1.0  0.85212  0.27994  0.91552  1.0000
  C   C2989     1.0  0.67863  0.99900  0.85067  1.0000
  S   S1216     1.0  0.67919  0.04811  0.84011  1.0000
  C   C2990     1.0  0.67870  0.12897  0.79938  1.0000
  H   H4743     1.0  0.84918  0.27127  0.88732  1.0000
  N   N295      1.0  0.85943  0.26902  0.90149  1.0000
  H   H4744     1.0  0.98169  0.12685  0.88242  1.0000
  H   H4745     1.0  0.87257  0.30881  0.83454  1.0000
  H   H4746     1.0  0.67181  0.08104  0.84205  1.0000
  H   H4747     1.0  0.67305  0.12963  0.83986  1.0000
  C   C2991     1.0  0.89719  0.30082  0.83155  1.0000
  H   H4748     1.0  0.87579  0.27256  0.88792  1.0000
  H   H4749     1.0  0.66963  0.12480  0.97267  1.0000
  N   N296      1.0  0.85581  0.16919  0.88701  1.0000
  C   C2992     1.0  0.86465  0.16662  0.89530  1.0000
  C   C2993     1.0  0.84531  0.16290  0.89330  1.0000
  C   C2994     1.0  0.86221  0.16443  0.87567  1.0000
  H   H4750     1.0  0.86821  0.15647  0.89804  1.0000
  H   H4751     1.0  0.86018  0.17013  0.90395  1.0000
  H   H4752     1.0  0.84051  0.16585  0.90218  1.0000
  H   H4753     1.0  0.84854  0.15266  0.89546  1.0000
  H   H4754     1.0  0.83830  0.16488  0.88742  1.0000
  H   H4755     1.0  0.86613  0.15431  0.87789  1.0000
  H   H4756     1.0  0.88588  0.32173  0.81817  1.0000
  H   H4757     1.0  0.68800  0.02225  0.82758  1.0000
  C   C2995     1.0  0.93505  0.18050  0.85940  1.0000
  H   H4758     1.0  0.93636  0.20407  0.84872  1.0000
  C   C2996     1.0  0.67371  0.13877  0.80563  1.0000
  H   H4759     1.0  0.90417  0.29154  0.81092  1.0000
  H   H4760     1.0  0.89926  0.31447  0.80853  1.0000
  C   C2997     1.0  0.86647  0.25878  0.90944  1.0000
  C   C2998     1.0  0.89444  0.29139  0.81604  1.0000
  H   H4761     1.0  0.67222  0.12723  0.85611  1.0000
  H   H4762     1.0  0.94480  0.17773  0.86068  1.0000
  C   C2999     1.0  0.92115  0.19100  0.84549  1.0000
  N   N297      1.0  0.82430  0.12274  0.91401  1.0000
  C   C3000     1.0  0.83000  0.13295  0.90575  1.0000
  C   C3001     1.0  0.81105  0.12759  0.91881  1.0000
  C   C3002     1.0  0.83081  0.11739  0.92443  1.0000
  C   C3003     1.0  0.82540  0.11311  0.90701  1.0000
  H   H4763     1.0  0.82923  0.14047  0.91066  1.0000
  H   H4764     1.0  0.82546  0.13702  0.89772  1.0000
  H   H4765     1.0  0.84004  0.12966  0.90201  1.0000
  H   H4766     1.0  0.80637  0.12011  0.92494  1.0000
  H   H4767     1.0  0.80992  0.13479  0.92425  1.0000
  H   H4768     1.0  0.80593  0.13197  0.91117  1.0000
  H   H4769     1.0  0.82692  0.10951  0.93079  1.0000
  H   H4770     1.0  0.83007  0.12443  0.92994  1.0000
  H   H4771     1.0  0.84091  0.11396  0.92109  1.0000
  H   H4772     1.0  0.83528  0.10960  0.90289  1.0000
  H   H4773     1.0  0.82043  0.11685  0.89918  1.0000
  H   H4774     1.0  0.82147  0.10509  0.91296  1.0000
  N   N298      1.0  0.89737  0.15757  0.91893  1.0000
  C   C3004     1.0  0.90920  0.15740  0.92217  1.0000
  C   C3005     1.0  0.89989  0.15072  0.90889  1.0000
  C   C3006     1.0  0.89122  0.17054  0.91479  1.0000
  C   C3007     1.0  0.88920  0.15162  0.92986  1.0000
  H   H4775     1.0  0.90761  0.16247  0.92977  1.0000
  H   H4776     1.0  0.91557  0.16184  0.91410  1.0000
  H   H4777     1.0  0.91409  0.14774  0.92533  1.0000
  H   H4778     1.0  0.89115  0.15023  0.90651  1.0000
  H   H4779     1.0  0.90574  0.15513  0.90035  1.0000
  H   H4780     1.0  0.90491  0.14100  0.91155  1.0000
  H   H4781     1.0  0.89696  0.17522  0.90633  1.0000
  H   H4782     1.0  0.88955  0.17606  0.92203  1.0000
  H   H4783     1.0  0.88205  0.17107  0.91270  1.0000
  H   H4784     1.0  0.88011  0.15177  0.92777  1.0000
  H   H4785     1.0  0.88720  0.15645  0.93771  1.0000
  H   H4786     1.0  0.89345  0.14176  0.93313  1.0000
  H   H4787     1.0  0.88880  0.29180  0.80923  1.0000
  H   H4788     1.0  0.87034  0.30224  0.82276  1.0000
  H   H4789     1.0  0.88398  0.31471  0.80659  1.0000
  N   N299      1.0  0.75394  0.15621  0.89208  1.0000
  C   C3008     1.0  0.75241  0.16336  0.87962  1.0000
  C   C3009     1.0  0.76410  0.14526  0.89095  1.0000
  C   C3010     1.0  0.74228  0.15208  0.89882  1.0000
  C   C3011     1.0  0.75699  0.16411  0.89889  1.0000
  H   H4790     1.0  0.76106  0.16660  0.87426  1.0000
  H   H4791     1.0  0.74479  0.17166  0.88006  1.0000
  H   H4792     1.0  0.75033  0.15760  0.87414  1.0000
  H   H4793     1.0  0.76220  0.13910  0.88577  1.0000
  H   H4794     1.0  0.77297  0.14808  0.88581  1.0000
  H   H4795     1.0  0.76568  0.13972  0.90015  1.0000
  H   H4796     1.0  0.74314  0.14665  0.90825  1.0000
  H   H4797     1.0  0.73978  0.14608  0.89388  1.0000
  H   H4798     1.0  0.73439  0.16010  0.89982  1.0000
  H   H4799     1.0  0.75850  0.15895  0.90825  1.0000
  H   H4800     1.0  0.74950  0.17243  0.90004  1.0000
  H   H4801     1.0  0.76571  0.16744  0.89398  1.0000
  N   N300      1.0  0.93433  0.18656  0.84647  1.0000
  C   C3012     1.0  0.94048  0.17758  0.83833  1.0000
  C   C3013     1.0  0.94068  0.19716  0.84271  1.0000
  H   H4802     1.0  0.93973  0.18167  0.82856  1.0000
  H   H4803     1.0  0.95055  0.17440  0.83851  1.0000
  H   H4804     1.0  0.93634  0.16915  0.84119  1.0000
  H   H4805     1.0  0.94030  0.20198  0.83300  1.0000
  H   H4806     1.0  0.95068  0.19409  0.84332  1.0000
  H   H4807     1.0  0.92018  0.19560  0.83586  1.0000
  N   N301      1.0  0.75492  0.12202  0.81161  1.0000
  C   C3014     1.0  0.74898  0.13197  0.81864  1.0000
  C   C3015     1.0  0.76737  0.11631  0.81442  1.0000
  C   C3016     1.0  0.75610  0.12731  0.79825  1.0000
  C   C3017     1.0  0.74722  0.11250  0.81515  1.0000
  H   H4808     1.0  0.74778  0.12825  0.82877  1.0000
  H   H4809     1.0  0.73961  0.13660  0.81668  1.0000
  H   H4810     1.0  0.75466  0.13920  0.81643  1.0000
  H   H4811     1.0  0.76677  0.11230  0.82447  1.0000
  H   H4812     1.0  0.77210  0.10866  0.80940  1.0000
  H   H4813     1.0  0.77345  0.12322  0.81191  1.0000
  H   H4814     1.0  0.76061  0.12005  0.79266  1.0000
  H   H4815     1.0  0.76177  0.13461  0.79527  1.0000
  H   H4816     1.0  0.74683  0.13158  0.79585  1.0000
  H   H4817     1.0  0.73765  0.11648  0.81338  1.0000
  H   H4818     1.0  0.74633  0.10818  0.82513  1.0000
  H   H4819     1.0  0.75132  0.10490  0.80994  1.0000
  N   N302      1.0  0.85121  0.19488  0.83480  1.0000
  C   C3018     1.0  0.85563  0.18183  0.83348  1.0000
  C   C3019     1.0  0.84770  0.19537  0.84806  1.0000
  C   C3020     1.0  0.84028  0.20041  0.82902  1.0000
  C   C3021     1.0  0.86118  0.20189  0.82867  1.0000
  H   H4820     1.0  0.85851  0.18104  0.82360  1.0000
  H   H4821     1.0  0.84817  0.17640  0.83786  1.0000
  H   H4822     1.0  0.86378  0.17728  0.83790  1.0000
  H   H4823     1.0  0.84422  0.20509  0.84945  1.0000
  H   H4824     1.0  0.84027  0.19006  0.85298  1.0000
  H   H4825     1.0  0.85577  0.19144  0.85266  1.0000
  H   H4826     1.0  0.83253  0.19540  0.83349  1.0000
  H   H4827     1.0  0.84255  0.20008  0.81904  1.0000
  H   H4828     1.0  0.83671  0.21028  0.82984  1.0000
  H   H4829     1.0  0.85818  0.21174  0.82972  1.0000
  H   H4830     1.0  0.86399  0.20182  0.81862  1.0000
  H   H4831     1.0  0.86960  0.19794  0.83275  1.0000
  H   H4832     1.0  0.91622  0.19774  0.85158  1.0000
  H   H4833     1.0  0.89724  0.29202  0.83856  1.0000
  H   H4834     1.0  0.87136  0.28167  0.89961  1.0000
  N   N303      1.0  0.88944  0.30180  0.82260  1.0000
  H   H4835     1.0  0.69191  0.09711  0.81472  1.0000
  C   C3022     1.0  0.99122  0.12163  0.87926  1.0000
  H   H4836     1.0  0.86268  0.28524  0.88763  1.0000
  N   N304      1.0  0.67393  0.09330  0.82426  1.0000
  H   H4837     1.0  0.90697  0.30137  0.82689  1.0000
  H   H4838     1.0  0.84854  0.25733  0.89891  1.0000
  H   H4839     1.0  0.87010  0.16901  0.87050  1.0000
  H   H4840     1.0  0.84244  0.26983  0.91510  1.0000
  H   H4841     1.0  0.85579  0.16581  0.86932  1.0000
  H   H4842     1.0  0.84340  0.28372  0.90350  1.0000
  C   C3023     1.0  0.87654  0.30127  0.82923  1.0000
  H   H4843     1.0  0.84627  0.18660  0.89213  1.0000
  H   H4844     1.0  0.69103  0.08105  0.81828  1.0000
  H   H4845     1.0  0.67704  0.02335  0.84176  1.0000
  C   C3024     1.0  0.86767  0.27748  0.89385  1.0000
  C   C3025     1.0  0.84888  0.27594  0.90927  1.0000
  H   H4846     1.0  0.87601  0.29235  0.83596  1.0000
  H   H4847     1.0  0.67358  0.11251  0.82301  1.0000
  H   H4848     1.0  0.98806  0.14607  0.86921  1.0000
  H   H4849     1.0  0.89446  0.28230  0.82260  1.0000
  C   C3026     1.0  0.68525  0.01720  0.83723  1.0000
  H   H4850     1.0  0.67407  0.06728  0.91760  1.0000
  H   H4851     1.0  0.67061  0.00497  0.85565  1.0000
  S   S1217     1.0  0.90381  0.32307  0.84933  1.0000
  H   H4852     1.0  0.99274  0.13224  0.84843  1.0000
  H   H4853     1.0  0.68168  0.07217  0.90185  1.0000
  H   H4854     1.0  0.67158  0.07440  0.82946  1.0000
  C   C3027     1.0  0.67212  0.00718  0.83111  1.0000
  H   H4855     1.0  0.66913  0.99838  0.83186  1.0000
  H   H4856     1.0  0.67221  0.08343  0.91062  1.0000
  C   C3028     1.0  0.69346  0.99720  0.83159  1.0000
  H   H4857     1.0  0.67320  0.10314  0.83824  1.0000
  N   N305      1.0  0.99675  0.12749  0.86665  1.0000
  C   C3029     1.0  0.66868  0.08309  0.83314  1.0000
  H   H4858     1.0  0.66978  0.08089  0.88568  1.0000
  H   H4859     1.0  0.67122  0.15178  0.83852  1.0000
  H   H4860     1.0  0.67304  0.10343  0.80572  1.0000
  H   H4861     1.0  0.66925  0.15008  0.85485  1.0000
  C   C3030     1.0  0.66987  0.10460  0.82952  1.0000
  C   C3031     1.0  0.66822  0.11629  0.89703  1.0000
  C   C3032     1.0  0.99743  0.14032  0.86654  1.0000
  H   H4862     1.0  0.68628  0.99690  0.85578  1.0000
  H   H4863     1.0  0.99690  0.12129  0.88601  1.0000
  C   C3033     1.0  0.66950  0.09563  0.81263  1.0000
  H   H4864     1.0  0.70138  0.99549  0.83628  1.0000
  Fe  Fe610     1.0  0.73625  0.60100  0.10076  1.0000
  S   S1218     1.0  0.72379  0.61791  0.09214  1.0000
  S   S1219     1.0  0.75686  0.60025  0.09903  1.0000
  Fe  Fe611     1.0  0.71554  0.58576  0.10923  1.0000
  S   S1220     1.0  0.70171  0.60150  0.10130  1.0000
  S   S1221     1.0  0.70772  0.56896  0.12053  1.0000
  Fe  Fe612     1.0  0.71724  0.60454  0.08506  1.0000
  S   S1222     1.0  0.71272  0.60801  0.06632  1.0000
  Fe  Fe613     1.0  0.70941  0.61328  0.10919  1.0000
  S   S1223     1.0  0.69695  0.62745  0.11982  1.0000
  S   S1224     1.0  0.73068  0.58778  0.09230  1.0000
  S   S1225     1.0  0.72228  0.59737  0.11848  1.0000
  S   S1226     1.0  0.68134  0.54124  0.09597  1.0000
  H   H4865     1.0  0.71702  0.57286  0.15409  1.0000
  H   H4866     1.0  0.87271  0.62383  0.08810  1.0000
  N   N306      1.0  0.77460  0.64611  0.07381  1.0000
  H   H4867     1.0  0.67874  0.60577  0.08090  1.0000
  C   C3034     1.0  0.69814  0.59284  0.15339  1.0000
  H   H4868     1.0  0.67929  0.58433  0.14967  1.0000
  S   S1227     1.0  0.85394  0.63580  0.03160  1.0000
  H   H4869     1.0  0.82777  0.64655  0.06953  1.0000
  Fe  Fe614     1.0  0.92165  0.64345  0.07570  1.0000
  S   S1228     1.0  0.91674  0.63298  0.09522  1.0000
  S   S1229     1.0  0.92513  0.63452  0.05930  1.0000
  H   H4870     1.0  0.99495  0.61781  0.13270  1.0000
  Fe  Fe615     1.0  0.93048  0.64189  0.09943  1.0000
  S   S1230     1.0  0.94401  0.63198  0.11222  1.0000
  Fe  Fe616     1.0  0.90283  0.65049  0.09793  1.0000
  H   H4871     1.0  0.69291  0.56384  0.16645  1.0000
  C   C3035     1.0  0.83217  0.65299  0.03404  1.0000
  Fe  Fe617     1.0  0.79818  0.64349  0.10649  1.0000
  S   S1231     1.0  0.77984  0.63742  0.11588  1.0000
  Fe  Fe618     1.0  0.82644  0.63911  0.09689  1.0000
  S   S1232     1.0  0.84604  0.62810  0.09303  1.0000
  S   S1233     1.0  0.81437  0.64258  0.11510  1.0000
  S   S1234     1.0  0.81045  0.63790  0.08923  1.0000
  C   C3036     1.0  0.87283  0.64551  0.10385  1.0000
  C   C3037     1.0  0.67001  0.64927  0.10604  1.0000
  C   C3038     1.0  0.85175  0.64349  0.10485  1.0000
  C   C3039     1.0  0.85632  0.63449  0.09758  1.0000
  C   C3040     1.0  0.86918  0.63097  0.09348  1.0000
  C   C3041     1.0  0.87744  0.63658  0.09647  1.0000
  C   C3042     1.0  0.67932  0.61302  0.12866  1.0000
  C   C3043     1.0  0.77531  0.64962  0.08517  1.0000
  Fe  Fe619     1.0  0.86233  0.65040  0.01744  1.0000
  Fe  Fe620     1.0  0.99947  0.64800  0.13083  1.0000
  H   H4872     1.0  0.97909  0.60243  0.11808  1.0000
  H   H4873     1.0  0.88032  0.64496  0.05176  1.0000
  C   C3044     1.0  0.90406  0.65381  0.03370  1.0000
  C   C3045     1.0  0.99258  0.62019  0.10948  1.0000
  H   H4874     1.0  0.69627  0.59152  0.07012  1.0000
  H   H4875     1.0  0.67687  0.64050  0.10807  1.0000
  C   C3046     1.0  0.67395  0.63215  0.06804  1.0000
  C   C3047     1.0  0.67004  0.60807  0.13782  1.0000
  C   C3048     1.0  0.92654  0.63686  0.03486  1.0000
  C   C3049     1.0  0.91958  0.64107  0.04551  1.0000
  C   C3050     1.0  0.90833  0.64967  0.04494  1.0000
  H   H4876     1.0  0.68190  0.61042  0.11978  1.0000
  N   N307      1.0  0.69770  0.57998  0.15340  1.0000
  H   H4877     1.0  0.93518  0.63018  0.03524  1.0000
  C   C3051     1.0  0.91121  0.64955  0.02303  1.0000
  C   C3052     1.0  0.82032  0.65763  0.05376  1.0000
  C   C3053     1.0  0.97282  0.65079  0.11823  1.0000
  C   C3054     1.0  0.96994  0.63996  0.12630  1.0000
  C   C3055     1.0  0.96092  0.63443  0.12450  1.0000
  C   C3056     1.0  0.95465  0.63971  0.11468  1.0000
  C   C3057     1.0  0.95732  0.65071  0.10680  1.0000
  H   H4878     1.0  0.99658  0.61910  0.09978  1.0000
  H   H4879     1.0  0.97455  0.63596  0.13401  1.0000
  H   H4880     1.0  0.95871  0.62606  0.13078  1.0000
  C   C3058     1.0  0.70030  0.56150  0.11354  1.0000
  C   C3059     1.0  0.70460  0.56038  0.10120  1.0000
  C   C3060     1.0  0.69890  0.55387  0.09601  1.0000
  C   C3061     1.0  0.68870  0.54868  0.10303  1.0000
  C   C3062     1.0  0.68429  0.54994  0.11534  1.0000
  C   C3063     1.0  0.69019  0.55618  0.12061  1.0000
  H   H4881     1.0  0.71254  0.56422  0.09575  1.0000
  H   H4882     1.0  0.70241  0.55285  0.08652  1.0000
  H   H4883     1.0  0.70500  0.59313  0.15868  1.0000
  H   H4884     1.0  0.68689  0.55688  0.13020  1.0000
  C   C3064     1.0  0.69822  0.61802  0.06635  1.0000
  C   C3065     1.0  0.69118  0.61831  0.05781  1.0000
  C   C3066     1.0  0.78555  0.64866  0.06409  1.0000
  H   H4885     1.0  0.67714  0.59900  0.06225  1.0000
  C   C3067     1.0  0.67483  0.59764  0.08659  1.0000
  C   C3068     1.0  0.69323  0.62505  0.07552  1.0000
  H   H4886     1.0  0.69506  0.61293  0.05066  1.0000
  H   H4887     1.0  0.99133  0.59022  0.12317  1.0000
  H   H4888     1.0  0.68902  0.57062  0.14479  1.0000
  H   H4889     1.0  0.69869  0.62500  0.08203  1.0000
  C   C3069     1.0  0.68514  0.62139  0.13102  1.0000
  H   H4890     1.0  0.68584  0.63159  0.14424  1.0000
  Fe  Fe621     1.0  0.80924  0.65831  0.08218  1.0000
  N   N308      1.0  0.99548  0.60844  0.11836  1.0000
  H   H4891     1.0  0.86003  0.65763  0.08180  1.0000
  H   H4892     1.0  0.86836  0.61649  0.06782  1.0000
  H   H4893     1.0  0.95250  0.65492  0.09926  1.0000
  H   H4894     1.0  0.69968  0.57330  0.17228  1.0000
  C   C3070     1.0  0.85998  0.64891  0.10803  1.0000
  C   C3071     1.0  0.99087  0.61056  0.13112  1.0000
  C   C3072     1.0  0.76304  0.61040  0.10420  1.0000
  C   C3073     1.0  0.77599  0.60941  0.10167  1.0000
  C   C3074     1.0  0.78128  0.61765  0.10511  1.0000
  C   C3075     1.0  0.77366  0.62680  0.11138  1.0000
  C   C3076     1.0  0.76072  0.62766  0.11410  1.0000
  C   C3077     1.0  0.75541  0.61960  0.11041  1.0000
  H   H4895     1.0  0.78196  0.60228  0.09694  1.0000
  H   H4896     1.0  0.79125  0.61679  0.10310  1.0000
  H   H4897     1.0  0.75475  0.63465  0.11902  1.0000
  H   H4898     1.0  0.74544  0.62044  0.11245  1.0000
  C   C3078     1.0  0.71024  0.57340  0.14838  1.0000
  C   C3079     1.0  0.69337  0.57356  0.16617  1.0000
  S   S1235     1.0  0.87819  0.64602  0.00196  1.0000
  H   H4899     1.0  0.67694  0.57363  0.09693  1.0000
  H   H4900     1.0  0.69153  0.58555  0.13615  1.0000
  C   C3080     1.0  0.84054  0.64364  0.04006  1.0000
  S   S1236     1.0  0.93671  0.65064  0.07958  1.0000
  C   C3081     1.0  0.68117  0.63218  0.07628  1.0000
  C   C3082     1.0  0.68143  0.62504  0.14243  1.0000
  H   H4901     1.0  0.68895  0.59789  0.15759  1.0000
  C   C3083     1.0  0.92250  0.64122  0.02367  1.0000
  H   H4902     1.0  0.98238  0.62352  0.11021  1.0000
  H   H4903     1.0  0.85629  0.65580  0.11372  1.0000
  H   H4904     1.0  0.99626  0.62769  0.11111  1.0000
  H   H4905     1.0  0.68389  0.57832  0.17018  1.0000
  C   C3084     1.0  0.68899  0.58014  0.14569  1.0000
  H   H4906     1.0  0.67243  0.65633  0.10970  1.0000
  H   H4907     1.0  0.78362  0.64401  0.08882  1.0000
  H   H4908     1.0  0.78557  0.64578  0.05548  1.0000
  H   H4909     1.0  0.67350  0.62533  0.05226  1.0000
  N   N309      1.0  0.88129  0.62557  0.05330  1.0000
  C   C3085     1.0  0.87284  0.61669  0.05790  1.0000
  C   C3086     1.0  0.87424  0.63802  0.05506  1.0000
  C   C3087     1.0  0.88659  0.62591  0.04001  1.0000
  C   C3088     1.0  0.89148  0.62167  0.06021  1.0000
  H   H4910     1.0  0.71020  0.56380  0.14779  1.0000
  H   H4911     1.0  0.87783  0.60711  0.05700  1.0000
  N   N310      1.0  0.67857  0.58723  0.08002  1.0000
  H   H4912     1.0  0.84514  0.63403  0.05764  1.0000
  S   S1237     1.0  0.98439  0.65786  0.11987  1.0000
  H   H4913     1.0  0.86993  0.63802  0.06498  1.0000
  H   H4914     1.0  0.89302  0.63251  0.03624  1.0000
  H   H4915     1.0  0.87919  0.62887  0.03449  1.0000
  H   H4916     1.0  0.89190  0.61664  0.03833  1.0000
  H   H4917     1.0  0.89806  0.62813  0.05697  1.0000
  H   H4918     1.0  0.89698  0.61229  0.05911  1.0000
  H   H4919     1.0  0.88789  0.62133  0.07026  1.0000
  C   C3089     1.0  0.67242  0.61981  0.15170  1.0000
  H   H4920     1.0  0.69549  0.57553  0.07260  1.0000
  H   H4921     1.0  0.78301  0.62698  0.07944  1.0000
  C   C3090     1.0  0.76312  0.65337  0.06965  1.0000
  H   H4922     1.0  0.70082  0.59815  0.14381  1.0000
  H   H4923     1.0  0.92810  0.63794  0.01550  1.0000
  Fe  Fe622     1.0  0.88650  0.65897  0.00786  1.0000
  H   H4924     1.0  0.86656  0.64123  0.04983  1.0000
  C   C3091     1.0  0.67897  0.62525  0.05875  1.0000
  C   C3092     1.0  0.69227  0.58388  0.07683  1.0000
  H   H4925     1.0  0.90286  0.65289  0.05318  1.0000
  H   H4926     1.0  0.67646  0.54594  0.12084  1.0000
  H   H4927     1.0  0.69645  0.58193  0.08510  1.0000
  H   H4928     1.0  0.79438  0.64362  0.06715  1.0000
  H   H4929     1.0  0.88736  0.63382  0.09331  1.0000
  H   H4930     1.0  0.86523  0.61922  0.05263  1.0000
  H   H4931     1.0  0.71384  0.57818  0.13885  1.0000
  H   H4932     1.0  0.75472  0.65151  0.07680  1.0000
  H   H4933     1.0  0.67142  0.65232  0.09583  1.0000
  H   H4934     1.0  0.76231  0.65099  0.06106  1.0000
  C   C3093     1.0  0.67355  0.59094  0.06861  1.0000
  H   H4935     1.0  0.67608  0.58326  0.06348  1.0000
  H   H4936     1.0  0.67738  0.63754  0.08339  1.0000
  C   C3094     1.0  0.67362  0.57646  0.08807  1.0000
  H   H4937     1.0  0.99263  0.59734  0.10705  1.0000
  H   H4938     1.0  0.78583  0.65869  0.06170  1.0000
  C   C3095     1.0  0.98938  0.59918  0.11658  1.0000
  C   C3096     1.0  0.96636  0.65622  0.10858  1.0000
  H   H4939     1.0  0.77367  0.62976  0.06812  1.0000
  H   H4940     1.0  0.84186  0.64620  0.10815  1.0000
  S   S1238     1.0  0.91597  0.65846  0.10390  1.0000
  H   H4941     1.0  0.98060  0.61359  0.13321  1.0000
  H   H4942     1.0  0.83345  0.65475  0.02410  1.0000
  H   H4943     1.0  0.76707  0.64810  0.09267  1.0000
  S   S1239     1.0  0.82597  0.65912  0.08847  1.0000
  H   H4944     1.0  0.66997  0.62224  0.16070  1.0000
  H   H4945     1.0  0.76638  0.63048  0.08386  1.0000
  C   C3097     1.0  0.77441  0.63276  0.07640  1.0000
  C   C3098     1.0  0.82875  0.64832  0.05969  1.0000
  C   C3099     1.0  0.83871  0.64121  0.05291  1.0000
  S   S1240     1.0  0.90676  0.65452  0.00857  1.0000
  S   S1241     1.0  0.88274  0.65285  0.10779  1.0000
  S   S1242     1.0  0.99898  0.63614  0.14994  1.0000
  H   H4946     1.0  0.67662  0.56826  0.08359  1.0000
  H   H4947     1.0  0.67829  0.59507  0.09536  1.0000
  H   H4948     1.0  0.99338  0.60201  0.13804  1.0000
  S   S1243     1.0  0.98302  0.40734  0.34243  1.0000
  H   H4949     1.0  0.87873  0.32996  0.34384  1.0000
  S   S1244     1.0  0.86408  0.34782  0.44006  1.0000
  H   H4950     1.0  0.88540  0.39295  0.45499  1.0000
  Fe  Fe623     1.0  0.85759  0.35058  0.47452  1.0000
  S   S1245     1.0  0.85099  0.36622  0.45961  1.0000
  H   H4951     1.0  0.95643  0.34233  0.38718  1.0000
  Fe  Fe624     1.0  0.84579  0.35179  0.45285  1.0000
  S   S1246     1.0  0.82896  0.35211  0.44582  1.0000
  Fe  Fe625     1.0  0.86997  0.36046  0.44851  1.0000
  S   S1247     1.0  0.88095  0.37421  0.43589  1.0000
  S   S1248     1.0  0.85073  0.33649  0.46854  1.0000
  S   S1249     1.0  0.87701  0.34555  0.46362  1.0000
  Fe  Fe626     1.0  0.81685  0.36191  0.37613  1.0000
  S   S1250     1.0  0.81575  0.37138  0.35663  1.0000
  S   S1251     1.0  0.81331  0.34287  0.38464  1.0000
  Fe  Fe627     1.0  0.82127  0.38446  0.38261  1.0000
  S   S1252     1.0  0.82066  0.39597  0.36366  1.0000
  S   S1253     1.0  0.82396  0.39274  0.39732  1.0000
  Fe  Fe628     1.0  0.80435  0.38762  0.36489  1.0000
  S   S1254     1.0  0.78523  0.39862  0.36301  1.0000
  Fe  Fe629     1.0  0.83216  0.37871  0.35736  1.0000
  S   S1255     1.0  0.84977  0.37779  0.34303  1.0000
  S   S1256     1.0  0.80416  0.37742  0.38441  1.0000
  S   S1257     1.0  0.83413  0.36783  0.37631  1.0000
  Fe  Fe630     1.0  0.90893  0.37219  0.36252  1.0000
  S   S1258     1.0  0.90449  0.35371  0.37232  1.0000
  S   S1259     1.0  0.89234  0.38781  0.36342  1.0000
  Fe  Fe631     1.0  0.93673  0.36196  0.35644  1.0000
  S   S1260     1.0  0.93428  0.34257  0.36567  1.0000
  S   S1261     1.0  0.95715  0.36229  0.34960  1.0000
  Fe  Fe632     1.0  0.91815  0.34683  0.35641  1.0000
  H   H4952     1.0  0.79507  0.36174  0.35031  1.0000
  Fe  Fe633     1.0  0.92096  0.35140  0.38054  1.0000
  S   S1262     1.0  0.92097  0.34266  0.40043  1.0000
  S   S1263     1.0  0.92153  0.36557  0.34581  1.0000
  S   S1264     1.0  0.92443  0.37050  0.37212  1.0000
  Fe  Fe634     1.0  0.73734  0.38974  0.33119  1.0000
  S   S1265     1.0  0.72651  0.37490  0.34114  1.0000
  S   S1266     1.0  0.75836  0.38620  0.32676  1.0000
  Fe  Fe635     1.0  0.71428  0.40964  0.32850  1.0000
  S   S1267     1.0  0.70137  0.39686  0.33868  1.0000
  S   S1268     1.0  0.70752  0.42918  0.31917  1.0000
  Fe  Fe636     1.0  0.71473  0.38936  0.35150  1.0000
  S   S1269     1.0  0.70825  0.38292  0.37173  1.0000
  Fe  Fe637     1.0  0.71402  0.38342  0.32754  1.0000
  S   S1270     1.0  0.70376  0.37257  0.32118  1.0000
  S   S1271     1.0  0.72630  0.40376  0.34262  1.0000
  S   S1272     1.0  0.72613  0.39671  0.31624  1.0000
  H   H4953     1.0  0.86383  0.39307  0.39048  1.0000
  H   H4954     1.0  0.85783  0.40240  0.46416  1.0000
  C   C3100     1.0  0.69575  0.43787  0.32864  1.0000
  C   C3101     1.0  0.69398  0.43449  0.34151  1.0000
  C   C3102     1.0  0.68466  0.44178  0.34888  1.0000
  C   C3103     1.0  0.86640  0.37550  0.41165  1.0000
  C   C3104     1.0  0.87780  0.37068  0.39198  1.0000
  C   C3105     1.0  0.68809  0.44840  0.32316  1.0000
  H   H4955     1.0  0.69994  0.42642  0.34578  1.0000
  H   H4956     1.0  0.97093  0.38937  0.30878  1.0000
  H   H4957     1.0  0.68949  0.45109  0.31320  1.0000
  C   C3106     1.0  0.69354  0.39193  0.37560  1.0000
  C   C3107     1.0  0.69041  0.40369  0.36837  1.0000
  C   C3108     1.0  0.67831  0.41057  0.37066  1.0000
  H   H4958     1.0  0.79518  0.34587  0.35060  1.0000
  C   C3109     1.0  0.67489  0.37646  0.34388  1.0000
  C   C3110     1.0  0.68461  0.38707  0.38523  1.0000
  H   H4959     1.0  0.69736  0.40749  0.36103  1.0000
  C   C3111     1.0  0.95493  0.37343  0.38140  1.0000
  H   H4960     1.0  0.67818  0.40920  0.31950  1.0000
  H   H4961     1.0  0.68706  0.37797  0.39082  1.0000
  C   C3112     1.0  0.69399  0.38220  0.31135  1.0000
  C   C3113     1.0  0.68340  0.37855  0.31050  1.0000
  H   H4962     1.0  0.88329  0.36192  0.39649  1.0000
  H   H4963     1.0  0.98837  0.39084  0.29065  1.0000
  C   C3114     1.0  0.68889  0.40116  0.29650  1.0000
  C   C3115     1.0  0.69664  0.39360  0.30445  1.0000
  H   H4964     1.0  0.68134  0.36972  0.31578  1.0000
  C   C3116     1.0  0.67825  0.39757  0.29572  1.0000
  H   H4965     1.0  0.69118  0.40981  0.29093  1.0000
  H   H4966     1.0  0.70482  0.39645  0.30500  1.0000
  C   C3117     1.0  0.77799  0.39459  0.35312  1.0000
  C   C3118     1.0  0.76504  0.39617  0.35574  1.0000
  C   C3119     1.0  0.75899  0.39316  0.34796  1.0000
  C   C3120     1.0  0.76581  0.38900  0.33724  1.0000
  C   C3121     1.0  0.77881  0.38725  0.33470  1.0000
  C   C3122     1.0  0.78491  0.38989  0.34271  1.0000
  H   H4967     1.0  0.75964  0.39964  0.36388  1.0000
  H   H4968     1.0  0.74903  0.39415  0.35025  1.0000
  H   H4969     1.0  0.78416  0.38395  0.32645  1.0000
  H   H4970     1.0  0.79493  0.38866  0.34061  1.0000
  C   C3123     1.0  0.86166  0.38095  0.34830  1.0000
  C   C3124     1.0  0.85889  0.38931  0.35620  1.0000
  C   C3125     1.0  0.86845  0.39174  0.36040  1.0000
  C   C3126     1.0  0.88068  0.38535  0.35728  1.0000
  C   C3127     1.0  0.88342  0.37679  0.34960  1.0000
  C   C3128     1.0  0.87398  0.37484  0.34487  1.0000
  H   H4971     1.0  0.84943  0.39416  0.35877  1.0000
  H   H4972     1.0  0.86634  0.39854  0.36613  1.0000
  H   H4973     1.0  0.89288  0.37190  0.34705  1.0000
  H   H4974     1.0  0.87622  0.36852  0.33862  1.0000
  H   H4975     1.0  0.82276  0.32937  0.43819  1.0000
  H   H4976     1.0  0.98906  0.39569  0.32141  1.0000
  C   C3129     1.0  0.66931  0.40562  0.38006  1.0000
  H   H4977     1.0  0.82630  0.34235  0.35944  1.0000
  C   C3130     1.0  0.89292  0.36586  0.42629  1.0000
  C   C3131     1.0  0.89739  0.35326  0.43051  1.0000
  C   C3132     1.0  0.90635  0.34631  0.42264  1.0000
  C   C3133     1.0  0.91046  0.35179  0.41034  1.0000
  C   C3134     1.0  0.90596  0.36439  0.40606  1.0000
  C   C3135     1.0  0.89740  0.37148  0.41411  1.0000
  H   H4978     1.0  0.89402  0.34884  0.43989  1.0000
  H   H4979     1.0  0.86082  0.33998  0.37863  1.0000
  H   H4980     1.0  0.90907  0.36870  0.39658  1.0000
  H   H4981     1.0  0.89397  0.38123  0.41079  1.0000
  C   C3136     1.0  0.82744  0.36352  0.43248  1.0000
  C   C3137     1.0  0.83119  0.37472  0.43082  1.0000
  C   C3138     1.0  0.82972  0.38386  0.42016  1.0000
  C   C3139     1.0  0.82495  0.38162  0.41096  1.0000
  C   C3140     1.0  0.82140  0.37034  0.41254  1.0000
  C   C3141     1.0  0.82245  0.36139  0.42338  1.0000
  H   H4982     1.0  0.83497  0.37642  0.43788  1.0000
  H   H4983     1.0  0.83244  0.39260  0.41899  1.0000
  H   H4984     1.0  0.81779  0.36850  0.40544  1.0000
  H   H4985     1.0  0.81957  0.35272  0.42463  1.0000
  C   C3142     1.0  0.97546  0.39475  0.34596  1.0000
  C   C3143     1.0  0.98220  0.38257  0.34760  1.0000
  C   C3144     1.0  0.97635  0.37270  0.34902  1.0000
  C   C3145     1.0  0.96363  0.37489  0.34913  1.0000
  C   C3146     1.0  0.95668  0.38700  0.34820  1.0000
  C   C3147     1.0  0.96262  0.39692  0.34655  1.0000
  H   H4986     1.0  0.99196  0.38074  0.34768  1.0000
  H   H4987     1.0  0.98175  0.36332  0.34987  1.0000
  H   H4988     1.0  0.94685  0.38876  0.34826  1.0000
  H   H4989     1.0  0.95732  0.40634  0.34538  1.0000
  H   H4990     1.0  0.83108  0.32717  0.46200  1.0000
  H   H4991     1.0  0.87128  0.38316  0.41058  1.0000
  H   H4992     1.0  0.77428  0.36276  0.38097  1.0000
  H   H4993     1.0  0.77217  0.35057  0.35453  1.0000
  H   H4994     1.0  0.77203  0.36637  0.35433  1.0000
  H   H4995     1.0  0.66909  0.41137  0.33443  1.0000
  H   H4996     1.0  0.85739  0.36242  0.39264  1.0000
  N   N311      1.0  0.87190  0.38773  0.47125  1.0000
  H   H4997     1.0  0.97402  0.38248  0.32386  1.0000
  C   C3148     1.0  0.88080  0.34160  0.36005  1.0000
  H   H4998     1.0  0.94740  0.37616  0.37604  1.0000
  H   H4999     1.0  0.87171  0.36694  0.41664  1.0000
  H   H5000     1.0  0.68345  0.43929  0.35883  1.0000
  H   H5001     1.0  0.83853  0.32705  0.43958  1.0000
  N   N312      1.0  0.95504  0.36094  0.38930  1.0000
  H   H5002     1.0  0.66828  0.35686  0.37138  1.0000
  H   H5003     1.0  0.86472  0.35138  0.34469  1.0000
  C   C3149     1.0  0.67326  0.41629  0.32517  1.0000
  H   H5004     1.0  0.89011  0.39111  0.46935  1.0000
  H   H5005     1.0  0.69354  0.36447  0.35525  1.0000
  H   H5006     1.0  0.88413  0.37045  0.47668  1.0000
  H   H5007     1.0  0.85198  0.34491  0.35461  1.0000
  C   C3150     1.0  0.85849  0.36384  0.40155  1.0000
  H   H5008     1.0  0.86426  0.39984  0.48426  1.0000
  H   H5009     1.0  0.98533  0.40328  0.30668  1.0000
  H   H5010     1.0  0.67411  0.42552  0.30065  1.0000
  H   H5011     1.0  0.67730  0.35274  0.35703  1.0000
  H   H5012     1.0  0.95351  0.38061  0.38693  1.0000
  N   N313      1.0  0.86528  0.37390  0.39958  1.0000
  H   H5013     1.0  0.84902  0.36600  0.40727  1.0000
  H   H5014     1.0  0.67586  0.41962  0.36499  1.0000
  H   H5015     1.0  0.88010  0.37245  0.46200  1.0000
  C   C3151     1.0  0.99154  0.39532  0.31144  1.0000
  H   H5016     1.0  0.99585  0.37301  0.32641  1.0000
  H   H5017     1.0  0.89993  0.32826  0.41347  1.0000
  N   N314      1.0  0.78639  0.41016  0.39763  1.0000
  C   C3152     1.0  0.79663  0.41254  0.38698  1.0000
  C   C3153     1.0  0.78026  0.42182  0.40196  1.0000
  C   C3154     1.0  0.79142  0.40088  0.40773  1.0000
  C   C3155     1.0  0.77726  0.40542  0.39382  1.0000
  H   H5018     1.0  0.79322  0.41943  0.37912  1.0000
  H   H5019     1.0  0.80140  0.40394  0.38352  1.0000
  H   H5020     1.0  0.80382  0.41597  0.38951  1.0000
  H   H5021     1.0  0.77249  0.42038  0.41002  1.0000
  H   H5022     1.0  0.78692  0.42566  0.40484  1.0000
  H   H5023     1.0  0.77636  0.42901  0.39455  1.0000
  H   H5024     1.0  0.79845  0.40410  0.41073  1.0000
  H   H5025     1.0  0.79618  0.39198  0.40477  1.0000
  H   H5026     1.0  0.78398  0.39883  0.41595  1.0000
  H   H5027     1.0  0.78155  0.39656  0.39062  1.0000
  H   H5028     1.0  0.77353  0.41204  0.38598  1.0000
  H   H5029     1.0  0.76928  0.40368  0.40155  1.0000
  C   C3156     1.0  0.67687  0.45223  0.34339  1.0000
  C   C3157     1.0  0.95634  0.35188  0.38157  1.0000
  H   H5030     1.0  0.96382  0.37385  0.37456  1.0000
  C   C3158     1.0  0.78291  0.36191  0.37373  1.0000
  C   C3159     1.0  0.67543  0.38631  0.30285  1.0000
  H   H5031     1.0  0.68042  0.42072  0.32645  1.0000
  C   C3160     1.0  0.88203  0.39440  0.46468  1.0000
  C   C3161     1.0  0.67243  0.39390  0.38740  1.0000
  N   N315      1.0  0.78321  0.35299  0.36619  1.0000
  H   H5032     1.0  0.88559  0.34502  0.35043  1.0000
  N   N316      1.0  0.99034  0.38337  0.30947  1.0000
  H   H5033     1.0  0.87858  0.34936  0.36501  1.0000
  H   H5034     1.0  0.96501  0.35171  0.37432  1.0000
  C   C3162     1.0  0.99417  0.38314  0.29616  1.0000
  S   S1273     1.0  0.91278  0.33400  0.34761  1.0000
  C   C3163     1.0  0.67858  0.45547  0.33052  1.0000
  Fe  Fe638     1.0  0.86942  0.33316  0.45597  1.0000
  H   H5035     1.0  0.67708  0.43637  0.30803  1.0000
  N   N317      1.0  0.86953  0.33729  0.36020  1.0000
  H   H5036     1.0  0.85715  0.37770  0.41777  1.0000
  H   H5037     1.0  0.87731  0.36961  0.38270  1.0000
  H   H5038     1.0  0.86420  0.39049  0.45518  1.0000
  C   C3164     1.0  0.86070  0.34771  0.35450  1.0000
  H   H5039     1.0  0.78336  0.33358  0.36881  1.0000
  H   H5040     1.0  0.77466  0.34059  0.38168  1.0000
  C   C3165     1.0  0.68609  0.37075  0.36050  1.0000
  H   H5041     1.0  0.78335  0.37131  0.36796  1.0000
  H   H5042     1.0  0.85628  0.38436  0.38463  1.0000
  C   C3166     1.0  0.99842  0.37310  0.31634  1.0000
  C   C3167     1.0  0.79464  0.35249  0.35648  1.0000
  C   C3168     1.0  0.78311  0.34057  0.37418  1.0000
  H   H5043     1.0  0.67841  0.38524  0.34050  1.0000
  H   H5044     1.0  0.68899  0.37980  0.35832  1.0000
  H   H5045     1.0  0.68584  0.36701  0.37053  1.0000
  C   C3169     1.0  0.86140  0.39227  0.46476  1.0000
  H   H5046     1.0  0.88321  0.37806  0.39037  1.0000
  H   H5047     1.0  0.79134  0.33728  0.37866  1.0000
  C   C3170     1.0  0.86768  0.38983  0.48404  1.0000
  C   C3171     1.0  0.96563  0.35745  0.39563  1.0000
  H   H5048     1.0  0.99774  0.36394  0.31509  1.0000
  H   H5049     1.0  0.96596  0.34808  0.40171  1.0000
  H   H5050     1.0  0.97463  0.35725  0.38885  1.0000
  H   H5051     1.0  0.85808  0.35549  0.35948  1.0000
  C   C3172     1.0  0.85842  0.38557  0.39317  1.0000
  C   C3173     1.0  0.77223  0.35701  0.36038  1.0000
  H   H5052     1.0  0.84942  0.38892  0.39910  1.0000
  H   H5053     1.0  0.86895  0.36907  0.47597  1.0000
  C   C3174     1.0  0.94331  0.36095  0.39860  1.0000
  C   C3175     1.0  0.82966  0.33373  0.36532  1.0000
  H   H5054     1.0  0.86339  0.35492  0.40644  1.0000
  H   H5055     1.0  0.93511  0.36369  0.39415  1.0000
  H   H5056     1.0  0.94293  0.35159  0.40453  1.0000
  H   H5057     1.0  0.94851  0.35422  0.37668  1.0000
  H   H5058     1.0  0.94206  0.36753  0.40474  1.0000
  H   H5059     1.0  0.76341  0.35751  0.36742  1.0000
  N   N318      1.0  0.74900  0.42732  0.31645  1.0000
  C   C3176     1.0  0.74805  0.41698  0.31135  1.0000
  C   C3177     1.0  0.75489  0.42228  0.32732  1.0000
  C   C3178     1.0  0.73643  0.43464  0.32021  1.0000
  C   C3179     1.0  0.75662  0.43531  0.30692  1.0000
  H   H5060     1.0  0.74323  0.42031  0.30342  1.0000
  H   H5061     1.0  0.74272  0.41059  0.31845  1.0000
  H   H5062     1.0  0.75735  0.41130  0.30823  1.0000
  H   H5063     1.0  0.76420  0.41628  0.32493  1.0000
  H   H5064     1.0  0.75607  0.42978  0.33127  1.0000
  H   H5065     1.0  0.74917  0.41645  0.33477  1.0000
  H   H5066     1.0  0.73673  0.44258  0.32406  1.0000
  H   H5067     1.0  0.73043  0.42889  0.32740  1.0000
  H   H5068     1.0  0.73159  0.43841  0.31229  1.0000
  H   H5069     1.0  0.75750  0.44325  0.31043  1.0000
  H   H5070     1.0  0.75245  0.43916  0.29858  1.0000
  H   H5071     1.0  0.76617  0.43003  0.30394  1.0000
  H   H5072     1.0  0.87893  0.40454  0.46431  1.0000
  H   H5073     1.0  0.80309  0.34943  0.36059  1.0000
  H   H5074     1.0  0.96501  0.36414  0.40147  1.0000
  H   H5075     1.0  0.88763  0.33399  0.36439  1.0000
  C   C3180     1.0  0.87649  0.37434  0.47149  1.0000
  C   C3181     1.0  0.86366  0.33261  0.37310  1.0000
  C   C3182     1.0  0.67009  0.36001  0.36115  1.0000
  H   H5076     1.0  0.79092  0.35901  0.37846  1.0000
  N   N319      1.0  0.67391  0.37212  0.35735  1.0000
  C   C3183     1.0  0.97728  0.38195  0.31394  1.0000
  H   H5077     1.0  0.67276  0.46357  0.32620  1.0000
  C   C3184     1.0  0.66972  0.43201  0.30709  1.0000
  H   H5078     1.0  0.68145  0.36951  0.33876  1.0000
  H   H5079     1.0  0.90986  0.33661  0.42605  1.0000
  C   C3185     1.0  0.82483  0.33163  0.37804  1.0000
  S   S1274     1.0  0.66847  0.40745  0.28604  1.0000
  H   H5080     1.0  0.97604  0.37285  0.31302  1.0000
  H   H5081     1.0  0.85352  0.38754  0.46966  1.0000
  H   H5082     1.0  0.99333  0.37427  0.29432  1.0000
  H   H5083     1.0  0.85519  0.32922  0.37352  1.0000
  H   H5084     1.0  0.81548  0.32933  0.46021  1.0000
  C   C3186     1.0  0.87293  0.32728  0.35314  1.0000
  H   H5085     1.0  0.84239  0.32610  0.35029  1.0000
  H   H5086     1.0  0.86335  0.32611  0.43352  1.0000
  H   H5087     1.0  0.89379  0.32611  0.40136  1.0000
  H   H5088     1.0  0.66722  0.38348  0.30231  1.0000
  H   H5089     1.0  0.66718  0.39048  0.36122  1.0000
  S   S1275     1.0  0.90685  0.39188  0.71371  1.0000
  Fe  Fe639     1.0  0.75524  0.41364  0.61020  1.0000
  S   S1276     1.0  0.76670  0.39559  0.61824  1.0000
  S   S1277     1.0  0.73522  0.41630  0.60810  1.0000
  Fe  Fe640     1.0  0.77794  0.42660  0.60139  1.0000
  S   S1278     1.0  0.79083  0.40934  0.60848  1.0000
  S   S1279     1.0  0.78764  0.44217  0.59006  1.0000
  Fe  Fe641     1.0  0.78073  0.39956  0.60076  1.0000
  S   S1280     1.0  0.79074  0.38592  0.58866  1.0000
  Fe  Fe642     1.0  0.77561  0.40741  0.62518  1.0000
  S   S1281     1.0  0.78085  0.40447  0.64364  1.0000
  S   S1282     1.0  0.76890  0.41687  0.59234  1.0000
  S   S1283     1.0  0.76301  0.42536  0.61859  1.0000
  Fe  Fe643     1.0  0.84281  0.49769  0.59866  1.0000
  S   S1284     1.0  0.85942  0.48536  0.58923  1.0000
  S   S1285     1.0  0.83953  0.51730  0.60207  1.0000
  Fe  Fe644     1.0  0.82705  0.47767  0.60597  1.0000
  S   S1286     1.0  0.84222  0.46360  0.59758  1.0000
  S   S1287     1.0  0.80827  0.47356  0.61608  1.0000
  Fe  Fe645     1.0  0.85455  0.47048  0.60564  1.0000
  S   S1288     1.0  0.86856  0.45652  0.61516  1.0000
  Fe  Fe646     1.0  0.84575  0.47938  0.58185  1.0000
  S   S1289     1.0  0.84867  0.47667  0.56241  1.0000
  S   S1290     1.0  0.83910  0.48307  0.61569  1.0000
  S   S1291     1.0  0.82952  0.49312  0.58955  1.0000
  Fe  Fe647     1.0  0.86778  0.41031  0.54890  1.0000
  S   S1292     1.0  0.87643  0.39007  0.55342  1.0000
  S   S1293     1.0  0.87780  0.42533  0.54810  1.0000
  Fe  Fe648     1.0  0.84373  0.40501  0.54706  1.0000
  S   S1294     1.0  0.84987  0.38441  0.55203  1.0000
  S   S1295     1.0  0.82474  0.41438  0.54383  1.0000
  Fe  Fe649     1.0  0.85806  0.38851  0.56620  1.0000
  S   S1296     1.0  0.85495  0.37889  0.58629  1.0000
  Fe  Fe650     1.0  0.86754  0.38784  0.53867  1.0000
  S   S1297     1.0  0.87789  0.37626  0.52415  1.0000
  S   S1298     1.0  0.85002  0.40883  0.56251  1.0000
  S   S1299     1.0  0.86078  0.40838  0.53291  1.0000
  Fe  Fe651     1.0  0.86878  0.39198  0.64243  1.0000
  S   S1300     1.0  0.84861  0.40025  0.64382  1.0000
  S   S1301     1.0  0.88009  0.39313  0.62294  1.0000
  Fe  Fe652     1.0  0.86572  0.38261  0.67060  1.0000
  S   S1302     1.0  0.84494  0.38942  0.67361  1.0000
  S   S1303     1.0  0.87301  0.37314  0.68822  1.0000
  Fe  Fe653     1.0  0.84580  0.38239  0.65666  1.0000
  S   S1304     1.0  0.83387  0.37256  0.65103  1.0000
  Fe  Fe654     1.0  0.84994  0.40640  0.66035  1.0000
  S   S1305     1.0  0.84019  0.42555  0.66275  1.0000
  S   S1306     1.0  0.86608  0.37377  0.65487  1.0000
  S   S1307     1.0  0.87062  0.39999  0.65786  1.0000
  Fe  Fe655     1.0  0.90126  0.60320  0.69827  1.0000
  S   S1308     1.0  0.89234  0.61569  0.68298  1.0000
  S   S1309     1.0  0.92088  0.59262  0.69435  1.0000
  Fe  Fe656     1.0  0.87852  0.60834  0.71836  1.0000
  S   S1310     1.0  0.86758  0.62122  0.70471  1.0000
  C   C3187     1.0  0.86864  0.64856  0.67534  1.0000
  Fe  Fe657     1.0  0.87584  0.60712  0.69278  1.0000
  S   S1311     1.0  0.86371  0.60328  0.68200  1.0000
  Fe  Fe658     1.0  0.88490  0.62860  0.69621  1.0000
  H   H5090     1.0  0.85231  0.63791  0.72186  1.0000
  S   S1312     1.0  0.88532  0.59346  0.70709  1.0000
  S   S1313     1.0  0.89537  0.61692  0.71075  1.0000
  Fe  Fe659     1.0  0.99055  0.60319  0.62153  1.0000
  S   S1314     1.0  0.97906  0.60107  0.60906  1.0000
  Fe  Fe660     1.0  0.96794  0.61412  0.63915  1.0000
  S   S1315     1.0  0.95478  0.61339  0.62796  1.0000
  S   S1316     1.0  0.96055  0.62113  0.65683  1.0000
  Fe  Fe661     1.0  0.96613  0.59447  0.62659  1.0000
  S   S1317     1.0  0.95533  0.57920  0.63171  1.0000
  Fe  Fe662     1.0  0.96887  0.62006  0.61168  1.0000
  S   S1318     1.0  0.96256  0.63500  0.59640  1.0000
  S   S1319     1.0  0.97861  0.59470  0.63893  1.0000
  S   S1320     1.0  0.98108  0.62272  0.62293  1.0000
  Fe  Fe663     1.0  0.88148  0.56139  0.61045  1.0000
  S   S1321     1.0  0.89832  0.55792  0.61871  1.0000
  S   S1322     1.0  0.88212  0.54421  0.60328  1.0000
  Fe  Fe664     1.0  0.87393  0.58805  0.61473  1.0000
  S   S1323     1.0  0.89007  0.58627  0.62336  1.0000
  S   S1324     1.0  0.86112  0.60671  0.61352  1.0000
  Fe  Fe665     1.0  0.90100  0.57669  0.60800  1.0000
  S   S1325     1.0  0.91941  0.58078  0.59689  1.0000
  Fe  Fe666     1.0  0.88572  0.56774  0.63318  1.0000
  S   S1326     1.0  0.88742  0.55982  0.65282  1.0000
  S   S1327     1.0  0.88518  0.57970  0.59851  1.0000
  S   S1328     1.0  0.86856  0.57011  0.62588  1.0000
  H   H5091     1.0  0.84151  0.36919  0.51276  1.0000
  H   H5092     1.0  0.95464  0.36909  0.70114  1.0000
  Fe  Fe667     1.0  0.69592  0.37455  0.59057  1.0000
  S   S1329     1.0  0.69857  0.37096  0.57145  1.0000
  S   S1330     1.0  0.71204  0.37443  0.59930  1.0000
  C   C3188     1.0  0.88167  0.35875  0.62358  1.0000
  H   H5093     1.0  0.82587  0.42904  0.56115  1.0000
  Fe  Fe668     1.0  0.68761  0.35601  0.58037  1.0000
  Fe  Fe669     1.0  0.67979  0.38339  0.57113  1.0000
  H   H5094     1.0  0.84216  0.39807  0.69888  1.0000
  H   H5095     1.0  0.81600  0.44014  0.56985  1.0000
  C   C3189     1.0  0.83576  0.44475  0.54202  1.0000
  H   H5096     1.0  0.86687  0.64004  0.68158  1.0000
  C   C3190     1.0  0.68085  0.36751  0.53709  1.0000
  C   C3191     1.0  0.68093  0.37491  0.54514  1.0000
  C   C3192     1.0  0.68736  0.36352  0.62848  1.0000
  H   H5097     1.0  0.89237  0.56334  0.58043  1.0000
  H   H5098     1.0  0.83203  0.36922  0.58518  1.0000
  H   H5099     1.0  0.68585  0.35800  0.53837  1.0000
  H   H5100     1.0  0.68587  0.37098  0.55259  1.0000
  H   H5101     1.0  0.89871  0.54833  0.57691  1.0000
  C   C3193     1.0  0.88243  0.63825  0.59769  1.0000
  C   C3194     1.0  0.88807  0.62621  0.59588  1.0000
  C   C3195     1.0  0.88159  0.61650  0.60078  1.0000
  C   C3196     1.0  0.86924  0.61887  0.60708  1.0000
  C   C3197     1.0  0.86347  0.63097  0.60862  1.0000
  C   C3198     1.0  0.87014  0.64061  0.60416  1.0000
  C   C3199     1.0  0.82369  0.46027  0.55373  1.0000
  H   H5102     1.0  0.88607  0.60723  0.59943  1.0000
  H   H5103     1.0  0.85387  0.63286  0.61337  1.0000
  H   H5104     1.0  0.86566  0.64992  0.60540  1.0000
  C   C3200     1.0  0.94550  0.57972  0.62186  1.0000
  C   C3201     1.0  0.94835  0.58474  0.60922  1.0000
  C   C3202     1.0  0.94042  0.58486  0.60152  1.0000
  C   C3203     1.0  0.92955  0.58013  0.60648  1.0000
  C   C3204     1.0  0.92666  0.57520  0.61913  1.0000
  C   C3205     1.0  0.93469  0.57488  0.62677  1.0000
  H   H5105     1.0  0.95678  0.58832  0.60535  1.0000
  H   H5106     1.0  0.94271  0.58864  0.59173  1.0000
  H   H5107     1.0  0.91830  0.57153  0.62304  1.0000
  H   H5108     1.0  0.93246  0.57093  0.63652  1.0000
  C   C3206     1.0  0.93067  0.65915  0.60535  1.0000
  H   H5109     1.0  0.69185  0.38946  0.63485  1.0000
  H   H5110     1.0  0.93208  0.36842  0.70863  1.0000
  C   C3207     1.0  0.67480  0.38732  0.54345  1.0000
  C   C3208     1.0  0.80681  0.52213  0.60154  1.0000
  C   C3209     1.0  0.93109  0.60149  0.68392  1.0000
  C   C3210     1.0  0.93155  0.60365  0.67122  1.0000
  C   C3211     1.0  0.94082  0.60937  0.66282  1.0000
  C   C3212     1.0  0.94940  0.61325  0.66712  1.0000
  C   C3213     1.0  0.94872  0.61134  0.67984  1.0000
  C   C3214     1.0  0.93971  0.60529  0.68821  1.0000
  H   H5111     1.0  0.92498  0.60058  0.66788  1.0000
  H   H5112     1.0  0.94123  0.61088  0.65303  1.0000
  H   H5113     1.0  0.95531  0.61435  0.68322  1.0000
  H   H5114     1.0  0.93948  0.60348  0.69803  1.0000
  C   C3215     1.0  0.87023  0.59075  0.67450  1.0000
  C   C3216     1.0  0.88155  0.58295  0.67640  1.0000
  C   C3217     1.0  0.88669  0.57321  0.66998  1.0000
  C   C3218     1.0  0.88072  0.57155  0.66136  1.0000
  C   C3219     1.0  0.86949  0.57945  0.65937  1.0000
  C   C3220     1.0  0.86412  0.58883  0.66615  1.0000
  H   H5115     1.0  0.88629  0.58436  0.68287  1.0000
  H   H5116     1.0  0.89539  0.56712  0.67153  1.0000
  H   H5117     1.0  0.86482  0.57818  0.65277  1.0000
  H   H5118     1.0  0.85527  0.59472  0.66481  1.0000
  H   H5119     1.0  0.81099  0.52788  0.60530  1.0000
  C   C3221     1.0  0.92627  0.63887  0.65231  1.0000
  H   H5120     1.0  0.88814  0.62979  0.63345  1.0000
  H   H5121     1.0  0.83173  0.46042  0.55751  1.0000
  C   C3222     1.0  0.87023  0.37013  0.51603  1.0000
  C   C3223     1.0  0.85728  0.37234  0.51793  1.0000
  C   C3224     1.0  0.85154  0.36746  0.51117  1.0000
  C   C3225     1.0  0.85865  0.36046  0.50233  1.0000
  C   C3226     1.0  0.87161  0.35815  0.50050  1.0000
  C   C3227     1.0  0.87736  0.36297  0.50731  1.0000
  H   H5122     1.0  0.85167  0.37778  0.52463  1.0000
  H   H5123     1.0  0.96406  0.56328  0.68168  1.0000
  H   H5124     1.0  0.88738  0.36108  0.50590  1.0000
  C   C3228     1.0  0.86152  0.38403  0.59599  1.0000
  C   C3229     1.0  0.87293  0.38782  0.59179  1.0000
  C   C3230     1.0  0.87855  0.39067  0.60010  1.0000
  C   C3231     1.0  0.87264  0.39009  0.61254  1.0000
  C   C3232     1.0  0.86115  0.38649  0.61664  1.0000
  C   C3233     1.0  0.85563  0.38346  0.60842  1.0000
  H   H5125     1.0  0.87763  0.38811  0.58224  1.0000
  H   H5126     1.0  0.88763  0.39302  0.59694  1.0000
  H   H5127     1.0  0.85664  0.38563  0.62623  1.0000
  H   H5128     1.0  0.84681  0.38058  0.61175  1.0000
  C   C3234     1.0  0.86060  0.44841  0.62873  1.0000
  C   C3235     1.0  0.84760  0.45071  0.63146  1.0000
  C   C3236     1.0  0.84127  0.44419  0.64232  1.0000
  C   C3237     1.0  0.84794  0.43511  0.65028  1.0000
  C   C3238     1.0  0.86093  0.43284  0.64758  1.0000
  C   C3239     1.0  0.86726  0.43951  0.63683  1.0000
  H   H5129     1.0  0.84238  0.45741  0.62518  1.0000
  H   H5130     1.0  0.83123  0.44597  0.64437  1.0000
  H   H5131     1.0  0.86612  0.42602  0.65382  1.0000
  H   H5132     1.0  0.87731  0.43774  0.63477  1.0000
  C   C3240     1.0  0.86914  0.43934  0.55231  1.0000
  C   C3241     1.0  0.85954  0.43964  0.56283  1.0000
  C   C3242     1.0  0.85353  0.45102  0.56639  1.0000
  C   C3243     1.0  0.85681  0.46212  0.55917  1.0000
  C   C3244     1.0  0.86620  0.46175  0.54859  1.0000
  C   C3245     1.0  0.87252  0.45041  0.54535  1.0000
  H   H5133     1.0  0.85698  0.43109  0.56832  1.0000
  H   H5134     1.0  0.84615  0.45128  0.57449  1.0000
  H   H5135     1.0  0.86871  0.47028  0.54292  1.0000
  H   H5136     1.0  0.87998  0.45023  0.53728  1.0000
  C   C3246     1.0  0.85146  0.52445  0.60286  1.0000
  C   C3247     1.0  0.84824  0.53594  0.60654  1.0000
  C   C3248     1.0  0.85746  0.54206  0.60693  1.0000
  C   C3249     1.0  0.87003  0.53680  0.60347  1.0000
  C   C3250     1.0  0.87325  0.52525  0.59993  1.0000
  C   C3251     1.0  0.86404  0.51907  0.59969  1.0000
  H   H5137     1.0  0.83854  0.54021  0.60898  1.0000
  H   H5138     1.0  0.85482  0.55096  0.60962  1.0000
  H   H5139     1.0  0.88293  0.52107  0.59725  1.0000
  H   H5140     1.0  0.86668  0.51025  0.59682  1.0000
  C   C3252     1.0  0.79322  0.45074  0.59761  1.0000
  C   C3253     1.0  0.78781  0.45213  0.60975  1.0000
  C   C3254     1.0  0.79230  0.45935  0.61531  1.0000
  C   C3255     1.0  0.80238  0.46498  0.60885  1.0000
  C   C3256     1.0  0.80785  0.46349  0.59676  1.0000
  C   C3257     1.0  0.80317  0.45653  0.59113  1.0000
  H   H5141     1.0  0.78001  0.44784  0.61475  1.0000
  H   H5142     1.0  0.78798  0.46055  0.62464  1.0000
  H   H5143     1.0  0.81556  0.46786  0.59167  1.0000
  H   H5144     1.0  0.80726  0.45564  0.58173  1.0000
  C   C3258     1.0  0.79563  0.39562  0.64549  1.0000
  C   C3259     1.0  0.80105  0.39723  0.65458  1.0000
  C   C3260     1.0  0.81294  0.39044  0.65610  1.0000
  C   C3261     1.0  0.81922  0.38162  0.64891  1.0000
  C   C3262     1.0  0.81370  0.37985  0.64000  1.0000
  C   C3263     1.0  0.80206  0.38702  0.63808  1.0000
  H   H5145     1.0  0.79604  0.40376  0.66044  1.0000
  H   H5146     1.0  0.81706  0.39175  0.66312  1.0000
  H   H5147     1.0  0.81844  0.37288  0.63464  1.0000
  H   H5148     1.0  0.79784  0.38566  0.63118  1.0000
  C   C3264     1.0  0.79972  0.39388  0.57573  1.0000
  C   C3265     1.0  0.79935  0.40645  0.57468  1.0000
  C   C3266     1.0  0.80655  0.41289  0.56449  1.0000
  C   C3267     1.0  0.81455  0.40664  0.55555  1.0000
  C   C3268     1.0  0.81505  0.39402  0.55659  1.0000
  C   C3269     1.0  0.80743  0.38769  0.56657  1.0000
  H   H5149     1.0  0.79370  0.41129  0.58177  1.0000
  H   H5150     1.0  0.80615  0.42261  0.56380  1.0000
  H   H5151     1.0  0.82130  0.38917  0.54968  1.0000
  H   H5152     1.0  0.80772  0.37797  0.56726  1.0000
  C   C3270     1.0  0.71817  0.38637  0.60158  1.0000
  C   C3271     1.0  0.71268  0.39892  0.59871  1.0000
  C   C3272     1.0  0.71789  0.40798  0.60092  1.0000
  C   C3273     1.0  0.72871  0.40460  0.60587  1.0000
  C   C3274     1.0  0.73413  0.39205  0.60880  1.0000
  C   C3275     1.0  0.72884  0.38300  0.60673  1.0000
  H   H5153     1.0  0.70443  0.40167  0.59479  1.0000
  H   H5154     1.0  0.71360  0.41767  0.59867  1.0000
  H   H5155     1.0  0.74234  0.38930  0.61277  1.0000
  H   H5156     1.0  0.73307  0.37331  0.60913  1.0000
  C   C3276     1.0  0.89707  0.38687  0.70690  1.0000
  C   C3277     1.0  0.88909  0.37892  0.71381  1.0000
  C   C3278     1.0  0.88187  0.37475  0.70793  1.0000
  C   C3279     1.0  0.88234  0.37866  0.69515  1.0000
  C   C3280     1.0  0.89020  0.38675  0.68827  1.0000
  C   C3281     1.0  0.89758  0.39075  0.69411  1.0000
  H   H5157     1.0  0.88865  0.37580  0.72365  1.0000
  H   H5158     1.0  0.87589  0.36842  0.71334  1.0000
  H   H5159     1.0  0.89078  0.38973  0.67840  1.0000
  H   H5160     1.0  0.90376  0.39685  0.68866  1.0000
  H   H5161     1.0  0.83663  0.43544  0.54002  1.0000
  H   H5162     1.0  0.85371  0.40998  0.68038  1.0000
  H   H5163     1.0  0.81269  0.45528  0.53791  1.0000
  H   H5164     1.0  0.83580  0.45157  0.53312  1.0000
  C   C3282     1.0  0.79514  0.50589  0.60614  1.0000
  H   H5165     1.0  0.83125  0.36392  0.61877  1.0000
  H   H5166     1.0  0.81563  0.37082  0.58685  1.0000
  H   H5167     1.0  0.80825  0.36662  0.62099  1.0000
  H   H5168     1.0  0.94228  0.57453  0.68597  1.0000
  C   C3283     1.0  0.81334  0.44821  0.54657  1.0000
  H   H5169     1.0  0.80460  0.45032  0.55346  1.0000
  H   H5170     1.0  0.84427  0.44453  0.54526  1.0000
  H   H5171     1.0  0.82370  0.46754  0.54514  1.0000
  H   H5172     1.0  0.83262  0.43841  0.56699  1.0000
  N   N320      1.0  0.95119  0.56706  0.66967  1.0000
  N   N321      1.0  0.81507  0.42717  0.63183  1.0000
  C   C3284     1.0  0.82089  0.41611  0.62634  1.0000
  C   C3285     1.0  0.81814  0.42510  0.64410  1.0000
  C   C3286     1.0  0.80145  0.42945  0.63314  1.0000
  C   C3287     1.0  0.81981  0.43804  0.62371  1.0000
  H   H5173     1.0  0.81870  0.41736  0.61710  1.0000
  H   H5174     1.0  0.81751  0.40775  0.63225  1.0000
  H   H5175     1.0  0.83118  0.41409  0.62524  1.0000
  H   H5176     1.0  0.81382  0.43322  0.64857  1.0000
  H   H5177     1.0  0.81486  0.41689  0.65046  1.0000
  H   H5178     1.0  0.82834  0.42349  0.64343  1.0000
  H   H5179     1.0  0.79676  0.43803  0.63674  1.0000
  H   H5180     1.0  0.79747  0.42169  0.63964  1.0000
  H   H5181     1.0  0.79881  0.43043  0.62416  1.0000
  H   H5182     1.0  0.81563  0.44656  0.62760  1.0000
  H   H5183     1.0  0.81759  0.43995  0.61439  1.0000
  H   H5184     1.0  0.83007  0.43668  0.62253  1.0000
  N   N322      1.0  0.87624  0.52819  0.64299  1.0000
  C   C3288     1.0  0.87392  0.51865  0.63765  1.0000
  C   C3289     1.0  0.87499  0.52399  0.65651  1.0000
  C   C3290     1.0  0.86712  0.53982  0.64033  1.0000
  C   C3291     1.0  0.88892  0.53042  0.63745  1.0000
  H   H5185     1.0  0.86439  0.51680  0.64153  1.0000
  H   H5186     1.0  0.88063  0.50973  0.63945  1.0000
  H   H5187     1.0  0.87482  0.52163  0.62744  1.0000
  H   H5188     1.0  0.87676  0.53105  0.66072  1.0000
  H   H5189     1.0  0.86549  0.52233  0.66104  1.0000
  H   H5190     1.0  0.88173  0.51522  0.65890  1.0000
  H   H5191     1.0  0.86856  0.54718  0.64435  1.0000
  H   H5192     1.0  0.85742  0.53850  0.64426  1.0000
  H   H5193     1.0  0.86790  0.54332  0.63019  1.0000
  H   H5194     1.0  0.89608  0.52190  0.63939  1.0000
  H   H5195     1.0  0.89090  0.53773  0.64115  1.0000
  H   H5196     1.0  0.89020  0.53351  0.62723  1.0000
  N   N323      1.0  0.87059  0.62514  0.64319  1.0000
  C   C3292     1.0  0.86305  0.61618  0.64351  1.0000
  C   C3293     1.0  0.86359  0.63788  0.63971  1.0000
  C   C3294     1.0  0.88232  0.62306  0.63406  1.0000
  H   H5197     1.0  0.92132  0.64440  0.68123  1.0000
  H   H5198     1.0  0.85453  0.61686  0.65092  1.0000
  C   C3295     1.0  0.68241  0.32763  0.58194  1.0000
  H   H5199     1.0  0.85792  0.65128  0.71224  1.0000
  H   H5200     1.0  0.86133  0.63960  0.63044  1.0000
  H   H5201     1.0  0.85467  0.63976  0.64640  1.0000
  H   H5202     1.0  0.86900  0.64486  0.63942  1.0000
  H   H5203     1.0  0.87848  0.64314  0.71718  1.0000
  H   H5204     1.0  0.88052  0.62413  0.62470  1.0000
  H   H5205     1.0  0.88781  0.61352  0.63652  1.0000
  C   C3296     1.0  0.88679  0.42776  0.60080  1.0000
  S   S1331     1.0  0.67411  0.39626  0.55418  1.0000
  N   N324      1.0  0.68362  0.37628  0.63076  1.0000
  H   H5206     1.0  0.81361  0.43911  0.54447  1.0000
  H   H5207     1.0  0.93847  0.38846  0.70261  1.0000
  C   C3297     1.0  0.84898  0.39856  0.70414  1.0000
  C   C3298     1.0  0.82363  0.36602  0.59135  1.0000
  H   H5208     1.0  0.79032  0.49915  0.61344  1.0000
  C   C3299     1.0  0.93355  0.36754  0.71811  1.0000
  H   H5209     1.0  0.86838  0.60649  0.64522  1.0000
  S   S1332     1.0  0.89092  0.65016  0.59168  1.0000
  H   H5210     1.0  0.90603  0.57845  0.57662  1.0000
  C   C3300     1.0  0.79004  0.52070  0.61940  1.0000
  H   H5211     1.0  0.87105  0.40183  0.70577  1.0000
  H   H5212     1.0  0.86792  0.40180  0.68501  1.0000
  C   C3301     1.0  0.82474  0.43850  0.56285  1.0000
  H   H5213     1.0  0.78320  0.52697  0.61397  1.0000
  H   H5214     1.0  0.79362  0.52653  0.62363  1.0000
  H   H5215     1.0  0.78495  0.51447  0.62704  1.0000
  H   H5216     1.0  0.93501  0.63558  0.67321  1.0000
  H   H5217     1.0  0.81332  0.51077  0.62322  1.0000
  H   H5218     1.0  0.83902  0.42112  0.70942  1.0000
  H   H5219     1.0  0.90797  0.56012  0.59328  1.0000
  H   H5220     1.0  0.80048  0.52849  0.59561  1.0000
  H   H5221     1.0  0.98805  0.64393  0.58736  1.0000
  C   C3302     1.0  0.93982  0.38731  0.71218  1.0000
  H   H5222     1.0  0.83284  0.35150  0.61104  1.0000
  H   H5223     1.0  0.81510  0.46308  0.56049  1.0000
  N   N325      1.0  0.75824  0.39332  0.57413  1.0000
  C   C3303     1.0  0.76073  0.38530  0.58597  1.0000
  C   C3304     1.0  0.74760  0.40359  0.57658  1.0000
  C   C3305     1.0  0.75525  0.38595  0.56673  1.0000
  C   C3306     1.0  0.76937  0.39841  0.56726  1.0000
  H   H5224     1.0  0.75279  0.38081  0.59111  1.0000
  H   H5225     1.0  0.76244  0.39068  0.59205  1.0000
  H   H5226     1.0  0.76909  0.37781  0.58451  1.0000
  H   H5227     1.0  0.74927  0.40907  0.58260  1.0000
  H   H5228     1.0  0.74570  0.41010  0.56790  1.0000
  H   H5229     1.0  0.73897  0.40006  0.58135  1.0000
  H   H5230     1.0  0.75330  0.39172  0.55773  1.0000
  H   H5231     1.0  0.74687  0.38200  0.57167  1.0000
  H   H5232     1.0  0.76305  0.37808  0.56476  1.0000
  H   H5233     1.0  0.77761  0.39090  0.56537  1.0000
  H   H5234     1.0  0.77191  0.40397  0.57261  1.0000
  H   H5235     1.0  0.76788  0.40452  0.55826  1.0000
  N   N326      1.0  0.92373  0.62115  0.60843  1.0000
  C   C3307     1.0  0.93647  0.61761  0.60141  1.0000
  C   C3308     1.0  0.91726  0.61070  0.61133  1.0000
  C   C3309     1.0  0.91690  0.63202  0.60097  1.0000
  C   C3310     1.0  0.92426  0.62435  0.62002  1.0000
  H   H5236     1.0  0.94130  0.62554  0.59834  1.0000
  H   H5237     1.0  0.93647  0.61438  0.59300  1.0000
  H   H5238     1.0  0.94219  0.61005  0.60710  1.0000
  H   H5239     1.0  0.92204  0.60241  0.61717  1.0000
  H   H5240     1.0  0.90750  0.61314  0.61632  1.0000
  H   H5241     1.0  0.91693  0.60788  0.60278  1.0000
  H   H5242     1.0  0.90728  0.63493  0.60603  1.0000
  H   H5243     1.0  0.91630  0.63006  0.59210  1.0000
  H   H5244     1.0  0.92142  0.64014  0.59862  1.0000
  H   H5245     1.0  0.92882  0.61617  0.62617  1.0000
  H   H5246     1.0  0.91481  0.62772  0.62523  1.0000
  H   H5247     1.0  0.92964  0.63180  0.61813  1.0000
  H   H5248     1.0  0.85902  0.36274  0.63769  1.0000
  C   C3311     1.0  0.88418  0.42363  0.58201  1.0000
  H   H5249     1.0  0.93091  0.39186  0.71742  1.0000
  H   H5250     1.0  0.86750  0.41842  0.70248  1.0000
  S   S1333     1.0  0.68651  0.35830  0.59950  1.0000
  H   H5251     1.0  0.92040  0.63078  0.67666  1.0000
  N   N327      1.0  0.94329  0.37410  0.71798  1.0000
  C   C3312     1.0  0.87397  0.63905  0.72667  1.0000
  H   H5252     1.0  0.86035  0.43426  0.58973  1.0000
  S   S1334     1.0  0.67399  0.36259  0.51798  1.0000
  C   C3313     1.0  0.80907  0.50538  0.61912  1.0000
  H   H5253     1.0  0.87216  0.33582  0.64697  1.0000
  H   H5254     1.0  0.95609  0.55868  0.65375  1.0000
  H   H5255     1.0  0.84104  0.36380  0.60382  1.0000
  N   N328      1.0  0.87406  0.34933  0.62996  1.0000
  H   H5256     1.0  0.89747  0.62437  0.59065  1.0000
  H   H5257     1.0  0.91126  0.57686  0.56080  1.0000
  C   C3314     1.0  0.96142  0.55881  0.67538  1.0000
  S   S1335     1.0  0.66908  0.36820  0.57880  1.0000
  H   H5258     1.0  0.95874  0.54998  0.68089  1.0000
  H   H5259     1.0  0.96986  0.55646  0.66824  1.0000
  H   H5260     1.0  0.94493  0.55211  0.66633  1.0000
  N   N329      1.0  0.92221  0.64660  0.66177  1.0000
  N   N330      1.0  0.82439  0.44793  0.55129  1.0000
  H   H5261     1.0  0.95720  0.58388  0.66859  1.0000
  C   C3315     1.0  0.87604  0.34021  0.62211  1.0000
  H   H5262     1.0  0.81030  0.35495  0.61217  1.0000
  H   H5263     1.0  0.80175  0.37025  0.60751  1.0000
  C   C3316     1.0  0.83212  0.36167  0.60965  1.0000
  H   H5264     1.0  0.94698  0.39256  0.71183  1.0000
  H   H5265     1.0  0.93588  0.35752  0.72230  1.0000
  H   H5266     1.0  0.89176  0.35457  0.62184  1.0000
  C   C3317     1.0  0.82043  0.38214  0.60269  1.0000
  H   H5267     1.0  0.92411  0.55559  0.58717  1.0000
  N   N331      1.0  0.82154  0.36870  0.60380  1.0000
  H   H5268     1.0  0.92125  0.54253  0.56810  1.0000
  N   N332      1.0  0.86156  0.64649  0.73063  1.0000
  H   H5269     1.0  0.93233  0.57630  0.67548  1.0000
  C   C3318     1.0  0.94019  0.56993  0.67943  1.0000
  C   C3319     1.0  0.80998  0.36494  0.61146  1.0000
  H   H5270     1.0  0.82490  0.35594  0.59169  1.0000
  C   C3320     1.0  0.89966  0.55821  0.57395  1.0000
  H   H5271     1.0  0.96364  0.57679  0.65533  1.0000
  C   C3321     1.0  0.87776  0.34296  0.64185  1.0000
  H   H5272     1.0  0.81875  0.38460  0.61187  1.0000
  C   C3322     1.0  0.94801  0.56089  0.66130  1.0000
  H   H5273     1.0  0.85476  0.34871  0.63762  1.0000
  H   H5274     1.0  0.80455  0.49865  0.62671  1.0000
  N   N333      1.0  0.85417  0.40990  0.69902  1.0000
  N   N334      1.0  0.91221  0.55961  0.57408  1.0000
  H   H5275     1.0  0.87640  0.34960  0.64797  1.0000
  H   H5276     1.0  0.67250  0.33543  0.55713  1.0000
  C   C3323     1.0  0.92156  0.55257  0.56544  1.0000
  H   H5277     1.0  0.67670  0.39462  0.62113  1.0000
  H   H5278     1.0  0.85639  0.39005  0.70370  1.0000
  H   H5279     1.0  0.93681  0.56144  0.68496  1.0000
  C   C3324     1.0  0.91469  0.55478  0.58668  1.0000
  C   C3325     1.0  0.92485  0.63901  0.67374  1.0000
  H   H5280     1.0  0.94704  0.36326  0.73557  1.0000
  H   H5281     1.0  0.84421  0.39810  0.71398  1.0000
  H   H5282     1.0  0.69736  0.37354  0.64166  1.0000
  H   H5283     1.0  0.81261  0.38765  0.59815  1.0000
  H   H5284     1.0  0.93113  0.55343  0.56534  1.0000
  H   H5285     1.0  0.89742  0.56177  0.56461  1.0000
  H   H5286     1.0  0.83712  0.42115  0.69423  1.0000
  H   H5287     1.0  0.94786  0.58490  0.65767  1.0000
  H   H5288     1.0  0.87927  0.36362  0.61447  1.0000
  C   C3326     1.0  0.66796  0.38472  0.52590  1.0000
  C   C3327     1.0  0.94451  0.37308  0.73078  1.0000
  H   H5289     1.0  0.91996  0.55596  0.55583  1.0000
  C   C3328     1.0  0.86329  0.41005  0.70615  1.0000
  H   H5290     1.0  0.82900  0.38529  0.59698  1.0000
  S   S1336     1.0  0.67787  0.38840  0.58947  1.0000
  H   H5291     1.0  0.94039  0.56696  0.65676  1.0000
  C   C3329     1.0  0.95515  0.57867  0.66255  1.0000
  C   C3330     1.0  0.91297  0.57286  0.57030  1.0000
  H   H5292     1.0  0.84765  0.42965  0.69593  1.0000
  H   H5293     1.0  0.86444  0.41845  0.68174  1.0000
  H   H5294     1.0  0.91385  0.54490  0.59006  1.0000
  H   H5295     1.0  0.92225  0.57426  0.57057  1.0000
  H   H5296     1.0  0.85896  0.40992  0.71607  1.0000
  C   C3331     1.0  0.84403  0.42094  0.69972  1.0000
  H   H5297     1.0  0.88627  0.41808  0.60584  1.0000
  H   H5298     1.0  0.87857  0.61385  0.65854  1.0000
  C   C3332     1.0  0.86036  0.41006  0.68598  1.0000
  H   H5299     1.0  0.89409  0.42374  0.57763  1.0000
  H   H5300     1.0  0.89000  0.44555  0.58038  1.0000
  H   H5301     1.0  0.88773  0.33828  0.64047  1.0000
  H   H5302     1.0  0.87893  0.42649  0.57442  1.0000
  C   C3333     1.0  0.95525  0.36847  0.71086  1.0000
  H   H5303     1.0  0.87481  0.44802  0.57718  1.0000
  C   C3334     1.0  0.88023  0.44471  0.58467  1.0000
  H   H5304     1.0  0.88346  0.41389  0.58640  1.0000
  H   H5305     1.0  0.81462  0.51703  0.59546  1.0000
  H   H5306     1.0  0.80260  0.50031  0.60019  1.0000
  H   H5307     1.0  0.92446  0.37145  0.72356  1.0000
  N   N335      1.0  0.80025  0.51353  0.61154  1.0000
  H   H5308     1.0  0.86532  0.42161  0.60167  1.0000
  H   H5309     1.0  0.89674  0.42809  0.59690  1.0000
  S   S1337     1.0  0.89004  0.65783  0.62269  1.0000
  H   H5310     1.0  0.67558  0.37045  0.64991  1.0000
  H   H5311     1.0  0.92179  0.63068  0.65518  1.0000
  H   H5312     1.0  0.69028  0.35672  0.63661  1.0000
  N   N336      1.0  0.87937  0.43183  0.59106  1.0000
  H   H5313     1.0  0.87655  0.45122  0.59115  1.0000
  H   H5314     1.0  0.95168  0.37798  0.73117  1.0000
  H   H5315     1.0  0.86005  0.61773  0.63460  1.0000
  H   H5316     1.0  0.93652  0.63542  0.65061  1.0000
  H   H5317     1.0  0.85756  0.35988  0.62350  1.0000
  C   C3335     1.0  0.86627  0.43122  0.59677  1.0000
  H   H5318     1.0  0.88340  0.43377  0.60779  1.0000
  H   H5319     1.0  0.81680  0.49987  0.61343  1.0000
  H   H5320     1.0  0.87905  0.63004  0.65567  1.0000
  H   H5321     1.0  0.86243  0.43731  0.60367  1.0000
  C   C3336     1.0  0.86079  0.35540  0.63228  1.0000
  H   H5322     1.0  0.86474  0.62492  0.66266  1.0000
  H   H5323     1.0  0.93919  0.65342  0.65660  1.0000
  C   C3337     1.0  0.87340  0.62342  0.65552  1.0000
  C   C3338     1.0  0.86269  0.65327  0.66527  1.0000
  H   H5324     1.0  0.78840  0.51169  0.60037  1.0000
  S   S1338     1.0  0.69196  0.33818  0.57359  1.0000
  H   H5325     1.0  0.90538  0.65752  0.67018  1.0000
  H   H5326     1.0  0.69136  0.32795  0.54302  1.0000
  C   C3339     1.0  0.67423  0.37233  0.52757  1.0000
  H   H5327     1.0  0.90334  0.64412  0.66605  1.0000
  S   S1339     1.0  0.88448  0.64899  0.68973  1.0000
  C   C3340     1.0  0.95126  0.64650  0.61572  1.0000
  H   H5328     1.0  0.88027  0.36594  0.62912  1.0000
  S   S1340     1.0  0.85091  0.35485  0.49384  1.0000
  C   C3341     1.0  0.69424  0.37978  0.63334  1.0000
  H   H5329     1.0  0.88596  0.33543  0.62020  1.0000
  H   H5330     1.0  0.95912  0.64156  0.61986  1.0000
  C   C3342     1.0  0.95093  0.64551  0.60388  1.0000
  H   H5331     1.0  0.68760  0.38482  0.61158  1.0000
  H   H5332     1.0  0.99115  0.62757  0.59328  1.0000
  C   C3343     1.0  0.66847  0.39228  0.53368  1.0000
  C   C3344     1.0  0.68583  0.32974  0.53575  1.0000
  H   H5333     1.0  0.67002  0.38643  0.64341  1.0000
  C   C3345     1.0  0.67308  0.37692  0.64142  1.0000
  H   H5334     1.0  0.67458  0.33703  0.59715  1.0000
  H   H5335     1.0  0.95814  0.35850  0.71502  1.0000
  H   H5336     1.0  0.70236  0.37924  0.62546  1.0000
  H   H5337     1.0  0.67959  0.36063  0.62635  1.0000
  H   H5338     1.0  0.92386  0.64420  0.64335  1.0000
  H   H5339     1.0  0.87334  0.62948  0.72663  1.0000
  H   H5340     1.0  0.87342  0.34477  0.61302  1.0000
  H   H5341     1.0  0.87720  0.35246  0.49402  1.0000
  H   H5342     1.0  0.94182  0.65476  0.63139  1.0000
  H   H5343     1.0  0.85625  0.64844  0.66390  1.0000
  Fe  Fe670     1.0  0.90486  0.39039  0.73441  1.0000
  Fe  Fe671     1.0  0.66879  0.37190  0.59712  1.0000
  H   H5344     1.0  0.96279  0.37321  0.71061  1.0000
  H   H5345     1.0  0.84429  0.65309  0.72436  1.0000
  H   H5346     1.0  0.67194  0.38238  0.61734  1.0000
  H   H5347     1.0  0.69533  0.36271  0.62049  1.0000
  C   C3346     1.0  0.99474  0.63513  0.58599  1.0000
  N   N337      1.0  0.67284  0.32845  0.54121  1.0000
  C   C3347     1.0  0.87669  0.65497  0.67738  1.0000
  H   H5348     1.0  0.68630  0.33925  0.53026  1.0000
  H   H5349     1.0  0.87038  0.33299  0.62660  1.0000
  C   C3348     1.0  0.92895  0.65692  0.65795  1.0000
  C   C3349     1.0  0.85365  0.64727  0.72189  1.0000
  C   C3350     1.0  0.67978  0.38491  0.61973  1.0000
  H   H5350     1.0  0.90638  0.65748  0.65424  1.0000
  C   C3351     1.0  0.94140  0.65395  0.62231  1.0000
  C   C3352     1.0  0.94076  0.65206  0.59856  1.0000
  H   H5351     1.0  0.85995  0.38500  0.48920  1.0000
  H   H5352     1.0  0.94050  0.65133  0.58938  1.0000
  C   C3353     1.0  0.67458  0.32931  0.59325  1.0000
  H   H5353     1.0  0.88027  0.63831  0.73297  1.0000
  H   H5354     1.0  0.87529  0.38629  0.48934  1.0000
  H   H5355     1.0  0.99442  0.63339  0.57694  1.0000
  C   C3354     1.0  0.90874  0.65165  0.66309  1.0000
  C   C3355     1.0  0.86279  0.65905  0.73078  1.0000
  H   H5356     1.0  0.93164  0.37924  0.81507  1.0000
  S   S1341     1.0  0.88722  0.39827  0.74651  1.0000
  Fe  Fe672     1.0  0.91960  0.38319  0.75536  1.0000
  S   S1342     1.0  0.90308  0.39038  0.76886  1.0000
  S   S1343     1.0  0.93754  0.37307  0.76185  1.0000
  Fe  Fe673     1.0  0.89237  0.38155  0.76091  1.0000
  S   S1344     1.0  0.87810  0.37254  0.77524  1.0000
  Fe  Fe674     1.0  0.89942  0.40648  0.75343  1.0000
  S   S1345     1.0  0.89254  0.42533  0.75803  1.0000
  S   S1346     1.0  0.90915  0.37282  0.74840  1.0000
  C   C3356     1.0  0.95621  0.42555  0.79924  1.0000
  Fe  Fe675     1.0  0.96537  0.38916  0.83541  1.0000
  S   S1347     1.0  0.97915  0.39565  0.81862  1.0000
  S   S1348     1.0  0.95613  0.40189  0.84870  1.0000
  Fe  Fe676     1.0  0.96968  0.36380  0.82961  1.0000
  S   S1349     1.0  0.98395  0.36817  0.81241  1.0000
  S   S1350     1.0  0.96353  0.34565  0.83426  1.0000
  Fe  Fe677     1.0  0.99128  0.37703  0.82402  1.0000
  Fe  Fe678     1.0  0.97047  0.38622  0.80878  1.0000
  S   S1351     1.0  0.96350  0.39656  0.79121  1.0000
  S   S1352     1.0  0.97792  0.37112  0.84148  1.0000
  S   S1353     1.0  0.95576  0.38122  0.82532  1.0000
  Fe  Fe679     1.0  0.89533  0.42774  0.82212  1.0000
  S   S1354     1.0  0.87666  0.43990  0.82085  1.0000
  S   S1355     1.0  0.91063  0.42207  0.80669  1.0000
  Fe  Fe680     1.0  0.88969  0.42241  0.84996  1.0000
  S   S1356     1.0  0.87045  0.43404  0.85133  1.0000
  S   S1357     1.0  0.89794  0.41253  0.86645  1.0000
  Fe  Fe681     1.0  0.86957  0.42514  0.83618  1.0000
  S   S1358     1.0  0.85279  0.41837  0.83582  1.0000
  Fe  Fe682     1.0  0.87935  0.44771  0.83598  1.0000
  S   S1359     1.0  0.87651  0.46842  0.83420  1.0000
  S   S1360     1.0  0.88805  0.41234  0.83626  1.0000
  S   S1361     1.0  0.89878  0.43670  0.83588  1.0000
  H   H5357     1.0  0.88873  0.64757  0.97524  1.0000
  C   C3357     1.0  0.69439  0.60138  0.86079  1.0000
  C   C3358     1.0  0.92304  0.35799  0.82311  1.0000
  Fe  Fe683     1.0  0.87294  0.34696  0.85069  1.0000
  S   S1362     1.0  0.85478  0.36062  0.85196  1.0000
  S   S1363     1.0  0.89118  0.35249  0.84186  1.0000
  Fe  Fe684     1.0  0.83381  0.53665  0.87818  1.0000
  S   S1364     1.0  0.84519  0.55030  0.86617  1.0000
  S   S1365     1.0  0.81402  0.54290  0.88736  1.0000
  Fe  Fe685     1.0  0.85509  0.51464  0.87600  1.0000
  S   S1366     1.0  0.86849  0.52636  0.86404  1.0000
  S   S1367     1.0  0.85973  0.49373  0.88072  1.0000
  Fe  Fe686     1.0  0.85985  0.53969  0.87685  1.0000
  S   S1368     1.0  0.87148  0.55135  0.88036  1.0000
  Fe  Fe687     1.0  0.85284  0.53605  0.85437  1.0000
  S   S1369     1.0  0.85770  0.54108  0.83374  1.0000
  S   S1370     1.0  0.84790  0.52699  0.88996  1.0000
  S   S1371     1.0  0.83998  0.52338  0.86527  1.0000
  Fe  Fe688     1.0  0.77577  0.60426  0.86583  1.0000
  S   S1372     1.0  0.78875  0.61476  0.86851  1.0000
  S   S1373     1.0  0.78467  0.58915  0.85511  1.0000
  Fe  Fe689     1.0  0.75287  0.61983  0.87901  1.0000
  S   S1374     1.0  0.76415  0.63119  0.88335  1.0000
  S   S1375     1.0  0.73217  0.62526  0.88590  1.0000
  Fe  Fe690     1.0  0.77430  0.63157  0.86378  1.0000
  H   H5358     1.0  0.80980  0.63507  0.95953  1.0000
  Fe  Fe691     1.0  0.77750  0.61334  0.88773  1.0000
  S   S1376     1.0  0.78816  0.60671  0.90301  1.0000
  S   S1377     1.0  0.76231  0.62132  0.85905  1.0000
  S   S1378     1.0  0.76525  0.60175  0.88545  1.0000
  Fe  Fe692     1.0  0.86417  0.62261  0.79933  1.0000
  S   S1379     1.0  0.84333  0.62750  0.80231  1.0000
  S   S1380     1.0  0.87680  0.62605  0.78054  1.0000
  Fe  Fe693     1.0  0.86413  0.61268  0.82667  1.0000
  S   S1381     1.0  0.84347  0.61639  0.83190  1.0000
  S   S1382     1.0  0.87362  0.60290  0.84248  1.0000
  Fe  Fe694     1.0  0.84435  0.60904  0.81529  1.0000
  S   S1383     1.0  0.83129  0.59654  0.81764  1.0000
  Fe  Fe695     1.0  0.84429  0.63445  0.81867  1.0000
  H   H5359     1.0  0.92122  0.64372  0.95767  1.0000
  S   S1384     1.0  0.86506  0.60347  0.81117  1.0000
  S   S1385     1.0  0.86511  0.63139  0.81461  1.0000
  Fe  Fe696     1.0  0.84984  0.60458  0.91655  1.0000
  S   S1386     1.0  0.86788  0.60979  0.91569  1.0000
  S   S1387     1.0  0.84585  0.58548  0.91959  1.0000
  Fe  Fe697     1.0  0.83558  0.63120  0.91475  1.0000
  S   S1388     1.0  0.85225  0.63879  0.91374  1.0000
  S   S1389     1.0  0.81701  0.64301  0.91247  1.0000
  Fe  Fe698     1.0  0.86178  0.62576  0.90082  1.0000
  S   S1390     1.0  0.87251  0.63312  0.88222  1.0000
  Fe  Fe699     1.0  0.85672  0.62235  0.92884  1.0000
  S   S1391     1.0  0.86151  0.62117  0.94739  1.0000
  S   S1392     1.0  0.84471  0.61947  0.90072  1.0000
  S   S1393     1.0  0.83912  0.61581  0.93079  1.0000
  H   H5360     1.0  0.96391  0.41761  0.80140  1.0000
  H   H5361     1.0  0.95439  0.42499  0.79028  1.0000
  C   C3359     1.0  0.86455  0.56518  0.94343  1.0000
  H   H5362     1.0  0.70186  0.59516  0.86544  1.0000
  S   S1394     1.0  0.69394  0.63684  0.85062  1.0000
  H   H5363     1.0  0.83309  0.50506  0.85282  1.0000
  S   S1395     1.0  0.86787  0.60477  0.73811  1.0000
  N   N338      1.0  0.93106  0.36195  0.81107  1.0000
  C   C3360     1.0  0.86272  0.63347  0.95371  1.0000
  C   C3361     1.0  0.86396  0.63099  0.96609  1.0000
  C   C3362     1.0  0.86491  0.64044  0.97153  1.0000
  C   C3363     1.0  0.83273  0.64829  0.93941  1.0000
  H   H5364     1.0  0.88661  0.57830  0.94742  1.0000
  C   C3364     1.0  0.86242  0.64555  0.94682  1.0000
  H   H5365     1.0  0.86418  0.62169  0.97153  1.0000
  H   H5366     1.0  0.86163  0.64759  0.93724  1.0000
  H   H5367     1.0  0.69342  0.59704  0.85348  1.0000
  H   H5368     1.0  0.87668  0.56920  0.95891  1.0000
  C   C3365     1.0  0.87267  0.61166  0.85341  1.0000
  C   C3366     1.0  0.87099  0.60600  0.86596  1.0000
  C   C3367     1.0  0.87072  0.61265  0.87484  1.0000
  C   C3368     1.0  0.87250  0.62486  0.87117  1.0000
  C   C3369     1.0  0.87413  0.63054  0.85863  1.0000
  C   C3370     1.0  0.87406  0.62400  0.84975  1.0000
  H   H5369     1.0  0.86997  0.59644  0.86880  1.0000
  H   H5370     1.0  0.86954  0.60821  0.88449  1.0000
  H   H5371     1.0  0.87550  0.63999  0.85576  1.0000
  H   H5372     1.0  0.87548  0.62836  0.84006  1.0000
  C   C3371     1.0  0.79566  0.61724  0.90562  1.0000
  C   C3372     1.0  0.79391  0.62969  0.89954  1.0000
  C   C3373     1.0  0.80017  0.63779  0.90189  1.0000
  C   C3374     1.0  0.80845  0.63331  0.91000  1.0000
  C   C3375     1.0  0.81030  0.62084  0.91587  1.0000
  C   C3376     1.0  0.80376  0.61290  0.91388  1.0000
  H   H5373     1.0  0.78763  0.63310  0.89318  1.0000
  H   H5374     1.0  0.88854  0.61470  0.73990  1.0000
  H   H5375     1.0  0.81662  0.61730  0.92217  1.0000
  H   H5376     1.0  0.80503  0.60333  0.91872  1.0000
  H   H5377     1.0  0.82452  0.62740  0.95198  1.0000
  C   C3377     1.0  0.82905  0.62770  0.87411  1.0000
  Fe  Fe700     1.0  0.89556  0.33562  0.83379  1.0000
  H   H5378     1.0  0.86585  0.63837  0.98107  1.0000
  C   C3378     1.0  0.81335  0.63984  0.83630  1.0000
  C   C3379     1.0  0.80118  0.63940  0.84290  1.0000
  H   H5379     1.0  0.84167  0.64693  0.84862  1.0000
  H   H5380     1.0  0.91935  0.38000  0.80744  1.0000
  H   H5381     1.0  0.81976  0.63139  0.83467  1.0000
  H   H5382     1.0  0.79834  0.63062  0.84634  1.0000
  C   C3380     1.0  0.72175  0.62842  0.87590  1.0000
  C   C3381     1.0  0.70941  0.63429  0.87973  1.0000
  C   C3382     1.0  0.70089  0.63718  0.87193  1.0000
  C   C3383     1.0  0.70462  0.63403  0.86030  1.0000
  C   C3384     1.0  0.71696  0.62816  0.85645  1.0000
  C   C3385     1.0  0.72553  0.62540  0.86421  1.0000
  H   H5383     1.0  0.70643  0.63664  0.88878  1.0000
  H   H5384     1.0  0.69141  0.64175  0.87497  1.0000
  H   H5385     1.0  0.71989  0.62568  0.84746  1.0000
  H   H5386     1.0  0.73500  0.62079  0.86122  1.0000
  C   C3386     1.0  0.80567  0.55537  0.87822  1.0000
  C   C3387     1.0  0.80951  0.55803  0.86537  1.0000
  C   C3388     1.0  0.80281  0.56821  0.85825  1.0000
  C   C3389     1.0  0.79254  0.57599  0.86402  1.0000
  C   C3390     1.0  0.78876  0.57331  0.87687  1.0000
  C   C3391     1.0  0.79521  0.56293  0.88393  1.0000
  H   H5387     1.0  0.81748  0.55209  0.86092  1.0000
  H   H5388     1.0  0.80562  0.57010  0.84831  1.0000
  H   H5389     1.0  0.78071  0.57905  0.88139  1.0000
  H   H5390     1.0  0.79214  0.56085  0.89387  1.0000
  C   C3392     1.0  0.86417  0.56095  0.89112  1.0000
  C   C3393     1.0  0.85455  0.55766  0.90086  1.0000
  C   C3394     1.0  0.84908  0.56523  0.90958  1.0000
  C   C3395     1.0  0.85297  0.57628  0.90844  1.0000
  C   C3396     1.0  0.86249  0.57967  0.89862  1.0000
  C   C3397     1.0  0.86817  0.57193  0.89006  1.0000
  H   H5391     1.0  0.85151  0.54913  0.90181  1.0000
  H   H5392     1.0  0.84178  0.56252  0.91721  1.0000
  H   H5393     1.0  0.86557  0.58816  0.89769  1.0000
  H   H5394     1.0  0.87565  0.57449  0.88256  1.0000
  C   C3398     1.0  0.85022  0.55635  0.82893  1.0000
  C   C3399     1.0  0.83872  0.56112  0.83577  1.0000
  C   C3400     1.0  0.83288  0.57346  0.83217  1.0000
  C   C3401     1.0  0.83866  0.58111  0.82188  1.0000
  C   C3402     1.0  0.85024  0.57640  0.81510  1.0000
  C   C3403     1.0  0.85594  0.56394  0.81852  1.0000
  H   H5395     1.0  0.83423  0.55523  0.84373  1.0000
  H   H5396     1.0  0.82398  0.57714  0.83744  1.0000
  H   H5397     1.0  0.85467  0.58228  0.80705  1.0000
  H   H5398     1.0  0.86482  0.56025  0.81318  1.0000
  C   C3404     1.0  0.87132  0.60948  0.75021  1.0000
  C   C3405     1.0  0.86286  0.60892  0.76156  1.0000
  C   C3406     1.0  0.86463  0.61370  0.77104  1.0000
  C   C3407     1.0  0.87487  0.61912  0.76919  1.0000
  C   C3408     1.0  0.88350  0.61943  0.75793  1.0000
  C   C3409     1.0  0.88180  0.61451  0.74851  1.0000
  H   H5399     1.0  0.85478  0.60496  0.76297  1.0000
  H   H5400     1.0  0.85798  0.61334  0.77971  1.0000
  H   H5401     1.0  0.89152  0.62348  0.75653  1.0000
  C   C3410     1.0  0.87174  0.47520  0.84729  1.0000
  C   C3411     1.0  0.87432  0.48685  0.84635  1.0000
  C   C3412     1.0  0.87050  0.49266  0.85653  1.0000
  C   C3413     1.0  0.86424  0.48676  0.86779  1.0000
  C   C3414     1.0  0.86165  0.47510  0.86875  1.0000
  C   C3415     1.0  0.86522  0.46942  0.85846  1.0000
  H   H5402     1.0  0.87931  0.49141  0.83770  1.0000
  H   H5403     1.0  0.87256  0.50163  0.85573  1.0000
  H   H5404     1.0  0.85667  0.47058  0.87742  1.0000
  H   H5405     1.0  0.86286  0.46061  0.85916  1.0000
  C   C3416     1.0  0.85373  0.40226  0.83986  1.0000
  C   C3417     1.0  0.86504  0.39392  0.83751  1.0000
  C   C3418     1.0  0.86545  0.38109  0.84086  1.0000
  C   C3419     1.0  0.85461  0.37657  0.84678  1.0000
  C   C3420     1.0  0.84331  0.38493  0.84887  1.0000
  C   C3421     1.0  0.84285  0.39772  0.84533  1.0000
  H   H5406     1.0  0.87340  0.39732  0.83290  1.0000
  H   H5407     1.0  0.87412  0.37473  0.83886  1.0000
  H   H5408     1.0  0.83487  0.38152  0.85333  1.0000
  H   H5409     1.0  0.83406  0.40411  0.84704  1.0000
  C   C3422     1.0  0.94856  0.34616  0.84347  1.0000
  C   C3423     1.0  0.94284  0.35581  0.84981  1.0000
  C   C3424     1.0  0.93081  0.35605  0.85707  1.0000
  H   H5410     1.0  0.94778  0.36293  0.84935  1.0000
  H   H5411     1.0  0.92649  0.36342  0.86211  1.0000
  C   C3425     1.0  0.94000  0.40361  0.85382  1.0000
  C   C3426     1.0  0.93462  0.40665  0.86539  1.0000
  C   C3427     1.0  0.92170  0.40882  0.86946  1.0000
  C   C3428     1.0  0.91409  0.40849  0.86172  1.0000
  C   C3429     1.0  0.91943  0.40555  0.85008  1.0000
  C   C3430     1.0  0.93241  0.40282  0.84625  1.0000
  H   H5412     1.0  0.94048  0.40725  0.87126  1.0000
  H   H5413     1.0  0.91762  0.41106  0.87846  1.0000
  H   H5414     1.0  0.91358  0.40531  0.84405  1.0000
  H   H5415     1.0  0.93654  0.40042  0.83735  1.0000
  C   C3431     1.0  0.94441  0.37967  0.77028  1.0000
  C   C3432     1.0  0.94106  0.39229  0.77059  1.0000
  C   C3433     1.0  0.94696  0.39733  0.77705  1.0000
  C   C3434     1.0  0.95605  0.38976  0.78353  1.0000
  C   C3435     1.0  0.95933  0.37711  0.78334  1.0000
  C   C3436     1.0  0.95363  0.37212  0.77663  1.0000
  H   H5416     1.0  0.93417  0.39824  0.76556  1.0000
  H   H5417     1.0  0.94450  0.40717  0.77697  1.0000
  H   H5418     1.0  0.96651  0.37124  0.78807  1.0000
  H   H5419     1.0  0.95642  0.36238  0.77632  1.0000
  C   C3437     1.0  0.88581  0.36182  0.78616  1.0000
  C   C3438     1.0  0.89846  0.35684  0.78282  1.0000
  C   C3439     1.0  0.90475  0.34844  0.79156  1.0000
  C   C3440     1.0  0.89851  0.34537  0.80378  1.0000
  C   C3441     1.0  0.88588  0.35046  0.80721  1.0000
  C   C3442     1.0  0.87948  0.35852  0.79833  1.0000
  H   H5420     1.0  0.90340  0.35931  0.77345  1.0000
  H   H5421     1.0  0.91451  0.34448  0.78886  1.0000
  H   H5422     1.0  0.88102  0.34816  0.81665  1.0000
  H   H5423     1.0  0.86967  0.36231  0.80094  1.0000
  C   C3443     1.0  0.89805  0.42530  0.77102  1.0000
  C   C3444     1.0  0.89128  0.43307  0.77920  1.0000
  C   C3445     1.0  0.89513  0.43219  0.79018  1.0000
  C   C3446     1.0  0.90581  0.42366  0.79289  1.0000
  C   C3447     1.0  0.91275  0.41616  0.78453  1.0000
  C   C3448     1.0  0.90884  0.41696  0.77364  1.0000
  H   H5424     1.0  0.88298  0.43961  0.77713  1.0000
  H   H5425     1.0  0.88993  0.43825  0.79642  1.0000
  H   H5426     1.0  0.92107  0.40962  0.78655  1.0000
  H   H5427     1.0  0.91423  0.41118  0.76718  1.0000
  C   C3449     1.0  0.90899  0.65420  0.97713  1.0000
  Fe  Fe701     1.0  0.67412  0.64577  0.85779  1.0000
  C   C3450     1.0  0.83847  0.64476  0.87314  1.0000
  N   N339      1.0  0.82129  0.58155  0.88922  1.0000
  C   C3451     1.0  0.81104  0.58706  0.88248  1.0000
  C   C3452     1.0  0.83315  0.58399  0.88105  1.0000
  C   C3453     1.0  0.82203  0.56804  0.89316  1.0000
  C   C3454     1.0  0.81890  0.58707  0.90019  1.0000
  H   H5428     1.0  0.81239  0.58297  0.87424  1.0000
  H   H5429     1.0  0.81020  0.59725  0.87935  1.0000
  H   H5430     1.0  0.80193  0.58551  0.88846  1.0000
  H   H5431     1.0  0.84106  0.57989  0.88587  1.0000
  H   H5432     1.0  0.83521  0.57993  0.87268  1.0000
  H   H5433     1.0  0.83296  0.59410  0.87793  1.0000
  H   H5434     1.0  0.82921  0.56358  0.89880  1.0000
  H   H5435     1.0  0.82446  0.56354  0.88506  1.0000
  H   H5436     1.0  0.81303  0.56578  0.89877  1.0000
  H   H5437     1.0  0.82639  0.58315  0.90557  1.0000
  H   H5438     1.0  0.80998  0.58541  0.90652  1.0000
  H   H5439     1.0  0.81824  0.59726  0.89754  1.0000
  H   H5440     1.0  0.92918  0.34728  0.80340  1.0000
  H   H5441     1.0  0.84028  0.63989  0.93948  1.0000
  N   N340      1.0  0.87152  0.40205  0.79736  1.0000
  C   C3455     1.0  0.87094  0.40591  0.78412  1.0000
  C   C3456     1.0  0.86807  0.41310  0.80299  1.0000
  C   C3457     1.0  0.88428  0.39552  0.79862  1.0000
  C   C3458     1.0  0.86281  0.39363  0.80367  1.0000
  H   H5442     1.0  0.87355  0.39780  0.77955  1.0000
  H   H5443     1.0  0.87741  0.41224  0.77906  1.0000
  H   H5444     1.0  0.86146  0.41086  0.78278  1.0000
  H   H5445     1.0  0.86852  0.41058  0.81294  1.0000
  H   H5446     1.0  0.87439  0.41969  0.79837  1.0000
  H   H5447     1.0  0.85843  0.41819  0.80237  1.0000
  H   H5448     1.0  0.88511  0.39266  0.80848  1.0000
  H   H5449     1.0  0.89113  0.40155  0.79374  1.0000
  H   H5450     1.0  0.88707  0.38701  0.79464  1.0000
  H   H5451     1.0  0.85306  0.39830  0.80307  1.0000
  H   H5452     1.0  0.86313  0.39034  0.81364  1.0000
  H   H5453     1.0  0.86506  0.38531  0.79945  1.0000
  H   H5454     1.0  0.95533  0.41702  0.82360  1.0000
  C   C3459     1.0  0.73093  0.65725  0.88087  1.0000
  H   H5455     1.0  0.82154  0.65761  0.85923  1.0000
  H   H5456     1.0  0.95139  0.43363  0.82046  1.0000
  Fe  Fe702     1.0  0.89775  0.33955  0.85824  1.0000
  S   S1396     1.0  0.91684  0.40011  0.74028  1.0000
  H   H5457     1.0  0.85739  0.56786  0.93762  1.0000
  S   S1397     1.0  0.90666  0.33527  0.81468  1.0000
  H   H5458     1.0  0.88358  0.58458  0.92583  1.0000
  H   H5459     1.0  0.82150  0.64367  0.97039  1.0000
  C   C3460     1.0  0.85004  0.49678  0.82594  1.0000
  C   C3461     1.0  0.89685  0.64629  0.96752  1.0000
  H   H5460     1.0  0.83589  0.63602  0.96218  1.0000
  C   C3462     1.0  0.92440  0.34680  0.85776  1.0000
  S   S1398     1.0  0.90924  0.34732  0.86658  1.0000
  H   H5461     1.0  0.93838  0.41308  0.80153  1.0000
  H   H5462     1.0  0.85765  0.51075  0.83751  1.0000
  H   H5463     1.0  0.85960  0.56325  0.95323  1.0000
  C   C3463     1.0  0.94797  0.42515  0.82097  1.0000
  H   H5464     1.0  0.93362  0.36044  0.79213  1.0000
  C   C3464     1.0  0.92917  0.37562  0.80802  1.0000
  H   H5465     1.0  0.85833  0.58518  0.95392  1.0000
  C   C3465     1.0  0.83080  0.51172  0.82901  1.0000
  S   S1399     1.0  0.83242  0.65205  0.82407  1.0000
  H   H5466     1.0  0.84727  0.49392  0.85050  1.0000
  S   S1400     1.0  0.87662  0.33113  0.84100  1.0000
  H   H5467     1.0  0.92414  0.34771  0.82561  1.0000
  H   H5468     1.0  0.85451  0.63114  0.74326  1.0000
  H   H5469     1.0  0.90209  0.63662  0.96979  1.0000
  C   C3466     1.0  0.81987  0.64851  0.86508  1.0000
  H   H5470     1.0  0.75522  0.65803  0.87299  1.0000
  C   C3467     1.0  0.82857  0.64465  0.96165  1.0000
  H   H5471     1.0  0.84825  0.63135  0.85530  1.0000
  H   H5472     1.0  0.91306  0.36189  0.82296  1.0000
  C   C3468     1.0  0.83887  0.49871  0.84661  1.0000
  C   C3469     1.0  0.91551  0.65320  0.95551  1.0000
  H   H5473     1.0  0.67125  0.60795  0.85604  1.0000
  H   H5474     1.0  0.84066  0.65385  0.86781  1.0000
  C   C3470     1.0  0.94216  0.33690  0.84422  1.0000
  H   H5475     1.0  0.86186  0.63926  0.74993  1.0000
  H   H5476     1.0  0.67584  0.62103  0.85822  1.0000
  H   H5477     1.0  0.93803  0.44473  0.80497  1.0000
  H   H5478     1.0  0.83310  0.65237  0.96133  1.0000
  C   C3471     1.0  0.81748  0.63621  0.95133  1.0000
  N   N341      1.0  0.79533  0.61430  0.82346  1.0000
  C   C3472     1.0  0.80267  0.60891  0.83322  1.0000
  C   C3473     1.0  0.80315  0.61209  0.81143  1.0000
  C   C3474     1.0  0.79104  0.62777  0.82289  1.0000
  C   C3475     1.0  0.78449  0.60838  0.82630  1.0000
  H   H5479     1.0  0.79706  0.61027  0.84244  1.0000
  H   H5480     1.0  0.81099  0.61308  0.83137  1.0000
  H   H5481     1.0  0.80606  0.59872  0.83390  1.0000
  H   H5482     1.0  0.80665  0.60199  0.81160  1.0000
  H   H5483     1.0  0.79796  0.61597  0.80381  1.0000
  H   H5484     1.0  0.81148  0.61636  0.80904  1.0000
  H   H5485     1.0  0.78547  0.63214  0.81563  1.0000
  H   H5486     1.0  0.79904  0.63249  0.82075  1.0000
  H   H5487     1.0  0.78514  0.62978  0.83185  1.0000
  H   H5488     1.0  0.78744  0.59814  0.82718  1.0000
  H   H5489     1.0  0.77887  0.61196  0.81901  1.0000
  H   H5490     1.0  0.77831  0.61002  0.83525  1.0000
  H   H5491     1.0  0.69769  0.61015  0.85606  1.0000
  H   H5492     1.0  0.84340  0.52195  0.83905  1.0000
  H   H5493     1.0  0.67555  0.61158  0.88603  1.0000
  H   H5494     1.0  0.85594  0.58974  0.93839  1.0000
  H   H5495     1.0  0.92531  0.33000  0.85193  1.0000
  H   H5496     1.0  0.73709  0.64939  0.88585  1.0000
  C   C3476     1.0  0.88110  0.57104  0.94893  1.0000
  N   N342      1.0  0.83168  0.63976  0.86670  1.0000
  H   H5497     1.0  0.82467  0.51835  0.83478  1.0000
  H   H5498     1.0  0.94712  0.36029  0.81847  1.0000
  N   N343      1.0  0.68253  0.60377  0.86971  1.0000
  S   S1401     1.0  0.77721  0.65009  0.85231  1.0000
  H   H5499     1.0  0.93215  0.41286  0.81766  1.0000
  H   H5500     1.0  0.87065  0.55636  0.94124  1.0000
  H   H5501     1.0  0.81441  0.64491  0.86044  1.0000
  C   C3477     1.0  0.86321  0.58652  0.94407  1.0000
  C   C3478     1.0  0.81713  0.65121  0.83186  1.0000
  N   N344      1.0  0.89782  0.45006  0.87009  1.0000
  C   C3479     1.0  0.88680  0.44640  0.86862  1.0000
  C   C3480     1.0  0.89999  0.44461  0.88274  1.0000
  C   C3481     1.0  0.89567  0.46373  0.86797  1.0000
  C   C3482     1.0  0.90877  0.44546  0.86103  1.0000
  H   H5502     1.0  0.88531  0.44976  0.85897  1.0000
  H   H5503     1.0  0.87824  0.45017  0.87491  1.0000
  H   H5504     1.0  0.88779  0.43617  0.87075  1.0000
  H   H5505     1.0  0.90822  0.44723  0.88423  1.0000
  H   H5506     1.0  0.89184  0.44780  0.88980  1.0000
  H   H5507     1.0  0.90169  0.43429  0.88455  1.0000
  H   H5508     1.0  0.89389  0.46810  0.85853  1.0000
  H   H5509     1.0  0.90380  0.46688  0.86896  1.0000
  H   H5510     1.0  0.88743  0.46753  0.87463  1.0000
  H   H5511     1.0  0.91737  0.44767  0.86213  1.0000
  H   H5512     1.0  0.90756  0.44967  0.85139  1.0000
  H   H5513     1.0  0.91034  0.43522  0.86208  1.0000
  H   H5514     1.0  0.85891  0.49223  0.82906  1.0000
  H   H5515     1.0  0.84747  0.63842  0.87444  1.0000
  H   H5516     1.0  0.79873  0.64744  0.89732  1.0000
  H   H5517     1.0  0.72261  0.65375  0.88090  1.0000
  H   H5518     1.0  0.88434  0.56874  0.92531  1.0000
  H   H5519     1.0  0.87119  0.58041  0.92176  1.0000
  C   C3483     1.0  0.74096  0.65168  0.86117  1.0000
  H   H5520     1.0  0.91447  0.64476  0.98001  1.0000
  H   H5521     1.0  0.93246  0.43584  0.79731  1.0000
  H   H5522     1.0  0.91795  0.36137  0.80069  1.0000
  H   H5523     1.0  0.88773  0.56241  0.94689  1.0000
  H   H5524     1.0  0.93504  0.37889  0.79896  1.0000
  C   C3484     1.0  0.84917  0.51495  0.83358  1.0000
  H   H5525     1.0  0.82535  0.50489  0.82894  1.0000
  H   H5526     1.0  0.93973  0.42471  0.82868  1.0000
  H   H5527     1.0  0.86826  0.59420  0.94234  1.0000
  H   H5528     1.0  0.83443  0.63451  0.84925  1.0000
  N   N345      1.0  0.88409  0.38009  0.86847  1.0000
  C   C3485     1.0  0.89117  0.37820  0.87823  1.0000
  C   C3486     1.0  0.89272  0.38094  0.85634  1.0000
  C   C3487     1.0  0.87461  0.39168  0.86860  1.0000
  C   C3488     1.0  0.87788  0.36954  0.87071  1.0000
  H   H5529     1.0  0.88503  0.37745  0.88755  1.0000
  H   H5530     1.0  0.89597  0.38600  0.87682  1.0000
  H   H5531     1.0  0.89845  0.36954  0.87828  1.0000
  H   H5532     1.0  0.88774  0.38254  0.84870  1.0000
  H   H5533     1.0  0.89772  0.38867  0.85454  1.0000
  H   H5534     1.0  0.89990  0.37228  0.85587  1.0000
  H   H5535     1.0  0.86901  0.39330  0.86143  1.0000
  H   H5536     1.0  0.87895  0.39987  0.86677  1.0000
  H   H5537     1.0  0.86806  0.39145  0.87768  1.0000
  H   H5538     1.0  0.87254  0.37055  0.86348  1.0000
  H   H5539     1.0  0.87125  0.36868  0.87976  1.0000
  H   H5540     1.0  0.88470  0.36062  0.87077  1.0000
  N   N346      1.0  0.87962  0.56684  0.84237  1.0000
  C   C3489     1.0  0.86646  0.57119  0.84790  1.0000
  C   C3490     1.0  0.88194  0.55339  0.84287  1.0000
  C   C3491     1.0  0.88775  0.56927  0.84937  1.0000
  C   C3492     1.0  0.88233  0.57343  0.82937  1.0000
  H   H5541     1.0  0.86009  0.56912  0.84307  1.0000
  H   H5542     1.0  0.86426  0.58136  0.84736  1.0000
  H   H5543     1.0  0.86422  0.56672  0.85782  1.0000
  H   H5544     1.0  0.87605  0.55119  0.83763  1.0000
  H   H5545     1.0  0.89178  0.54973  0.83886  1.0000
  H   H5546     1.0  0.87986  0.54821  0.85257  1.0000
  H   H5547     1.0  0.88599  0.56436  0.85919  1.0000
  H   H5548     1.0  0.88618  0.57928  0.84940  1.0000
  H   H5549     1.0  0.89773  0.56622  0.84535  1.0000
  H   H5550     1.0  0.89209  0.57024  0.82479  1.0000
  H   H5551     1.0  0.88090  0.58360  0.82870  1.0000
  H   H5552     1.0  0.87613  0.57202  0.82392  1.0000
  H   H5553     1.0  0.94584  0.34632  0.81486  1.0000
  H   H5554     1.0  0.92537  0.36094  0.83068  1.0000
  C   C3493     1.0  0.86468  0.65251  0.96462  1.0000
  H   H5555     1.0  0.84529  0.48927  0.82617  1.0000
  H   H5556     1.0  0.83360  0.49152  0.84716  1.0000
  H   H5557     1.0  0.83781  0.62087  0.87539  1.0000
  N   N347      1.0  0.94498  0.42505  0.80915  1.0000
  H   H5558     1.0  0.95963  0.43421  0.79785  1.0000
  C   C3494     1.0  0.79265  0.65036  0.84469  1.0000
  N   N348      1.0  0.82300  0.64686  0.95072  1.0000
  N   N349      1.0  0.84222  0.50553  0.83379  1.0000
  H   H5559     1.0  0.74661  0.64334  0.86605  1.0000
  C   C3495     1.0  0.94064  0.41357  0.81031  1.0000
  H   H5560     1.0  0.83299  0.51710  0.81940  1.0000
  H   H5561     1.0  0.74659  0.65442  0.85179  1.0000
  N   N350      1.0  0.87171  0.57501  0.94109  1.0000
  C   C3496     1.0  0.92783  0.35757  0.80139  1.0000
  C   C3497     1.0  0.94419  0.35659  0.81178  1.0000
  C   C3498     1.0  0.85588  0.64051  0.74316  1.0000
  H   H5562     1.0  0.68725  0.61863  0.87479  1.0000
  H   H5563     1.0  0.85253  0.50156  0.81615  1.0000
  H   H5564     1.0  0.73268  0.64883  0.86011  1.0000
  H   H5565     1.0  0.85218  0.52010  0.82403  1.0000
  H   H5566     1.0  0.89306  0.64721  0.95917  1.0000
  H   H5567     1.0  0.94787  0.40528  0.81260  1.0000
  H   H5568     1.0  0.95052  0.35874  0.80272  1.0000
  C   C3499     1.0  0.86341  0.65500  0.95225  1.0000
  C   C3500     1.0  0.87800  0.57728  0.92794  1.0000
  C   C3501     1.0  0.93007  0.33728  0.85126  1.0000
  H   H5569     1.0  0.92648  0.43571  0.81338  1.0000
  H   H5570     1.0  0.82337  0.62864  0.88346  1.0000
  S   S1402     1.0  0.87911  0.33506  0.86788  1.0000
  C   C3502     1.0  0.93509  0.43585  0.80607  1.0000
  H   H5571     1.0  0.81365  0.63735  0.94294  1.0000
  C   C3503     1.0  0.81325  0.65826  0.95038  1.0000
  H   H5572     1.0  0.84665  0.64603  0.74664  1.0000
  N   N351      1.0  0.90469  0.65544  0.96562  1.0000
  C   C3504     1.0  0.67296  0.61212  0.86311  1.0000
  H   H5573     1.0  0.69157  0.60371  0.88416  1.0000
  H   H5574     1.0  0.83301  0.64609  0.88247  1.0000
  H   H5575     1.0  0.82383  0.62372  0.86956  1.0000
  C   C3505     1.0  0.83935  0.63805  0.85446  1.0000
  C   C3506     1.0  0.67847  0.59197  0.87582  1.0000
  H   H5576     1.0  0.91252  0.65410  0.94670  1.0000
  H   H5577     1.0  0.81394  0.65019  0.87412  1.0000
  H   H5578     1.0  0.80571  0.65753  0.95877  1.0000
  C   C3507     1.0  0.68429  0.60965  0.87911  1.0000
  H   H5579     1.0  0.94659  0.32940  0.83937  1.0000
  H   H5580     1.0  0.68542  0.58547  0.88098  1.0000
  H   H5581     1.0  0.82891  0.64979  0.93095  1.0000
  H   H5582     1.0  0.83706  0.65628  0.93853  1.0000
  H   H5583     1.0  0.66947  0.59353  0.88252  1.0000
  H   H5584     1.0  0.90102  0.65587  0.98491  1.0000
  H   H5585     1.0  0.67710  0.58726  0.86898  1.0000
  H   H5586     1.0  0.93565  0.37722  0.73640  1.0000
  H   H5587     1.0  0.86869  0.65870  0.73735  1.0000
  Fe  Fe703     1.0  0.86239  0.74757  0.07508  1.0000
  S   S1403     1.0  0.84968  0.73945  0.09211  1.0000
  S   S1404     1.0  0.86746  0.76650  0.07174  1.0000
  Fe  Fe704     1.0  0.87005  0.72322  0.06500  1.0000
  S   S1405     1.0  0.85847  0.71341  0.08158  1.0000
  S   S1406     1.0  0.88171  0.71080  0.05181  1.0000
  Fe  Fe705     1.0  0.84400  0.73075  0.07923  1.0000
  S   S1407     1.0  0.82556  0.72690  0.07907  1.0000
  Fe  Fe706     1.0  0.86529  0.72290  0.09262  1.0000
  S   S1408     1.0  0.87411  0.71306  0.10877  1.0000
  S   S1409     1.0  0.85528  0.74035  0.06195  1.0000
  S   S1410     1.0  0.87831  0.73126  0.07628  1.0000
  Fe  Fe707     1.0  0.86255  0.67772  0.01159  1.0000
  S   S1411     1.0  0.85343  0.69543  0.01859  1.0000
  H   H5588     1.0  0.87081  0.99138  0.08834  1.0000
  H   H5589     1.0  0.88509  0.97803  0.11938  1.0000
  S   S1412     1.0  0.92370  0.68623  0.07896  1.0000
  H   H5590     1.0  0.91439  0.85930  0.14700  1.0000
  H   H5591     1.0  0.92902  0.90540  0.13654  1.0000
  H   H5592     1.0  0.87700  0.94719  0.16947  1.0000
  H   H5593     1.0  0.99321  0.86782  0.09492  1.0000
  S   S1413     1.0  0.81841  0.67575  0.11469  1.0000
  H   H5594     1.0  0.91457  0.87526  0.08039  1.0000
  C   C3508     1.0  0.85937  0.66762  0.13363  1.0000
  Fe  Fe708     1.0  0.98382  0.85698  0.11919  1.0000
  S   S1414     1.0  0.97358  0.85143  0.10772  1.0000
  Fe  Fe709     1.0  0.96011  0.87092  0.13297  1.0000
  S   S1415     1.0  0.94803  0.86675  0.12249  1.0000
  S   S1416     1.0  0.94992  0.88306  0.14659  1.0000
  Fe  Fe710     1.0  0.95967  0.84766  0.12526  1.0000
  S   S1417     1.0  0.94998  0.83161  0.13172  1.0000
  Fe  Fe711     1.0  0.96296  0.87101  0.10598  1.0000
  S   S1418     1.0  0.96025  0.88191  0.08723  1.0000
  S   S1419     1.0  0.97078  0.85139  0.13708  1.0000
  S   S1420     1.0  0.97417  0.87697  0.11611  1.0000
  Fe  Fe712     1.0  0.87504  0.86283  0.19423  1.0000
  S   S1421     1.0  0.88550  0.85030  0.20842  1.0000
  S   S1422     1.0  0.86389  0.85807  0.18296  1.0000
  Fe  Fe713     1.0  0.88185  0.88592  0.19726  1.0000
  S   S1423     1.0  0.89312  0.87545  0.21148  1.0000
  S   S1424     1.0  0.87896  0.90667  0.19250  1.0000
  Fe  Fe714     1.0  0.90021  0.86160  0.19914  1.0000
  S   S1425     1.0  0.92030  0.85258  0.19416  1.0000
  Fe  Fe715     1.0  0.87747  0.86529  0.21954  1.0000
  C   C3509     1.0  0.85441  0.98826  0.11880  1.0000
  S   S1426     1.0  0.89031  0.87302  0.18412  1.0000
  S   S1427     1.0  0.86562  0.87688  0.20610  1.0000
  Fe  Fe716     1.0  0.87288  0.93754  0.11135  1.0000
  S   S1428     1.0  0.89362  0.93540  0.10642  1.0000
  S   S1429     1.0  0.85935  0.95580  0.10793  1.0000
  Fe  Fe717     1.0  0.87416  0.91025  0.12336  1.0000
  S   S1430     1.0  0.89488  0.90589  0.11997  1.0000
  S   S1431     1.0  0.86475  0.89458  0.13410  1.0000
  Fe  Fe718     1.0  0.89303  0.92382  0.12549  1.0000
  S   S1432     1.0  0.90424  0.92658  0.13771  1.0000
  Fe  Fe719     1.0  0.89364  0.91765  0.10123  1.0000
  S   S1433     1.0  0.90566  0.91148  0.08410  1.0000
  S   S1434     1.0  0.87230  0.92714  0.13092  1.0000
  S   S1435     1.0  0.87286  0.92082  0.10421  1.0000
  Fe  Fe720     1.0  0.90085  0.82219  0.10692  1.0000
  S   S1436     1.0  0.88422  0.82388  0.09899  1.0000
  S   S1437     1.0  0.91866  0.82720  0.09520  1.0000
  Fe  Fe721     1.0  0.88665  0.81854  0.13340  1.0000
  S   S1438     1.0  0.86863  0.82015  0.12788  1.0000
  S   S1439     1.0  0.88998  0.81562  0.15269  1.0000
  Fe  Fe722     1.0  0.87972  0.80791  0.11442  1.0000
  S   S1440     1.0  0.87044  0.79233  0.11416  1.0000
  Fe  Fe723     1.0  0.87440  0.83578  0.11286  1.0000
  S   S1441     1.0  0.86227  0.85398  0.10638  1.0000
  S   S1442     1.0  0.89746  0.80508  0.12119  1.0000
  S   S1443     1.0  0.89134  0.83530  0.11958  1.0000
  C   C3510     1.0  0.86472  0.88346  0.12591  1.0000
  C   C3511     1.0  0.86674  0.87092  0.13165  1.0000
  C   C3512     1.0  0.86617  0.86188  0.12557  1.0000
  C   C3513     1.0  0.86325  0.86534  0.11385  1.0000
  C   C3514     1.0  0.86129  0.87789  0.10805  1.0000
  C   C3515     1.0  0.86217  0.88694  0.11401  1.0000
  H   H5595     1.0  0.86872  0.86818  0.14084  1.0000
  H   H5596     1.0  0.86763  0.85224  0.13010  1.0000
  H   H5597     1.0  0.85907  0.88062  0.09895  1.0000
  H   H5598     1.0  0.86050  0.89663  0.10956  1.0000
  C   C3516     1.0  0.87112  0.84618  0.17468  1.0000
  C   C3517     1.0  0.86776  0.84659  0.16357  1.0000
  C   C3518     1.0  0.87351  0.83726  0.15674  1.0000
  C   C3519     1.0  0.88242  0.82732  0.16115  1.0000
  C   C3520     1.0  0.88555  0.82675  0.17242  1.0000
  C   C3521     1.0  0.88000  0.83622  0.17912  1.0000
  H   H5599     1.0  0.86072  0.85415  0.16021  1.0000
  H   H5600     1.0  0.87091  0.83761  0.14819  1.0000
  H   H5601     1.0  0.89229  0.81897  0.17597  1.0000
  H   H5602     1.0  0.88241  0.83570  0.18783  1.0000
  C   C3522     1.0  0.88665  0.91161  0.17738  1.0000
  C   C3523     1.0  0.89290  0.92139  0.17470  1.0000
  C   C3524     1.0  0.89884  0.92557  0.16255  1.0000
  C   C3525     1.0  0.89803  0.92036  0.15301  1.0000
  C   C3526     1.0  0.89166  0.91068  0.15566  1.0000
  C   C3527     1.0  0.88622  0.90612  0.16790  1.0000
  H   H5603     1.0  0.89336  0.92555  0.18205  1.0000
  H   H5604     1.0  0.90386  0.93299  0.16052  1.0000
  H   H5605     1.0  0.89107  0.90658  0.14832  1.0000
  H   H5606     1.0  0.88154  0.89848  0.16998  1.0000
  H   H5607     1.0  0.80243  0.70743  0.05909  1.0000
  H   H5608     1.0  0.85969  0.92468  0.22486  1.0000
  H   H5609     1.0  0.85628  0.68745  0.14362  1.0000
  C   C3528     1.0  0.94185  0.87474  0.16004  1.0000
  C   C3529     1.0  0.94676  0.86233  0.16460  1.0000
  C   C3530     1.0  0.94028  0.85574  0.17532  1.0000
  C   C3531     1.0  0.92868  0.86138  0.18133  1.0000
  C   C3532     1.0  0.92375  0.87380  0.17680  1.0000
  C   C3533     1.0  0.93040  0.88051  0.16623  1.0000
  H   H5610     1.0  0.95570  0.85789  0.16004  1.0000
  H   H5611     1.0  0.94423  0.84620  0.17892  1.0000
  H   H5612     1.0  0.91493  0.87832  0.18153  1.0000
  H   H5613     1.0  0.92659  0.89013  0.16280  1.0000
  C   C3534     1.0  0.94192  0.83006  0.12116  1.0000
  C   C3535     1.0  0.93381  0.82178  0.12498  1.0000
  C   C3536     1.0  0.92664  0.82094  0.11702  1.0000
  C   C3537     1.0  0.92801  0.82793  0.10497  1.0000
  C   C3538     1.0  0.93647  0.83590  0.10095  1.0000
  C   C3539     1.0  0.94324  0.83716  0.10913  1.0000
  H   H5614     1.0  0.93293  0.81609  0.13419  1.0000
  H   H5615     1.0  0.92020  0.81472  0.12016  1.0000
  H   H5616     1.0  0.93766  0.84121  0.09160  1.0000
  H   H5617     1.0  0.94957  0.84350  0.10609  1.0000
  C   C3540     1.0  0.94492  0.88970  0.08662  1.0000
  C   C3541     1.0  0.94149  0.89442  0.07516  1.0000
  C   C3542     1.0  0.92937  0.90098  0.07449  1.0000
  C   C3543     1.0  0.92072  0.90312  0.08525  1.0000
  C   C3544     1.0  0.92418  0.89843  0.09672  1.0000
  C   C3545     1.0  0.93619  0.89157  0.09741  1.0000
  H   H5618     1.0  0.94820  0.89299  0.06677  1.0000
  H   H5619     1.0  0.92675  0.90457  0.06559  1.0000
  H   H5620     1.0  0.91763  0.90004  0.10505  1.0000
  H   H5621     1.0  0.93876  0.88800  0.10627  1.0000
  C   C3546     1.0  0.87596  0.97817  0.11804  1.0000
  C   C3547     1.0  0.87400  0.96837  0.11388  1.0000
  C   C3548     1.0  0.86222  0.96842  0.11226  1.0000
  H   H5622     1.0  0.88858  0.90234  0.21556  1.0000
  H   H5623     1.0  0.88159  0.96071  0.11203  1.0000
  H   H5624     1.0  0.91091  0.85077  0.17439  1.0000
  Fe  Fe724     1.0  0.86832  0.66307  0.99071  1.0000
  H   H5625     1.0  0.84785  0.68952  0.08777  1.0000
  H   H5626     1.0  0.93108  0.69347  0.05076  1.0000
  C   C3549     1.0  0.87412  0.70712  0.04195  1.0000
  C   C3550     1.0  0.86234  0.71377  0.04020  1.0000
  C   C3551     1.0  0.85632  0.71042  0.03258  1.0000
  C   C3552     1.0  0.86179  0.70011  0.02708  1.0000
  C   C3553     1.0  0.87361  0.69350  0.02877  1.0000
  C   C3554     1.0  0.87982  0.69709  0.03605  1.0000
  H   H5627     1.0  0.85795  0.72163  0.04455  1.0000
  H   H5628     1.0  0.84741  0.71587  0.03093  1.0000
  H   H5629     1.0  0.87802  0.68569  0.02436  1.0000
  H   H5630     1.0  0.88896  0.69195  0.03727  1.0000
  C   C3555     1.0  0.82276  0.71317  0.08954  1.0000
  C   C3556     1.0  0.81493  0.70644  0.08758  1.0000
  C   C3557     1.0  0.81364  0.69484  0.09516  1.0000
  C   C3558     1.0  0.81959  0.69032  0.10520  1.0000
  C   C3559     1.0  0.82683  0.69739  0.10758  1.0000
  C   C3560     1.0  0.82866  0.70865  0.09961  1.0000
  H   H5631     1.0  0.80996  0.71014  0.08011  1.0000
  H   H5632     1.0  0.80780  0.68953  0.09347  1.0000
  H   H5633     1.0  0.83104  0.69412  0.11559  1.0000
  H   H5634     1.0  0.83441  0.71399  0.10140  1.0000
  C   C3561     1.0  0.88804  0.70479  0.10154  1.0000
  C   C3562     1.0  0.88765  0.69801  0.09309  1.0000
  C   C3563     1.0  0.89864  0.69228  0.08625  1.0000
  C   C3564     1.0  0.91008  0.69373  0.08746  1.0000
  C   C3565     1.0  0.91055  0.70048  0.09596  1.0000
  C   C3566     1.0  0.89949  0.70585  0.10319  1.0000
  H   H5635     1.0  0.87886  0.69720  0.09178  1.0000
  H   H5636     1.0  0.89819  0.68695  0.07987  1.0000
  H   H5637     1.0  0.91943  0.70130  0.09714  1.0000
  H   H5638     1.0  0.89979  0.71103  0.10979  1.0000
  C   C3567     1.0  0.86779  0.77395  0.08354  1.0000
  C   C3568     1.0  0.86228  0.77002  0.09588  1.0000
  C   C3569     1.0  0.86312  0.77585  0.10506  1.0000
  C   C3570     1.0  0.86950  0.78566  0.10206  1.0000
  C   C3571     1.0  0.87485  0.78974  0.08969  1.0000
  C   C3572     1.0  0.87396  0.78393  0.08049  1.0000
  H   H5639     1.0  0.85735  0.76249  0.09836  1.0000
  H   H5640     1.0  0.85887  0.77267  0.11458  1.0000
  H   H5641     1.0  0.87977  0.79729  0.08722  1.0000
  H   H5642     1.0  0.87821  0.78708  0.07096  1.0000
  H   H5643     1.0  0.92228  0.87380  0.09270  1.0000
  H   H5644     1.0  0.91987  0.83289  0.14379  1.0000
  C   C3573     1.0  0.92895  0.67069  0.05028  1.0000
  N   N352      1.0  0.87287  0.90792  0.22952  1.0000
  H   H5645     1.0  0.89934  0.85117  0.16608  1.0000
  C   C3574     1.0  0.88621  0.90275  0.22555  1.0000
  H   H5646     1.0  0.88888  0.89316  0.23078  1.0000
  C   C3575     1.0  0.90778  0.84532  0.16937  1.0000
  H   H5647     1.0  0.90445  0.84127  0.14861  1.0000
  H   H5648     1.0  0.87910  0.68769  0.12263  1.0000
  H   H5649     1.0  0.86248  0.97336  0.16085  1.0000
  C   C3576     1.0  0.91281  0.83531  0.15197  1.0000
  Fe  Fe725     1.0  0.92138  0.66660  0.08385  1.0000
  N   N353      1.0  0.87019  0.95704  0.15303  1.0000
  C   C3577     1.0  0.85928  0.95840  0.14762  1.0000
  C   C3578     1.0  0.86896  0.94834  0.16510  1.0000
  H   H5650     1.0  0.87199  0.97601  0.14571  1.0000
  C   C3579     1.0  0.88158  0.95210  0.14468  1.0000
  H   H5651     1.0  0.85047  0.96188  0.15378  1.0000
  H   H5652     1.0  0.85862  0.94946  0.14581  1.0000
  H   H5653     1.0  0.85979  0.96513  0.13866  1.0000
  H   H5654     1.0  0.86037  0.95163  0.17164  1.0000
  H   H5655     1.0  0.86864  0.93895  0.16409  1.0000
  C   C3580     1.0  0.82867  0.68785  0.04824  1.0000
  H   H5656     1.0  0.99619  0.69478  0.10999  1.0000
  H   H5657     1.0  0.82465  0.68347  0.04292  1.0000
  H   H5658     1.0  0.92961  0.84995  0.14306  1.0000
  H   H5659     1.0  0.89000  0.95061  0.14857  1.0000
  H   H5660     1.0  0.88309  0.95846  0.13559  1.0000
  H   H5661     1.0  0.88112  0.94309  0.14293  1.0000
  H   H5662     1.0  0.90548  0.69560  0.04585  1.0000
  C   C3581     1.0  0.86099  0.68273  0.11447  1.0000
  C   C3582     1.0  0.85249  0.97851  0.11447  1.0000
  C   C3583     1.0  0.80855  0.69841  0.05752  1.0000
  H   H5663     1.0  0.98533  0.88832  0.08268  1.0000
  S   S1444     1.0  0.87821  0.67582  0.99519  1.0000
  C   C3584     1.0  0.86971  0.92055  0.22217  1.0000
  H   H5664     1.0  0.95792  0.91731  0.12215  1.0000
  H   H5665     1.0  0.84334  0.97859  0.11322  1.0000
  H   H5666     1.0  0.98452  0.88138  0.07060  1.0000
  H   H5667     1.0  0.92354  0.66331  0.05201  1.0000
  H   H5668     1.0  0.90437  0.67969  0.05231  1.0000
  H   H5669     1.0  0.81547  0.66707  0.03623  1.0000
  H   H5670     1.0  0.80926  0.69234  0.06674  1.0000
  H   H5671     1.0  0.86041  0.66515  0.14342  1.0000
  H   H5672     1.0  0.81410  0.71749  0.03877  1.0000
  N   N354      1.0  0.91770  0.84150  0.15908  1.0000
  C   C3585     1.0  0.86538  0.89994  0.22761  1.0000
  C   C3586     1.0  0.84817  0.68042  0.08565  1.0000
  C   C3587     1.0  0.91029  0.68659  0.05067  1.0000
  H   H5673     1.0  0.82122  0.71513  0.05812  1.0000
  C   C3588     1.0  0.93024  0.69208  0.04170  1.0000
  H   H5674     1.0  0.90216  0.85271  0.09278  1.0000
  H   H5675     1.0  0.92588  0.85738  0.15598  1.0000
  H   H5676     1.0  0.92584  0.70121  0.03670  1.0000
  H   H5677     1.0  0.88230  0.67158  0.12211  1.0000
  S   S1445     1.0  0.80795  0.66654  0.06247  1.0000
  H   H5678     1.0  0.96837  0.66470  0.10239  1.0000
  H   H5679     1.0  0.92998  0.67166  0.05939  1.0000
  H   H5680     1.0  0.85138  0.68245  0.11416  1.0000
  H   H5681     1.0  0.87159  0.66988  0.08820  1.0000
  H   H5682     1.0  0.93980  0.68939  0.03636  1.0000
  H   H5683     1.0  0.87887  0.67436  0.07236  1.0000
  H   H5684     1.0  0.90500  0.83715  0.17625  1.0000
  N   N355      1.0  0.89809  0.74640  0.09519  1.0000
  C   C3589     1.0  0.88690  0.74096  0.10039  1.0000
  C   C3590     1.0  0.89663  0.75758  0.10016  1.0000
  C   C3591     1.0  0.89975  0.74980  0.08158  1.0000
  C   C3592     1.0  0.90907  0.73722  0.09861  1.0000
  H   H5685     1.0  0.88501  0.73866  0.11066  1.0000
  H   H5686     1.0  0.88794  0.73225  0.09719  1.0000
  H   H5687     1.0  0.87851  0.74736  0.09751  1.0000
  H   H5688     1.0  0.90493  0.76190  0.09655  1.0000
  H   H5689     1.0  0.88855  0.76473  0.09755  1.0000
  H   H5690     1.0  0.89504  0.75546  0.11043  1.0000
  H   H5691     1.0  0.90806  0.75399  0.07731  1.0000
  H   H5692     1.0  0.89158  0.75667  0.07869  1.0000
  H   H5693     1.0  0.90080  0.74158  0.07753  1.0000
  H   H5694     1.0  0.91768  0.74106  0.09500  1.0000
  H   H5695     1.0  0.91053  0.72874  0.09482  1.0000
  H   H5696     1.0  0.90800  0.73427  0.10882  1.0000
  N   N356      1.0  0.85893  0.67724  0.07575  1.0000
  S   S1446     1.0  0.85180  0.66666  0.00602  1.0000
  H   H5697     1.0  0.80379  0.69395  0.05295  1.0000
  C   C3593     1.0  0.87055  0.67684  0.07955  1.0000
  C   C3594     1.0  0.85796  0.68669  0.06432  1.0000
  C   C3595     1.0  0.92181  0.68099  0.03136  1.0000
  H   H5698     1.0  0.87171  0.92047  0.21213  1.0000
  H   H5699     1.0  0.83922  0.68103  0.08303  1.0000
  H   H5700     1.0  0.85526  0.90338  0.23071  1.0000
  C   C3596     1.0  0.86614  0.98802  0.12071  1.0000
  H   H5701     1.0  0.99552  0.67893  0.11696  1.0000
  H   H5702     1.0  0.91711  0.68976  0.02605  1.0000
  H   H5703     1.0  0.99228  0.69169  0.09070  1.0000
  H   H5704     1.0  0.84844  0.67333  0.09436  1.0000
  H   H5705     1.0  0.86603  0.68462  0.05675  1.0000
  H   H5706     1.0  0.85771  0.69610  0.06570  1.0000
  H   H5707     1.0  0.84948  0.68710  0.06101  1.0000
  H   H5708     1.0  0.91072  0.68799  0.05982  1.0000
  N   N357      1.0  0.94070  0.91399  0.12035  1.0000
  C   C3597     1.0  0.93400  0.92671  0.12152  1.0000
  C   C3598     1.0  0.93230  0.90523  0.12651  1.0000
  C   C3599     1.0  0.95157  0.91069  0.12626  1.0000
  C   C3600     1.0  0.94492  0.91337  0.10714  1.0000
  H   H5709     1.0  0.93065  0.92745  0.13140  1.0000
  H   H5710     1.0  0.92568  0.92947  0.11722  1.0000
  H   H5711     1.0  0.94000  0.93360  0.11701  1.0000
  H   H5712     1.0  0.93703  0.89553  0.12584  1.0000
  N   N358      1.0  0.86291  0.67963  0.12730  1.0000
  H   H5713     1.0  0.92389  0.90754  0.12242  1.0000
  H   H5714     1.0  0.94868  0.91055  0.13636  1.0000
  H   H5715     1.0  0.91010  0.82653  0.15764  1.0000
  H   H5716     1.0  0.95703  0.90127  0.12525  1.0000
  H   H5717     1.0  0.93692  0.91556  0.10245  1.0000
  H   H5718     1.0  0.95027  0.90396  0.10592  1.0000
  H   H5719     1.0  0.95107  0.92004  0.10216  1.0000
  N   N359      1.0  0.85103  0.89436  0.17030  1.0000
  C   C3601     1.0  0.84420  0.90075  0.16030  1.0000
  C   C3602     1.0  0.85308  0.90360  0.17624  1.0000
  C   C3603     1.0  0.86315  0.88718  0.16509  1.0000
  C   C3604     1.0  0.84372  0.88589  0.17957  1.0000
  H   H5720     1.0  0.84938  0.90734  0.15321  1.0000
  H   H5721     1.0  0.83488  0.90606  0.16387  1.0000
  H   H5722     1.0  0.84288  0.89401  0.15540  1.0000
  H   H5723     1.0  0.85838  0.89904  0.18372  1.0000
  H   H5724     1.0  0.85854  0.91014  0.16946  1.0000
  H   H5725     1.0  0.84414  0.90910  0.18040  1.0000
  H   H5726     1.0  0.86200  0.88003  0.16061  1.0000
  H   H5727     1.0  0.86856  0.88225  0.17236  1.0000
  H   H5728     1.0  0.86890  0.89323  0.15798  1.0000
  H   H5729     1.0  0.84843  0.88117  0.18744  1.0000
  H   H5730     1.0  0.84253  0.87844  0.17550  1.0000
  H   H5731     1.0  0.83433  0.89087  0.18342  1.0000
  H   H5732     1.0  0.82876  0.70907  0.03180  1.0000
  H   H5733     1.0  0.85762  0.69863  0.12936  1.0000
  C   C3605     1.0  0.87613  0.67877  0.12720  1.0000
  H   H5734     1.0  0.84509  0.69040  0.13402  1.0000
  H   H5735     1.0  0.92167  0.86017  0.08786  1.0000
  C   C3606     1.0  0.87098  0.96926  0.15469  1.0000
  H   H5736     1.0  0.86743  0.67609  0.10895  1.0000
  N   N360      1.0  0.92283  0.68257  0.04349  1.0000
  H   H5737     1.0  0.86769  0.89028  0.23283  1.0000
  H   H5738     1.0  0.81478  0.70404  0.03287  1.0000
  H   H5739     1.0  0.86266  0.69216  0.10976  1.0000
  C   C3607     1.0  0.85512  0.68944  0.13388  1.0000
  H   H5740     1.0  0.87912  0.96862  0.15872  1.0000
  C   C3608     1.0  0.92206  0.85254  0.15090  1.0000
  H   H5741     1.0  0.87797  0.67630  0.13672  1.0000
  C   C3609     1.0  0.81955  0.70805  0.03785  1.0000
  N   N361      1.0  0.84222  0.82235  0.10356  1.0000
  C   C3610     1.0  0.84222  0.82082  0.11679  1.0000
  C   C3611     1.0  0.83289  0.83344  0.09981  1.0000
  C   C3612     1.0  0.83921  0.81123  0.10150  1.0000
  C   C3613     1.0  0.85462  0.82391  0.09616  1.0000
  H   H5742     1.0  0.83299  0.81969  0.12270  1.0000
  H   H5743     1.0  0.84462  0.82899  0.11865  1.0000
  H   H5744     1.0  0.84912  0.81247  0.11995  1.0000
  H   H5745     1.0  0.83264  0.83487  0.08986  1.0000
  H   H5746     1.0  0.82341  0.83266  0.10527  1.0000
  H   H5747     1.0  0.83504  0.84196  0.10121  1.0000
  H   H5748     1.0  0.82986  0.80980  0.10685  1.0000
  H   H5749     1.0  0.84604  0.80270  0.10445  1.0000
  H   H5750     1.0  0.83942  0.81189  0.09157  1.0000
  H   H5751     1.0  0.85727  0.83214  0.09761  1.0000
  H   H5752     1.0  0.85500  0.82516  0.08611  1.0000
  H   H5753     1.0  0.86186  0.81564  0.09869  1.0000
  C   C3614     1.0  0.92816  0.83282  0.16408  1.0000
  H   H5754     1.0  0.93186  0.83709  0.16976  1.0000
  H   H5755     1.0  0.92528  0.82426  0.17009  1.0000
  H   H5756     1.0  0.93595  0.82995  0.15656  1.0000
  N   N362      1.0  0.90450  0.86845  0.09849  1.0000
  C   C3615     1.0  0.90722  0.86113  0.11052  1.0000
  C   C3616     1.0  0.89741  0.88098  0.09999  1.0000
  C   C3617     1.0  0.89708  0.86221  0.09400  1.0000
  C   C3618     1.0  0.91627  0.86946  0.08946  1.0000
  H   H5757     1.0  0.91234  0.85153  0.10975  1.0000
  H   H5758     1.0  0.89852  0.86036  0.11759  1.0000
  H   H5759     1.0  0.91303  0.86541  0.11407  1.0000
  H   H5760     1.0  0.89516  0.88679  0.09111  1.0000
  H   H5761     1.0  0.88850  0.88056  0.10679  1.0000
  H   H5762     1.0  0.90276  0.88597  0.10328  1.0000
  H   H5763     1.0  0.89479  0.86748  0.08498  1.0000
  H   H5764     1.0  0.88816  0.86124  0.10062  1.0000
  H   H5765     1.0  0.82819  0.70008  0.06563  1.0000
  H   H5766     1.0  0.83613  0.70750  0.05109  1.0000
  H   H5767     1.0  0.86707  0.89941  0.21772  1.0000
  C   C3619     1.0  0.82688  0.70593  0.05649  1.0000
  H   H5768     1.0  0.82938  0.68130  0.05721  1.0000
  H   H5769     1.0  0.83821  0.68866  0.04295  1.0000
  H   H5770     1.0  0.91633  0.67381  0.03244  1.0000
  N   N363      1.0  0.82092  0.70006  0.05003  1.0000
  H   H5771     1.0  0.93111  0.67801  0.02565  1.0000
  H   H5772     1.0  0.89217  0.90842  0.22701  1.0000
  H   H5773     1.0  0.87082  0.68599  0.08117  1.0000
  H   H5774     1.0  0.87519  0.92680  0.22345  1.0000
  H   H5775     1.0  0.99159  0.86093  0.08312  1.0000
  S   S1447     1.0  0.87155  0.66165  0.02442  1.0000
  H   H5776     1.0  0.93839  0.66728  0.04508  1.0000
  S   S1448     1.0  0.79599  0.66408  0.09881  1.0000
  C   C3620     1.0  0.99085  0.88508  0.07412  1.0000
  H   H5777     1.0  0.99336  0.89332  0.06715  1.0000
  C   C3621     1.0  0.99804  0.68218  0.09242  1.0000
  H   H5778     1.0  0.99161  0.67585  0.09778  1.0000
  C   C3622     1.0  0.99808  0.86498  0.08603  1.0000
  H   H5779     1.0  0.86701  0.66239  0.06592  1.0000
  C   C3623     1.0  0.85910  0.66501  0.07342  1.0000
  H   H5780     1.0  0.85038  0.66487  0.07075  1.0000
  H   H5781     1.0  0.84954  0.66777  0.13356  1.0000
  Fe  Fe726     1.0  0.81305  0.66269  0.10601  1.0000
  H   H5782     1.0  0.76288  0.66349  0.06775  1.0000
  H   H5783     1.0  0.89540  0.66040  0.03322  1.0000
  S   S1449     1.0  0.90688  0.66032  0.07817  1.0000
  H   H5784     1.0  0.86533  0.65996  0.12910  1.0000
  C   C3624     1.0  0.82197  0.65992  0.04090  1.0000
  H   H5785     1.0  0.77590  0.65953  0.08352  1.0000
  H   H5786     1.0  0.77032  0.90795  0.32411  1.0000
  C   C3625     1.0  0.80985  0.98296  0.32265  1.0000
  H   H5787     1.0  0.68117  0.91654  0.38051  1.0000
  H   H5788     1.0  0.87140  0.90454  0.44229  1.0000
  C   C3626     1.0  0.76874  0.90119  0.31945  1.0000
  H   H5789     1.0  0.75181  0.88490  0.34424  1.0000
  H   H5790     1.0  0.76770  0.90609  0.30992  1.0000
  H   H5791     1.0  0.66770  0.83648  0.43962  1.0000
  Fe  Fe727     1.0  0.68763  0.87761  0.36078  1.0000
  S   S1450     1.0  0.70697  0.87999  0.34993  1.0000
  H   H5792     1.0  0.89910  0.87706  0.25237  1.0000
  S   S1451     1.0  0.68775  0.86348  0.37851  1.0000
  H   H5793     1.0  0.84313  0.91200  0.42881  1.0000
  S   S1452     1.0  0.89787  0.87464  0.46628  1.0000
  Fe  Fe728     1.0  0.77620  0.90836  0.35087  1.0000
  S   S1453     1.0  0.76396  0.92460  0.34128  1.0000
  S   S1454     1.0  0.78871  0.89393  0.34071  1.0000
  Fe  Fe729     1.0  0.76838  0.91735  0.37487  1.0000
  S   S1455     1.0  0.75534  0.93430  0.36727  1.0000
  S   S1456     1.0  0.77254  0.91518  0.39354  1.0000
  Fe  Fe730     1.0  0.74969  0.92123  0.35874  1.0000
  S   S1457     1.0  0.72971  0.92261  0.35745  1.0000
  Fe  Fe731     1.0  0.77092  0.93582  0.35070  1.0000
  S   S1458     1.0  0.77870  0.95279  0.34022  1.0000
  S   S1459     1.0  0.76156  0.90412  0.36778  1.0000
  S   S1460     1.0  0.78427  0.91973  0.35887  1.0000
  Fe  Fe732     1.0  0.84959  0.97837  0.35490  1.0000
  S   S1461     1.0  0.86272  0.96456  0.36580  1.0000
  Fe  Fe733     1.0  0.82233  0.98668  0.35414  1.0000
  C   C3627     1.0  0.89016  0.84353  0.46168  1.0000
  H   H5794     1.0  0.67268  0.89561  0.48453  1.0000
  H   H5795     1.0  0.78896  0.97541  0.32390  1.0000
  H   H5796     1.0  0.71015  0.89300  0.38137  1.0000
  S   S1462     1.0  0.83674  0.97078  0.34826  1.0000
  Fe  Fe734     1.0  0.85251  0.88393  0.42088  1.0000
  S   S1463     1.0  0.83296  0.89341  0.41904  1.0000
  S   S1464     1.0  0.85376  0.87618  0.44096  1.0000
  Fe  Fe735     1.0  0.86205  0.89011  0.39318  1.0000
  S   S1465     1.0  0.84347  0.90031  0.38923  1.0000
  S   S1466     1.0  0.87750  0.89010  0.37647  1.0000
  Fe  Fe736     1.0  0.84166  0.90834  0.40564  1.0000
  S   S1467     1.0  0.83229  0.92814  0.40583  1.0000
  Fe  Fe737     1.0  0.83648  0.88445  0.40285  1.0000
  S   S1468     1.0  0.82296  0.87671  0.39716  1.0000
  S   S1469     1.0  0.86099  0.89970  0.40848  1.0000
  S   S1470     1.0  0.85530  0.87346  0.40574  1.0000
  Fe  Fe738     1.0  0.87334  0.89551  0.28932  1.0000
  S   S1471     1.0  0.86483  0.91576  0.28821  1.0000
  S   S1472     1.0  0.88657  0.88737  0.27361  1.0000
  Fe  Fe739     1.0  0.86396  0.88896  0.31691  1.0000
  S   S1473     1.0  0.85444  0.90840  0.31844  1.0000
  S   S1474     1.0  0.86373  0.87356  0.33360  1.0000
  Fe  Fe740     1.0  0.84832  0.90896  0.30114  1.0000
  S   S1475     1.0  0.82889  0.91884  0.29963  1.0000
  Fe  Fe741     1.0  0.87157  0.91365  0.30558  1.0000
  S   S1476     1.0  0.88019  0.92717  0.31012  1.0000
  S   S1477     1.0  0.85615  0.88888  0.30078  1.0000
  S   S1478     1.0  0.88170  0.89408  0.30556  1.0000
  C   C3628     1.0  0.87362  0.88544  0.36464  1.0000
  C   C3629     1.0  0.86530  0.87745  0.36742  1.0000
  C   C3630     1.0  0.86252  0.87356  0.35788  1.0000
  C   C3631     1.0  0.86761  0.87809  0.34552  1.0000
  C   C3632     1.0  0.87554  0.88646  0.34274  1.0000
  C   C3633     1.0  0.87877  0.88989  0.35228  1.0000
  H   H5797     1.0  0.86130  0.87396  0.37695  1.0000
  H   H5798     1.0  0.85639  0.86708  0.36011  1.0000
  H   H5799     1.0  0.87950  0.89002  0.33323  1.0000
  H   H5800     1.0  0.88526  0.89600  0.35007  1.0000
  C   C3634     1.0  0.85295  0.96400  0.31198  1.0000
  C   C3635     1.0  0.86380  0.96141  0.31661  1.0000
  C   C3636     1.0  0.87242  0.95029  0.31552  1.0000
  C   C3637     1.0  0.86997  0.94155  0.31027  1.0000
  C   C3638     1.0  0.85904  0.94407  0.30579  1.0000
  C   C3639     1.0  0.85066  0.95539  0.30643  1.0000
  H   H5801     1.0  0.86565  0.96809  0.32081  1.0000
  H   H5802     1.0  0.88091  0.94838  0.31892  1.0000
  H   H5803     1.0  0.85708  0.93734  0.30175  1.0000
  H   H5804     1.0  0.84234  0.95734  0.30278  1.0000
  C   C3640     1.0  0.85437  0.95481  0.37753  1.0000
  C   C3641     1.0  0.86057  0.94329  0.38309  1.0000
  C   C3642     1.0  0.85381  0.93498  0.39171  1.0000
  C   C3643     1.0  0.84089  0.93838  0.39510  1.0000
  C   C3644     1.0  0.83473  0.95003  0.38980  1.0000
  C   C3645     1.0  0.84144  0.95816  0.38088  1.0000
  H   H5805     1.0  0.87058  0.94070  0.38052  1.0000
  H   H5806     1.0  0.85862  0.92602  0.39580  1.0000
  H   H5807     1.0  0.82475  0.95275  0.39247  1.0000
  H   H5808     1.0  0.83660  0.96706  0.37666  1.0000
  C   C3646     1.0  0.78546  0.95967  0.34836  1.0000
  C   C3647     1.0  0.77803  0.96848  0.35514  1.0000
  C   C3648     1.0  0.78351  0.97557  0.35986  1.0000
  C   C3649     1.0  0.79645  0.97406  0.35765  1.0000
  C   C3650     1.0  0.80391  0.96495  0.35121  1.0000
  C   C3651     1.0  0.79842  0.95781  0.34654  1.0000
  H   H5809     1.0  0.76802  0.97015  0.35639  1.0000
  H   H5810     1.0  0.75456  0.89148  0.31036  1.0000
  H   H5811     1.0  0.82193  0.98469  0.29907  1.0000
  H   H5812     1.0  0.80423  0.95107  0.34122  1.0000
  C   C3652     1.0  0.79973  0.90077  0.32900  1.0000
  C   C3653     1.0  0.81059  0.89336  0.32366  1.0000
  C   C3654     1.0  0.81971  0.89887  0.31476  1.0000
  C   C3655     1.0  0.81776  0.91177  0.31090  1.0000
  C   C3656     1.0  0.80681  0.91913  0.31610  1.0000
  C   C3657     1.0  0.79790  0.91366  0.32528  1.0000
  H   H5813     1.0  0.81204  0.88338  0.32651  1.0000
  H   H5814     1.0  0.82812  0.89314  0.31069  1.0000
  H   H5815     1.0  0.80530  0.92911  0.31317  1.0000
  H   H5816     1.0  0.78965  0.91949  0.32942  1.0000
  C   C3658     1.0  0.78605  0.90390  0.39526  1.0000
  C   C3659     1.0  0.79328  0.90448  0.40328  1.0000
  C   C3660     1.0  0.80468  0.89619  0.40387  1.0000
  C   C3661     1.0  0.80852  0.88686  0.39698  1.0000
  C   C3662     1.0  0.80093  0.88585  0.38952  1.0000
  C   C3663     1.0  0.78988  0.89457  0.38837  1.0000
  H   H5817     1.0  0.79019  0.91144  0.40890  1.0000
  H   H5818     1.0  0.81037  0.89687  0.40983  1.0000
  H   H5819     1.0  0.80370  0.87840  0.38450  1.0000
  H   H5820     1.0  0.78421  0.89394  0.38234  1.0000
  C   C3664     1.0  0.87331  0.86884  0.24960  1.0000
  C   C3665     1.0  0.86517  0.87242  0.26016  1.0000
  C   C3666     1.0  0.86917  0.87793  0.26777  1.0000
  C   C3667     1.0  0.88139  0.87970  0.26492  1.0000
  C   C3668     1.0  0.88962  0.87576  0.25459  1.0000
  H   H5821     1.0  0.85566  0.87121  0.26227  1.0000
  H   H5822     1.0  0.86272  0.88101  0.27566  1.0000
  C   C3669     1.0  0.88538  0.87606  0.45913  1.0000
  C   C3670     1.0  0.87335  0.87587  0.46605  1.0000
  C   C3671     1.0  0.86381  0.87583  0.46033  1.0000
  C   C3672     1.0  0.86611  0.87635  0.44758  1.0000
  C   C3673     1.0  0.87804  0.87692  0.44054  1.0000
  C   C3674     1.0  0.88766  0.87674  0.44633  1.0000
  H   H5823     1.0  0.87141  0.87560  0.47584  1.0000
  H   H5824     1.0  0.85457  0.87544  0.46580  1.0000
  H   H5825     1.0  0.87991  0.87727  0.43070  1.0000
  H   H5826     1.0  0.89695  0.87690  0.44091  1.0000
  C   C3675     1.0  0.71326  0.89174  0.35224  1.0000
  C   C3676     1.0  0.72450  0.88871  0.35638  1.0000
  C   C3677     1.0  0.72972  0.89806  0.35801  1.0000
  C   C3678     1.0  0.72387  0.91051  0.35520  1.0000
  C   C3679     1.0  0.71274  0.91352  0.35089  1.0000
  C   C3680     1.0  0.70747  0.90420  0.34940  1.0000
  H   H5827     1.0  0.72907  0.87909  0.35852  1.0000
  H   H5828     1.0  0.73817  0.89562  0.36155  1.0000
  H   H5829     1.0  0.70817  0.92313  0.34866  1.0000
  H   H5830     1.0  0.69893  0.90667  0.34599  1.0000
  C   C3681     1.0  0.84518  0.91986  0.43155  1.0000
  H   H5831     1.0  0.88544  0.82060  0.47115  1.0000
  H   H5832     1.0  0.81230  0.97715  0.29430  1.0000
  H   H5833     1.0  0.76431  0.87923  0.31905  1.0000
  C   C3682     1.0  0.88558  0.87042  0.24690  1.0000
  H   H5834     1.0  0.77738  0.89390  0.31876  1.0000
  H   H5835     1.0  0.89599  0.85055  0.46005  1.0000
  C   C3683     1.0  0.81553  0.97802  0.30239  1.0000
  H   H5836     1.0  0.89520  0.83676  0.45569  1.0000
  H   H5837     1.0  0.76833  0.88212  0.33857  1.0000
  H   H5838     1.0  0.73804  0.90213  0.33194  1.0000
  H   H5839     1.0  0.80206  0.96345  0.32002  1.0000
  H   H5840     1.0  0.84969  0.92561  0.42297  1.0000
  H   H5841     1.0  0.69292  0.89489  0.40723  1.0000
  H   H5842     1.0  0.87149  0.85129  0.47959  1.0000
  H   H5843     1.0  0.84636  0.93178  0.44862  1.0000
  H   H5844     1.0  0.88581  0.85407  0.48117  1.0000
  C   C3684     1.0  0.79690  0.97282  0.31637  1.0000
  C   C3685     1.0  0.67121  0.75757  0.35387  1.0000
  C   C3686     1.0  0.86518  0.90821  0.43550  1.0000
  S   S1479     1.0  0.85589  0.99017  0.33647  1.0000
  H   H5845     1.0  0.85989  0.93233  0.43644  1.0000
  H   H5846     1.0  0.88141  0.84848  0.45843  1.0000
  H   H5847     1.0  0.87593  0.91405  0.24467  1.0000
  C   C3687     1.0  0.84694  0.90744  0.45179  1.0000
  H   H5848     1.0  0.68494  0.83926  0.42120  1.0000
  H   H5849     1.0  0.69598  0.90945  0.40774  1.0000
  C   C3688     1.0  0.89954  0.83162  0.47891  1.0000
  S   S1480     1.0  0.67522  0.88087  0.40520  1.0000
  N   N364      1.0  0.89014  0.85466  0.30075  1.0000
  C   C3689     1.0  0.89668  0.86341  0.30282  1.0000
  C   C3690     1.0  0.87699  0.86065  0.30078  1.0000
  C   C3691     1.0  0.89081  0.84351  0.31074  1.0000
  C   C3692     1.0  0.89601  0.85116  0.28867  1.0000
  H   H5850     1.0  0.90661  0.85919  0.30298  1.0000
  H   H5851     1.0  0.89234  0.86643  0.31176  1.0000
  H   H5852     1.0  0.89646  0.87188  0.29535  1.0000
  H   H5853     1.0  0.87229  0.86361  0.30969  1.0000
  H   H5854     1.0  0.87618  0.86901  0.29326  1.0000
  H   H5855     1.0  0.87170  0.85433  0.29932  1.0000
  H   H5856     1.0  0.88595  0.83671  0.30947  1.0000
  H   H5857     1.0  0.88636  0.84595  0.31994  1.0000
  H   H5858     1.0  0.90060  0.83878  0.31106  1.0000
  H   H5859     1.0  0.89117  0.84475  0.28666  1.0000
  H   H5860     1.0  0.90594  0.84654  0.28830  1.0000
  H   H5861     1.0  0.89572  0.85946  0.28099  1.0000
  N   N365      1.0  0.82487  0.89354  0.35425  1.0000
  C   C3693     1.0  0.82069  0.90664  0.34855  1.0000
  C   C3694     1.0  0.82964  0.89284  0.36535  1.0000
  C   C3695     1.0  0.83483  0.88753  0.34528  1.0000
  C   C3696     1.0  0.81434  0.88709  0.35779  1.0000
  H   H5862     1.0  0.81322  0.91152  0.35509  1.0000
  H   H5863     1.0  0.81691  0.90743  0.34024  1.0000
  H   H5864     1.0  0.82848  0.91171  0.34552  1.0000
  H   H5865     1.0  0.83287  0.88305  0.36988  1.0000
  H   H5866     1.0  0.83770  0.89747  0.36305  1.0000
  H   H5867     1.0  0.82234  0.89721  0.37240  1.0000
  H   H5868     1.0  0.83170  0.88804  0.33666  1.0000
  H   H5869     1.0  0.83809  0.87755  0.34916  1.0000
  H   H5870     1.0  0.84301  0.89202  0.34257  1.0000
  H   H5871     1.0  0.81687  0.87749  0.36310  1.0000
  H   H5872     1.0  0.81131  0.88636  0.34955  1.0000
  H   H5873     1.0  0.80614  0.89209  0.36354  1.0000
  H   H5874     1.0  0.74783  0.88274  0.32485  1.0000
  C   C3697     1.0  0.75605  0.88693  0.31986  1.0000
  H   H5875     1.0  0.76063  0.89596  0.34422  1.0000
  C   C3698     1.0  0.85526  0.92613  0.44453  1.0000
  Fe  Fe742     1.0  0.67144  0.85841  0.37470  1.0000
  H   H5876     1.0  0.85978  0.93040  0.33394  1.0000
  N   N366      1.0  0.79518  0.94340  0.38923  1.0000
  C   C3699     1.0  0.79759  0.95606  0.38662  1.0000
  C   C3700     1.0  0.79339  0.94067  0.37790  1.0000
  C   C3701     1.0  0.78384  0.94246  0.39893  1.0000
  C   C3702     1.0  0.80588  0.93441  0.39349  1.0000
  H   H5877     1.0  0.78963  0.96317  0.38360  1.0000
  H   H5878     1.0  0.80594  0.95722  0.37915  1.0000
  H   H5879     1.0  0.79924  0.95834  0.39490  1.0000
  H   H5880     1.0  0.79147  0.93119  0.37961  1.0000
  H   H5881     1.0  0.78537  0.94728  0.37445  1.0000
  H   H5882     1.0  0.80174  0.94129  0.37035  1.0000
  H   H5883     1.0  0.78482  0.94445  0.40764  1.0000
  H   H5884     1.0  0.78175  0.93303  0.40111  1.0000
  H   H5885     1.0  0.77558  0.94908  0.39595  1.0000
  H   H5886     1.0  0.80472  0.92470  0.39502  1.0000
  H   H5887     1.0  0.80711  0.93583  0.40235  1.0000
  H   H5888     1.0  0.81471  0.93528  0.38667  1.0000
  N   N367      1.0  0.80501  0.98200  0.31216  1.0000
  H   H5889     1.0  0.74513  0.91133  0.31801  1.0000
  C   C3703     1.0  0.75968  0.88942  0.33890  1.0000
  H   H5890     1.0  0.86248  0.91224  0.36530  1.0000
  N   N368      1.0  0.75776  0.89587  0.32637  1.0000
  H   H5891     1.0  0.87777  0.91532  0.35875  1.0000
  C   C3704     1.0  0.69855  0.90205  0.40226  1.0000
  C   C3705     1.0  0.67793  0.84617  0.41644  1.0000
  S   S1481     1.0  0.84211  0.97788  0.31321  1.0000
  H   H5892     1.0  0.74723  0.91249  0.33270  1.0000
  C   C3706     1.0  0.74657  0.90589  0.32727  1.0000
  H   H5893     1.0  0.86756  0.92365  0.37000  1.0000
  H   H5894     1.0  0.83609  0.92559  0.43510  1.0000
  S   S1482     1.0  0.67453  0.89288  0.36949  1.0000
  H   H5895     1.0  0.85284  0.90361  0.45886  1.0000
  N   N369      1.0  0.86304  0.92929  0.35196  1.0000
  C   C3707     1.0  0.84998  0.93488  0.35663  1.0000
  C   C3708     1.0  0.87055  0.93900  0.34777  1.0000
  C   C3709     1.0  0.86370  0.92353  0.34152  1.0000
  C   C3710     1.0  0.86792  0.91973  0.36192  1.0000
  H   H5896     1.0  0.84410  0.92778  0.36012  1.0000
  H   H5897     1.0  0.84598  0.94205  0.34927  1.0000
  H   H5898     1.0  0.84921  0.93951  0.36435  1.0000
  H   H5899     1.0  0.88022  0.93537  0.34321  1.0000
  H   H5900     1.0  0.86646  0.94695  0.34109  1.0000
  H   H5901     1.0  0.87111  0.94281  0.35562  1.0000
  H   H5902     1.0  0.85853  0.91584  0.34443  1.0000
  H   H5903     1.0  0.87348  0.91956  0.33749  1.0000
  C   C3711     1.0  0.68310  0.91273  0.38997  1.0000
  N   N370      1.0  0.69640  0.90708  0.38956  1.0000
  H   H5904     1.0  0.86385  0.90012  0.43260  1.0000
  C   C3712     1.0  0.70000  0.89693  0.38266  1.0000
  S   S1483     1.0  0.66731  0.83925  0.38291  1.0000
  H   H5905     1.0  0.71407  0.91262  0.38251  1.0000
  H   H5906     1.0  0.69762  0.90020  0.37340  1.0000
  H   H5907     1.0  0.90506  0.82431  0.47371  1.0000
  H   H5908     1.0  0.69511  0.88920  0.38748  1.0000
  H   H5909     1.0  0.67835  0.75887  0.35828  1.0000
  S   S1484     1.0  0.80294  0.98346  0.36339  1.0000
  H   H5910     1.0  0.66970  0.83001  0.40868  1.0000
  H   H5911     1.0  0.67776  0.85540  0.41817  1.0000
  H   H5912     1.0  0.70848  0.89763  0.40222  1.0000
  H   H5913     1.0  0.84501  0.89939  0.44924  1.0000
  H   H5914     1.0  0.86129  0.92307  0.45149  1.0000
  C   C3713     1.0  0.70395  0.91659  0.38331  1.0000
  H   H5915     1.0  0.83790  0.91260  0.45619  1.0000
  H   H5916     1.0  0.81584  0.98998  0.31979  1.0000
  N   N371      1.0  0.85314  0.91542  0.44085  1.0000
  H   H5917     1.0  0.81388  0.96352  0.34967  1.0000
  H   H5918     1.0  0.82119  0.96888  0.30589  1.0000
  H   H5919     1.0  0.70240  0.92072  0.37376  1.0000
  H   H5920     1.0  0.87015  0.91388  0.42719  1.0000
  S   S1485     1.0  0.67245  0.87103  0.35593  1.0000
  H   H5921     1.0  0.68123  0.84661  0.40631  1.0000
  H   H5922     1.0  0.67713  0.90581  0.39457  1.0000
  H   H5923     1.0  0.68002  0.92041  0.39512  1.0000
  H   H5924     1.0  0.77767  0.98253  0.36490  1.0000
  H   H5925     1.0  0.70167  0.92430  0.38835  1.0000
  H   H5926     1.0  0.67268  0.82325  0.42393  1.0000
  H   H5927     1.0  0.86024  0.91246  0.24606  1.0000
  H   H5928     1.0  0.87218  0.89904  0.24853  1.0000
  H   H5929     1.0  0.81569  0.97402  0.32634  1.0000
  N   N372      1.0  0.88765  0.83741  0.47486  1.0000
  Fe  Fe743     1.0  0.67399  0.87834  0.38680  1.0000
  H   H5930     1.0  0.90537  0.83861  0.47742  1.0000
  H   H5931     1.0  0.80222  0.98569  0.33037  1.0000
  Fe  Fe744     1.0  0.84138  0.98410  0.33056  1.0000
  H   H5932     1.0  0.67172  0.74742  0.35532  1.0000
  H   H5933     1.0  0.79296  0.97192  0.30875  1.0000
  H   H5934     1.0  0.89196  0.86749  0.23890  1.0000
  H   H5935     1.0  0.67385  0.76116  0.34376  1.0000
  S   S1486     1.0  0.86774  0.86301  0.23963  1.0000
  C   C3714     1.0  0.87018  0.90844  0.24275  1.0000
  H   H5936     1.0  0.87133  0.83196  0.47359  1.0000
  C   C3715     1.0  0.88035  0.82784  0.47660  1.0000
  C   C3716     1.0  0.88055  0.84672  0.48233  1.0000
  Fe  Fe745     1.0  0.71467  0.92420  0.57027  1.0000
  S   S1487     1.0  0.69866  0.91620  0.58253  1.0000
  S   S1488     1.0  0.70999  0.94371  0.55997  1.0000
  Fe  Fe746     1.0  0.73357  0.90086  0.57619  1.0000
  S   S1489     1.0  0.71912  0.89071  0.58883  1.0000
  S   S1490     1.0  0.75345  0.89029  0.57362  1.0000
  Fe  Fe747     1.0  0.70763  0.89941  0.57438  1.0000
  S   S1491     1.0  0.69465  0.88883  0.57165  1.0000
  Fe  Fe748     1.0  0.71132  0.90826  0.59587  1.0000
  S   S1492     1.0  0.70454  0.90786  0.61617  1.0000
  S   S1493     1.0  0.72276  0.90799  0.56089  1.0000
  S   S1494     1.0  0.72665  0.91788  0.58443  1.0000
  H   H5937     1.0  0.75330  0.90978  0.58601  1.0000
  H   H5938     1.0  0.76770  0.91150  0.59833  1.0000
  Fe  Fe749     1.0  0.89602  0.77236  0.59401  1.0000
  S   S1495     1.0  0.88242  0.78605  0.60447  1.0000
  S   S1496     1.0  0.90203  0.75213  0.60246  1.0000
  Fe  Fe750     1.0  0.90169  0.79175  0.57113  1.0000
  S   S1497     1.0  0.88863  0.80721  0.57926  1.0000
  S   S1498     1.0  0.91323  0.79596  0.55213  1.0000
  Fe  Fe751     1.0  0.89623  0.79848  0.59635  1.0000
  S   S1499     1.0  0.89807  0.81232  0.60649  1.0000
  Fe  Fe752     1.0  0.87573  0.79396  0.58669  1.0000
  S   S1500     1.0  0.85593  0.80223  0.58526  1.0000
  S   S1501     1.0  0.91065  0.78405  0.58755  1.0000
  S   S1502     1.0  0.88805  0.77920  0.57682  1.0000
  Fe  Fe753     1.0  0.88730  0.85231  0.51033  1.0000
  S   S1503     1.0  0.89205  0.86186  0.52279  1.0000
  S   S1504     1.0  0.87931  0.83522  0.51831  1.0000
  H   H5939     1.0  0.86110  0.72697  0.61699  1.0000
  Fe  Fe754     1.0  0.90932  0.86355  0.50838  1.0000
  S   S1505     1.0  0.92686  0.85839  0.51582  1.0000
  Fe  Fe755     1.0  0.88351  0.87932  0.51121  1.0000
  S   S1506     1.0  0.87175  0.89402  0.52140  1.0000
  H   H5940     1.0  0.85208  0.70806  0.64844  1.0000
  S   S1507     1.0  0.87693  0.86963  0.50002  1.0000
  Fe  Fe756     1.0  0.91897  0.87679  0.59640  1.0000
  S   S1508     1.0  0.92059  0.86813  0.58044  1.0000
  S   S1509     1.0  0.90054  0.87906  0.60980  1.0000
  Fe  Fe757     1.0  0.94610  0.88019  0.58929  1.0000
  S   S1510     1.0  0.94959  0.87166  0.57256  1.0000
  S   S1511     1.0  0.96314  0.88693  0.59047  1.0000
  Fe  Fe758     1.0  0.93100  0.88293  0.56948  1.0000
  S   S1512     1.0  0.92583  0.89329  0.55135  1.0000
  Fe  Fe759     1.0  0.93887  0.85764  0.58504  1.0000
  S   S1513     1.0  0.94477  0.83739  0.58435  1.0000
  S   S1514     1.0  0.92807  0.89261  0.58515  1.0000
  S   S1515     1.0  0.93667  0.86509  0.60203  1.0000
  Fe  Fe760     1.0  0.80988  0.88580  0.59853  1.0000
  S   S1516     1.0  0.81439  0.86722  0.59333  1.0000
  S   S1517     1.0  0.79002  0.89534  0.60478  1.0000
  Fe  Fe761     1.0  0.83717  0.88859  0.59076  1.0000
  S   S1518     1.0  0.84357  0.87053  0.58456  1.0000
  S   S1519     1.0  0.85104  0.90035  0.58891  1.0000
  Fe  Fe762     1.0  0.82645  0.87621  0.57653  1.0000
  S   S1520     1.0  0.82639  0.87354  0.55783  1.0000
  Fe  Fe763     1.0  0.83086  0.86360  0.60203  1.0000
  S   S1521     1.0  0.83869  0.84612  0.61404  1.0000
  S   S1522     1.0  0.82105  0.89506  0.58107  1.0000
  S   S1523     1.0  0.82543  0.88138  0.60888  1.0000
  C   C3717     1.0  0.98311  0.92176  0.61234  1.0000
  H   H5941     1.0  0.92605  0.81730  0.55138  1.0000
  H   H5942     1.0  0.98683  0.89218  0.58917  1.0000
  Fe  Fe764     1.0  0.88242  0.69176  0.60491  1.0000
  S   S1524     1.0  0.88478  0.68716  0.62454  1.0000
  S   S1525     1.0  0.87648  0.71163  0.59547  1.0000
  H   H5943     1.0  0.80469  0.89249  0.56531  1.0000
  H   H5944     1.0  0.78982  0.88305  0.54507  1.0000
  C   C3718     1.0  0.87342  0.67040  0.65883  1.0000
  Fe  Fe765     1.0  0.87361  0.67284  0.62703  1.0000
  H   H5945     1.0  0.87053  0.71311  0.62375  1.0000
  Fe  Fe766     1.0  0.90101  0.67269  0.61833  1.0000
  H   H5946     1.0  0.66763  0.95476  0.54133  1.0000
  S   S1526     1.0  0.86988  0.67833  0.60785  1.0000
  S   S1527     1.0  0.89972  0.67851  0.59833  1.0000
  H   H5947     1.0  0.67112  0.94317  0.62269  1.0000
  H   H5948     1.0  0.83906  0.72746  0.63899  1.0000
  H   H5949     1.0  0.88002  0.85481  0.63378  1.0000
  H   H5950     1.0  0.88490  0.67115  0.67088  1.0000
  H   H5951     1.0  0.78863  0.89849  0.57089  1.0000
  H   H5952     1.0  0.83098  0.71838  0.63419  1.0000
  H   H5953     1.0  0.68425  0.92014  0.56155  1.0000
  H   H5954     1.0  0.67072  0.92797  0.53961  1.0000
  H   H5955     1.0  0.99117  0.94310  0.60783  1.0000
  N   N373      1.0  0.79333  0.89770  0.55165  1.0000
  C   C3719     1.0  0.67549  0.92912  0.60599  1.0000
  C   C3720     1.0  0.86534  0.84053  0.63116  1.0000
  C   C3721     1.0  0.97057  0.88739  0.60229  1.0000
  C   C3722     1.0  0.96508  0.88495  0.61485  1.0000
  C   C3723     1.0  0.97136  0.88559  0.62380  1.0000
  C   C3724     1.0  0.98324  0.88853  0.62035  1.0000
  H   H5956     1.0  0.98206  0.92755  0.60309  1.0000
  C   C3725     1.0  0.98247  0.89029  0.59886  1.0000
  H   H5957     1.0  0.95592  0.88275  0.61766  1.0000
  H   H5958     1.0  0.96694  0.88385  0.63347  1.0000
  H   H5959     1.0  0.86521  0.87001  0.61489  1.0000
  H   H5960     1.0  0.67497  0.93656  0.59757  1.0000
  C   C3726     1.0  0.88699  0.88476  0.60359  1.0000
  C   C3727     1.0  0.88454  0.87932  0.59496  1.0000
  C   C3728     1.0  0.87315  0.88353  0.59092  1.0000
  C   C3729     1.0  0.86440  0.89346  0.59522  1.0000
  C   C3730     1.0  0.86696  0.89888  0.60373  1.0000
  C   C3731     1.0  0.87804  0.89436  0.60812  1.0000
  H   H5961     1.0  0.89134  0.87175  0.59157  1.0000
  H   H5962     1.0  0.87124  0.87934  0.58430  1.0000
  H   H5963     1.0  0.86034  0.90663  0.60698  1.0000
  H   H5964     1.0  0.87980  0.89852  0.61488  1.0000
  C   C3732     1.0  0.85884  0.88864  0.53124  1.0000
  C   C3733     1.0  0.85462  0.87911  0.52889  1.0000
  C   C3734     1.0  0.84436  0.87477  0.53686  1.0000
  C   C3735     1.0  0.83859  0.87964  0.54743  1.0000
  C   C3736     1.0  0.84291  0.88903  0.54990  1.0000
  C   C3737     1.0  0.85288  0.89371  0.54168  1.0000
  H   H5965     1.0  0.85913  0.87521  0.52084  1.0000
  H   H5966     1.0  0.84105  0.86748  0.53493  1.0000
  H   H5967     1.0  0.83851  0.89282  0.55807  1.0000
  H   H5968     1.0  0.85605  0.90113  0.54351  1.0000
  C   C3738     1.0  0.92726  0.86846  0.52504  1.0000
  C   C3739     1.0  0.91974  0.88031  0.52405  1.0000
  C   C3740     1.0  0.91987  0.88809  0.53175  1.0000
  C   C3741     1.0  0.92690  0.88380  0.54098  1.0000
  C   C3742     1.0  0.93440  0.87193  0.54202  1.0000
  C   C3743     1.0  0.93485  0.86442  0.53381  1.0000
  H   H5969     1.0  0.91404  0.88358  0.51715  1.0000
  H   H5970     1.0  0.91445  0.89741  0.53056  1.0000
  H   H5971     1.0  0.94005  0.86866  0.54897  1.0000
  H   H5972     1.0  0.94094  0.85540  0.53433  1.0000
  C   C3744     1.0  0.90396  0.80655  0.54238  1.0000
  C   C3745     1.0  0.89157  0.80587  0.54371  1.0000
  C   C3746     1.0  0.88418  0.81441  0.53593  1.0000
  C   C3747     1.0  0.88897  0.82404  0.52727  1.0000
  C   C3748     1.0  0.90130  0.82488  0.52611  1.0000
  C   C3749     1.0  0.90887  0.81597  0.53346  1.0000
  H   H5973     1.0  0.88773  0.79859  0.55056  1.0000
  H   H5974     1.0  0.87469  0.81366  0.53677  1.0000
  H   H5975     1.0  0.90508  0.83228  0.51944  1.0000
  H   H5976     1.0  0.91847  0.81649  0.53234  1.0000
  C   C3750     1.0  0.85057  0.81407  0.59374  1.0000
  C   C3751     1.0  0.85740  0.81500  0.60194  1.0000
  C   C3752     1.0  0.85348  0.82465  0.60841  1.0000
  C   C3753     1.0  0.84298  0.83376  0.60633  1.0000
  C   C3754     1.0  0.83624  0.83305  0.59793  1.0000
  C   C3755     1.0  0.83989  0.82305  0.59182  1.0000
  H   H5977     1.0  0.86568  0.80824  0.60341  1.0000
  H   H5978     1.0  0.85872  0.82510  0.61490  1.0000
  H   H5979     1.0  0.82805  0.84004  0.59638  1.0000
  H   H5980     1.0  0.83456  0.82237  0.58550  1.0000
  C   C3756     1.0  0.91143  0.81875  0.60079  1.0000
  C   C3757     1.0  0.91125  0.83025  0.60320  1.0000
  C   C3758     1.0  0.92156  0.83588  0.59835  1.0000
  C   C3759     1.0  0.93221  0.82992  0.59123  1.0000
  C   C3760     1.0  0.93256  0.81823  0.58909  1.0000
  C   C3761     1.0  0.92211  0.81272  0.59374  1.0000
  H   H5981     1.0  0.90307  0.83490  0.60870  1.0000
  H   H5982     1.0  0.92126  0.84482  0.60018  1.0000
  H   H5983     1.0  0.94083  0.81355  0.58367  1.0000
  H   H5984     1.0  0.92236  0.80376  0.59198  1.0000
  C   C3762     1.0  0.89449  0.74108  0.60081  1.0000
  C   C3763     1.0  0.88502  0.74447  0.59411  1.0000
  C   C3764     1.0  0.87963  0.73534  0.59243  1.0000
  C   C3765     1.0  0.88366  0.72280  0.59745  1.0000
  C   C3766     1.0  0.89310  0.71941  0.60420  1.0000
  C   C3767     1.0  0.89849  0.72853  0.60587  1.0000
  H   H5985     1.0  0.88181  0.75412  0.59025  1.0000
  H   H5986     1.0  0.87228  0.73802  0.58725  1.0000
  H   H5987     1.0  0.89630  0.70976  0.60808  1.0000
  H   H5988     1.0  0.90585  0.72585  0.61103  1.0000
  C   C3768     1.0  0.69873  0.95222  0.56993  1.0000
  C   C3769     1.0  0.69808  0.94883  0.58270  1.0000
  C   C3770     1.0  0.67988  0.88631  0.61999  1.0000
  C   C3771     1.0  0.68038  0.96838  0.57315  1.0000
  C   C3772     1.0  0.69000  0.96213  0.56515  1.0000
  H   H5989     1.0  0.70488  0.94123  0.58643  1.0000
  C   C3773     1.0  0.68880  0.95546  0.59065  1.0000
  H   H5990     1.0  0.69055  0.96486  0.55528  1.0000
  C   C3774     1.0  0.68758  0.89391  0.55874  1.0000
  C   C3775     1.0  0.69328  0.90050  0.54755  1.0000
  C   C3776     1.0  0.68724  0.90453  0.53747  1.0000
  H   H5991     1.0  0.84418  0.69891  0.64349  1.0000
  N   N374      1.0  0.91893  0.83484  0.55703  1.0000
  C   C3777     1.0  0.89279  0.89082  0.56188  1.0000
  H   H5992     1.0  0.70237  0.90239  0.54664  1.0000
  H   H5993     1.0  0.69164  0.90965  0.52883  1.0000
  H   H5994     1.0  0.92271  0.66389  0.60135  1.0000
  H   H5995     1.0  0.84286  0.70272  0.62156  1.0000
  C   C3778     1.0  0.69334  0.89862  0.62248  1.0000
  C   C3779     1.0  0.68833  0.89676  0.63518  1.0000
  H   H5996     1.0  0.88024  0.83807  0.60936  1.0000
  H   H5997     1.0  0.91412  0.85133  0.54359  1.0000
  H   H5998     1.0  0.93816  0.83413  0.54819  1.0000
  H   H5999     1.0  0.92149  0.83782  0.53725  1.0000
  H   H6000     1.0  0.69155  0.90082  0.64107  1.0000
  H   H6001     1.0  0.90562  0.83945  0.54528  1.0000
  H   H6002     1.0  0.86516  0.84639  0.60679  1.0000
  C   C3780     1.0  0.76288  0.89154  0.58310  1.0000
  C   C3781     1.0  0.77287  0.88180  0.58552  1.0000
  C   C3782     1.0  0.78106  0.88280  0.59239  1.0000
  C   C3783     1.0  0.77934  0.89357  0.59689  1.0000
  C   C3784     1.0  0.76909  0.90315  0.59485  1.0000
  C   C3785     1.0  0.76091  0.90217  0.58791  1.0000
  H   H6003     1.0  0.77430  0.87343  0.58206  1.0000
  H   H6004     1.0  0.78869  0.87523  0.59420  1.0000
  N   N375      1.0  0.86068  0.83972  0.55917  1.0000
  C   C3786     1.0  0.86789  0.84573  0.54749  1.0000
  C   C3787     1.0  0.85953  0.82745  0.55800  1.0000
  C   C3788     1.0  0.84819  0.84752  0.56182  1.0000
  C   C3789     1.0  0.86705  0.83822  0.56939  1.0000
  H   H6005     1.0  0.86331  0.84703  0.53959  1.0000
  H   H6006     1.0  0.87736  0.84005  0.54513  1.0000
  H   H6007     1.0  0.86886  0.85507  0.54799  1.0000
  H   H6008     1.0  0.86861  0.82081  0.55746  1.0000
  H   H6009     1.0  0.85305  0.82324  0.56608  1.0000
  H   H6010     1.0  0.85594  0.82807  0.54962  1.0000
  H   H6011     1.0  0.84246  0.84337  0.57060  1.0000
  H   H6012     1.0  0.84304  0.84885  0.55435  1.0000
  H   H6013     1.0  0.84874  0.85684  0.56274  1.0000
  H   H6014     1.0  0.86196  0.83345  0.57826  1.0000
  H   H6015     1.0  0.86772  0.84733  0.57077  1.0000
  H   H6016     1.0  0.87660  0.83255  0.56761  1.0000
  N   N376      1.0  0.92230  0.74579  0.56702  1.0000
  C   C3790     1.0  0.93458  0.74912  0.56454  1.0000
  C   C3791     1.0  0.92124  0.73555  0.57792  1.0000
  C   C3792     1.0  0.92082  0.74186  0.55619  1.0000
  C   C3793     1.0  0.91249  0.75669  0.56945  1.0000
  H   H6017     1.0  0.93592  0.75206  0.57262  1.0000
  H   H6018     1.0  0.93558  0.75698  0.55649  1.0000
  H   H6019     1.0  0.94225  0.74116  0.56255  1.0000
  H   H6020     1.0  0.92203  0.73829  0.58634  1.0000
  H   H6021     1.0  0.91209  0.73277  0.57999  1.0000
  H   H6022     1.0  0.92859  0.72719  0.57653  1.0000
  H   H6023     1.0  0.92804  0.73360  0.55410  1.0000
  H   H6024     1.0  0.92155  0.74939  0.54780  1.0000
  H   H6025     1.0  0.91158  0.73938  0.55781  1.0000
  H   H6026     1.0  0.91278  0.76457  0.56135  1.0000
  H   H6027     1.0  0.91351  0.76008  0.57739  1.0000
  H   H6028     1.0  0.90308  0.75443  0.57179  1.0000
  N   N377      1.0  0.73804  0.88307  0.61976  1.0000
  C   C3794     1.0  0.73678  0.89653  0.61478  1.0000
  C   C3795     1.0  0.72565  0.87980  0.62313  1.0000
  C   C3796     1.0  0.74359  0.87977  0.63083  1.0000
  C   C3797     1.0  0.74616  0.87623  0.61030  1.0000
  H   H6029     1.0  0.74590  0.89940  0.61240  1.0000
  H   H6030     1.0  0.73040  0.90203  0.62151  1.0000
  H   H6031     1.0  0.73290  0.89929  0.60625  1.0000
  H   H6032     1.0  0.71923  0.88491  0.63015  1.0000
  H   H6033     1.0  0.72119  0.88224  0.61498  1.0000
  H   H6034     1.0  0.72620  0.86972  0.62692  1.0000
  H   H6035     1.0  0.74473  0.86966  0.63482  1.0000
  H   H6036     1.0  0.73769  0.88481  0.63814  1.0000
  H   H6037     1.0  0.75294  0.88216  0.62858  1.0000
  H   H6038     1.0  0.74257  0.87891  0.60158  1.0000
  H   H6039     1.0  0.74699  0.86605  0.61353  1.0000
  H   H6040     1.0  0.75570  0.87816  0.60793  1.0000
  S   S1528     1.0  0.66741  0.90803  0.52642  1.0000
  H   H6041     1.0  0.96887  0.94363  0.62960  1.0000
  H   H6042     1.0  0.96834  0.94401  0.61392  1.0000
  N   N378      1.0  0.88598  0.90205  0.55481  1.0000
  C   C3798     1.0  0.99202  0.93684  0.61692  1.0000
  S   S1529     1.0  0.90120  0.88189  0.49756  1.0000
  C   C3799     1.0  0.67635  0.94799  0.54281  1.0000
  H   H6043     1.0  0.87878  0.89170  0.54586  1.0000
  H   H6044     1.0  0.86066  0.69685  0.63924  1.0000
  C   C3800     1.0  0.93139  0.83697  0.55641  1.0000
  C   C3801     1.0  0.91006  0.83983  0.56737  1.0000
  H   H6045     1.0  0.93116  0.84690  0.55593  1.0000
  H   H6046     1.0  0.93516  0.83167  0.56471  1.0000
  H   H6047     1.0  0.90945  0.84996  0.56617  1.0000
  H   H6048     1.0  0.91297  0.83531  0.57630  1.0000
  H   H6049     1.0  0.97775  0.86037  0.60846  1.0000
  H   H6050     1.0  0.89798  0.82732  0.48895  1.0000
  H   H6051     1.0  0.89474  0.89274  0.57022  1.0000
  C   C3802     1.0  0.91946  0.82140  0.55902  1.0000
  C   C3803     1.0  0.83924  0.72278  0.63148  1.0000
  C   C3804     1.0  0.91483  0.84113  0.54531  1.0000
  H   H6052     1.0  0.83816  0.73009  0.62303  1.0000
  C   C3805     1.0  0.79642  0.89945  0.56282  1.0000
  H   H6053     1.0  0.89478  0.91429  0.55963  1.0000
  H   H6054     1.0  0.90060  0.83823  0.56823  1.0000
  Fe  Fe767     1.0  0.88742  0.66457  0.60317  1.0000
  S   S1530     1.0  0.90529  0.85247  0.49671  1.0000
  H   H6055     1.0  0.88895  0.84291  0.62552  1.0000
  C   C3806     1.0  0.98881  0.89079  0.60781  1.0000
  C   C3807     1.0  0.86144  0.86226  0.62164  1.0000
  C   C3808     1.0  0.88203  0.85179  0.62482  1.0000
  H   H6056     1.0  0.88655  0.85884  0.61767  1.0000
  C   C3809     1.0  0.79175  0.88482  0.55347  1.0000
  H   H6057     1.0  0.85654  0.83950  0.62932  1.0000
  C   C3810     1.0  0.87364  0.84716  0.60948  1.0000
  H   H6058     1.0  0.92250  0.81631  0.56777  1.0000
  H   H6059     1.0  0.91021  0.81944  0.55956  1.0000
  N   N379      1.0  0.97862  0.84931  0.59541  1.0000
  H   H6060     1.0  0.67668  0.88221  0.61410  1.0000
  H   H6061     1.0  0.96885  0.84835  0.61433  1.0000
  C   C3811     1.0  0.67546  0.90207  0.53863  1.0000
  H   H6062     1.0  0.85005  0.71451  0.61039  1.0000
  N   N380      1.0  0.87061  0.85044  0.62177  1.0000
  H   H6063     1.0  0.98324  0.92659  0.64047  1.0000
  H   H6064     1.0  0.68393  0.92910  0.60927  1.0000
  H   H6065     1.0  0.69296  0.89471  0.60508  1.0000
  H   H6066     1.0  0.87855  0.84249  0.49235  1.0000
  H   H6067     1.0  0.97671  0.91531  0.63696  1.0000
  C   C3812     1.0  0.89321  0.91197  0.55133  1.0000
  H   H6068     1.0  0.96342  0.86208  0.60382  1.0000
  H   H6069     1.0  0.87895  0.90742  0.53799  1.0000
  C   C3813     1.0  0.87376  0.90621  0.56249  1.0000
  C   C3814     1.0  0.98981  0.84041  0.59867  1.0000
  C   C3815     1.0  0.67597  0.89121  0.55976  1.0000
  H   H6070     1.0  0.92625  0.66283  0.66499  1.0000
  H   H6071     1.0  0.87790  0.85428  0.60223  1.0000
  H   H6072     1.0  0.87187  0.83139  0.63123  1.0000
  C   C3816     1.0  0.67981  0.96510  0.58590  1.0000
  C   C3817     1.0  0.96988  0.93774  0.62284  1.0000
  H   H6073     1.0  0.86797  0.89904  0.56514  1.0000
  H   H6074     1.0  0.88746  0.88326  0.56498  1.0000
  Fe  Fe768     1.0  0.89533  0.87069  0.48715  1.0000
  H   H6075     1.0  0.96230  0.93238  0.62621  1.0000
  N   N381      1.0  0.98222  0.92940  0.62136  1.0000
  H   H6076     1.0  0.79844  0.90880  0.56155  1.0000
  C   C3818     1.0  0.88413  0.89920  0.54357  1.0000
  H   H6077     1.0  0.80158  0.89882  0.53236  1.0000
  C   C3819     1.0  0.97189  0.85525  0.60598  1.0000
  H   H6078     1.0  0.86321  0.84254  0.64059  1.0000
  H   H6079     1.0  0.85871  0.86488  0.63083  1.0000
  H   H6080     1.0  0.97584  0.91602  0.61542  1.0000
  H   H6081     1.0  0.67504  0.88851  0.65004  1.0000
  C   C3820     1.0  0.68914  0.89336  0.61489  1.0000
  H   H6082     1.0  0.92694  0.66300  0.64909  1.0000
  H   H6083     1.0  0.67355  0.97585  0.56938  1.0000
  H   H6084     1.0  0.85941  0.70067  0.61725  1.0000
  H   H6085     1.0  0.86840  0.91477  0.55754  1.0000
  C   C3821     1.0  0.80353  0.90013  0.54096  1.0000
  C   C3822     1.0  0.85073  0.70762  0.61919  1.0000
  H   H6086     1.0  0.98773  0.86468  0.58668  1.0000
  H   H6087     1.0  0.88840  0.92058  0.54591  1.0000
  H   H6088     1.0  0.87474  0.90823  0.57121  1.0000
  H   H6089     1.0  0.85281  0.86169  0.61907  1.0000
  H   H6090     1.0  0.80022  0.87799  0.55570  1.0000
  H   H6091     1.0  0.80502  0.90974  0.53932  1.0000
  H   H6092     1.0  0.86717  0.66372  0.72147  1.0000
  S   S1531     1.0  0.85864  0.66931  0.64373  1.0000
  H   H6093     1.0  0.90254  0.90910  0.54562  1.0000
  N   N382      1.0  0.85088  0.71354  0.62924  1.0000
  H   H6094     1.0  0.89310  0.89605  0.53746  1.0000
  H   H6095     1.0  0.99220  0.91519  0.61114  1.0000
  H   H6096     1.0  0.68235  0.95297  0.54526  1.0000
  H   H6097     1.0  0.87539  0.67877  0.65242  1.0000
  C   C3823     1.0  0.85198  0.70397  0.64061  1.0000
  C   C3824     1.0  0.86158  0.71978  0.62562  1.0000
  H   H6098     1.0  0.81246  0.89373  0.54246  1.0000
  H   H6099     1.0  0.97408  0.86527  0.58135  1.0000
  H   H6100     1.0  0.77901  0.90531  0.54104  1.0000
  S   S1532     1.0  0.91812  0.66813  0.62626  1.0000
  H   H6101     1.0  0.68847  0.95296  0.60050  1.0000
  H   H6102     1.0  0.77376  0.90464  0.55731  1.0000
  H   H6103     1.0  0.78242  0.91616  0.54813  1.0000
  H   H6104     1.0  0.86206  0.72438  0.63295  1.0000
  H   H6105     1.0  0.67161  0.88595  0.56834  1.0000
  C   C3825     1.0  0.97042  0.84273  0.59246  1.0000
  H   H6106     1.0  0.78384  0.88282  0.56116  1.0000
  C   C3826     1.0  0.66989  0.89534  0.54977  1.0000
  H   H6107     1.0  0.97505  0.83825  0.58441  1.0000
  C   C3827     1.0  0.78164  0.90636  0.54940  1.0000
  C   C3828     1.0  0.67897  0.88983  0.64025  1.0000
  S   S1533     1.0  0.99048  0.88980  0.63199  1.0000
  C   C3829     1.0  0.87884  0.66605  0.66926  1.0000
  H   H6108     1.0  0.90189  0.88723  0.55622  1.0000
  H   H6109     1.0  0.69144  0.93328  0.55787  1.0000
  C   C3830     1.0  0.98383  0.92122  0.63338  1.0000
  H   H6110     1.0  0.98735  0.83313  0.60690  1.0000
  H   H6111     1.0  0.99621  0.84516  0.60085  1.0000
  N   N383      1.0  0.67383  0.93709  0.55258  1.0000
  H   H6112     1.0  0.69135  0.92589  0.54586  1.0000
  H   H6113     1.0  0.67698  0.92006  0.60327  1.0000
  S   S1534     1.0  0.66776  0.97277  0.59599  1.0000
  H   H6114     1.0  0.96185  0.84921  0.59007  1.0000
  H   H6115     1.0  0.96738  0.83542  0.60039  1.0000
  C   C3831     1.0  0.67475  0.88460  0.63265  1.0000
  C   C3832     1.0  0.98232  0.85886  0.58454  1.0000
  C   C3833     1.0  0.93095  0.66005  0.61726  1.0000
  H   H6116     1.0  0.99795  0.89301  0.60497  1.0000
  C   C3834     1.0  0.68572  0.92873  0.55456  1.0000
  H   H6117     1.0  0.99168  0.94266  0.62355  1.0000
  H   H6118     1.0  0.98803  0.85469  0.57659  1.0000
  H   H6119     1.0  0.68118  0.94527  0.53384  1.0000
  H   H6120     1.0  0.67256  0.94623  0.56728  1.0000
  H   H6121     1.0  0.85360  0.66497  0.73367  1.0000
  H   H6122     1.0  0.99507  0.83567  0.59094  1.0000
  H   H6123     1.0  0.66964  0.90910  0.49106  1.0000
  H   H6124     1.0  0.67339  0.92022  0.63028  1.0000
  H   H6125     1.0  0.99302  0.91480  0.63255  1.0000
  C   C3835     1.0  0.86528  0.66405  0.65686  1.0000
  H   H6126     1.0  0.87822  0.82316  0.48649  1.0000
  H   H6127     1.0  0.74630  0.67336  0.87379  1.0000
  C   C3836     1.0  0.89738  0.66810  0.96236  1.0000
  H   H6128     1.0  0.73349  0.67580  0.85229  1.0000
  H   H6129     1.0  0.81154  0.67095  0.83047  1.0000
  H   H6130     1.0  0.75375  0.66922  0.85907  1.0000
  C   C3837     1.0  0.72894  0.67229  0.86196  1.0000
  H   H6131     1.0  0.78985  0.67024  0.84150  1.0000
  H   H6132     1.0  0.72609  0.68013  0.86691  1.0000
  H   H6133     1.0  0.90309  0.67525  0.96041  1.0000
  C   C3838     1.0  0.79640  0.66173  0.84015  1.0000
  H   H6134     1.0  0.88943  0.67028  0.97000  1.0000
  H   H6135     1.0  0.72034  0.66951  0.86161  1.0000
  N   N384      1.0  0.73736  0.66177  0.86814  1.0000
  C   C3839     1.0  0.74861  0.66581  0.86853  1.0000
  H   H6136     1.0  0.69153  0.98804  0.83178  1.0000
  H   H6137     1.0  0.67566  0.99019  0.85140  1.0000
  H   H6138     1.0  0.89336  0.66922  0.95411  1.0000
  H   H6139     1.0  0.72785  0.66464  0.88638  1.0000
  C   C3840     1.0  0.80866  0.66213  0.83389  1.0000
  H   H6140     1.0  0.86329  0.66429  0.94679  1.0000
  S   S1535     1.0  0.86638  0.66464  0.97088  1.0000
  H   H6141     1.0  0.81712  0.66648  0.94986  1.0000
  H   H6142     1.0  0.80893  0.66014  0.94219  1.0000
  H   H6143     1.0  0.91488  0.66099  0.97614  1.0000
  H   H6144     1.0  0.92164  0.65993  0.95384  1.0000
  S   S1536     1.0  0.66744  0.66603  0.85812  1.0000
