data_image0
_chemical_formula_structural       CH4SHCH2C2H6CH2C2SC3H4C2H2CH3SHCSNFeS2FeS2FeCFeS3HCSFeS2CH2FeS2HCHC5H6C4HCH5C6H10C2H4CHC3NH2C2N2HCSH2C6HC5H3SCHSCHNH3CH4CH3FeHSHCH9S2HFeHFeSCSFeSFeHCFeNFeS3C2H2C2HCSHC6H6CH4SH2CHNC3HCSH3FeH2CH5CH2SCHFeHSNH2FeH2CFeSFeCFeSFeCS2HSHFeSHCFeHSC2H2C3HSCHSFeC6H3C2HFeH2CSHCH3CH8CNHFeS2FeSCFeSFeS3FeSHFeS2FeSFeS3CHCNH2CH7CHC6H4C6H6CH2CH2CHCSH4SH4SHNCNHCHCH3C2H4C3H4C2HCH3CH2CH2CHCNSH3S2CH3C2HSH8SC2HC2HC2HCH2CHNC2H7C2H2CHC2HNH6CH5CH7C2SH6CNHC4HCHCH2CH2CSH2FeS2FeSCFeSFeSCSFeS2FeCHFeHFeHS2H3CH3CH2CH2C3SHSH2C9H4C6H8CSHCH4CHCSHNC2HCH3CH2SCHCH2SCNC2HCH5NHCNFeSHFeS2FeCSCFeSHFeS2Fe2S2H2SH2CHC7H4C2SC2H2FeCH3CH3SHCNH4CHCH3CHCHCH3SNH2CHCHC2HFeSFeSHFeSC2S2FeSCHCFeSFeHS2C6H7CH3CHC2H2C3HNHCH5SCHC3HC2H4SCHFeSHFeS2FeSFeS3FeSH2CHFeSFeHSHC6H6NH3CHCHCHCHSC3SFeH2FeC2FeHC2H2C2HC2H2CH2SHCHCHCHC2SCHC2HCH2NHNCHCSCHC2SHC2HC2NH3NH3CSH2CHCH2CH3SH4CH4SH3CH2CH5SH2C2NCH3C2H2CH8NH3CH2CH3CH7CHCH2CNH3NCH3C3H3SH4CH2C2H2C2H2CNHSHC2HNCH3CHC2H2CHFeS2FeSHFeCFeS3FeS2FeS2FeHFeS3H2C5H5NC5H2C6H4C2SHCHC6H4NC4H16C3H2C2H2CSC2H3CH2CHNCSCH7SH2SHNC4NCH3CH2CFeSHFeS2Fe2HSHFeSHFeS2FeHFeS2HC5SH2SH2CH4C2H2CSH6CHCH2CH4CH3CHCFeSFeSCFeSFeS3FeHFeS2Fe2S2CH3C6H4SC4H2CHSH5CHSC2H7C2H2CH3SFeC3HFeH2FeCSHCHCS2FeS2FeS2FeSFeS3C2HC2H2C7H4NC2NH2NSHCH8CH3C5H3NH2CSHFeH5CH2CH5CH2CH2C2SH2C2HCHCNS2H2CH2CH5C3SCH3C2HNH3SHCH4NCHCHCH2CH3C3HCHNH2CH4NH3CH6CHCH10SCHCNHCH6CH2C2HCHC2H3C2H4SCH2CHCHCHCH4CNHNHCSH8FeS2FeHFeSH2FeS2FeSHFeSFeS3C6H4C2H3CH3CHCH4C6H3C7H3CHCHC2FeH5C2HNCH3CSHNH3CHSH2NH2S2H2C4HC2HC3HC3H2NHCH4CH3SHSC2HNHFeSHFeSFeHS2FeSHFeSFeS3HCHC3H2CHC2SHSC2H5C2HCFeHFeHSH2CH2CHCHCSCH2SH2SCHFeSHFeSFeSFeS3FeS2CH2FeHFeHS2H4C2HC6SH5C2HC2HCH2NCH2SHNHC2HC2HCH3NCH4C2H2CHFeS2FeSHFeSFeS3FeSHFeS2FeSFeS3HC2H2C3H2C6H4CH2SHCHC6NHCHC7H3CHCH2FeCHSH7NH2SH10CHSHCHCH4CH2NHC4H3CH7SCHCHCH2CH2CH3CH4CHCHNHNH2CHCHCH3C2H3CH6
_chemical_formula_sum              "C640 H1024 S256 N64 Fe128"
_cell_length_a       35.9744
_cell_length_b       73.1092
_cell_length_c       35.0217
_cell_angle_alpha    89.9276
_cell_angle_beta     90.4321
_cell_angle_gamma    89.697

_space_group_name_H-M_alt    "P 1"
_space_group_IT_number       1

loop_
  _space_group_symop_operation_xyz
  'x, y, z'

loop_
  _atom_site_type_symbol
  _atom_site_label
  _atom_site_symmetry_multiplicity
  _atom_site_fract_x
  _atom_site_fract_y
  _atom_site_fract_z
  _atom_site_occupancy
  C   C1        1.0  0.39362  0.28771  0.56562  1.0000
  H   H1        1.0  0.35260  0.31348  0.49573  1.0000
  H   H2        1.0  0.29488  0.29843  0.54440  1.0000
  H   H3        1.0  0.27922  0.32113  0.53271  1.0000
  H   H4        1.0  0.46555  0.20242  0.57097  1.0000
  S   S1        1.0  0.47549  0.11272  0.56290  1.0000
  H   H5        1.0  0.44707  0.08190  0.51702  1.0000
  C   C2        1.0  0.37097  0.29220  0.53423  1.0000
  H   H6        1.0  0.43336  0.32932  0.58017  1.0000
  H   H7        1.0  0.31262  0.27185  0.10142  1.0000
  C   C3        1.0  0.37018  0.31013  0.51990  1.0000
  C   C4        1.0  0.35498  0.32987  0.09676  1.0000
  H   H8        1.0  0.24610  0.30382  0.54364  1.0000
  H   H9        1.0  0.10566  0.09126  0.10628  1.0000
  H   H10       1.0  0.50087  0.20184  0.53501  1.0000
  H   H11       1.0  0.31368  0.09533  0.09259  1.0000
  H   H12       1.0  0.38427  0.32782  0.39155  1.0000
  H   H13       1.0  0.35414  0.24500  0.09223  1.0000
  C   C5        1.0  0.41607  0.30113  0.58218  1.0000
  H   H14       1.0  0.35386  0.28178  0.52111  1.0000
  H   H15       1.0  0.56013  0.18469  0.54780  1.0000
  C   C6        1.0  0.41594  0.31897  0.56731  1.0000
  C   C7        1.0  0.49577  0.16862  0.56624  1.0000
  S   S2        1.0  0.36039  0.08660  0.15858  1.0000
  C   C8        1.0  0.40789  0.09519  0.10130  1.0000
  C   C9        1.0  0.38544  0.27839  0.09086  1.0000
  C   C10       1.0  0.49616  0.20161  0.56638  1.0000
  H   H16       1.0  0.45154  0.32250  0.40572  1.0000
  H   H17       1.0  0.42969  0.09295  0.12228  1.0000
  H   H18       1.0  0.36990  0.08387  0.29275  1.0000
  H   H19       1.0  0.46509  0.16827  0.57018  1.0000
  C   C11       1.0  0.27407  0.30916  0.55152  1.0000
  C   C12       1.0  0.39268  0.32353  0.53647  1.0000
  H   H20       1.0  0.33109  0.32782  0.11486  1.0000
  H   H21       1.0  0.37888  0.27397  0.12047  1.0000
  C   C13       1.0  0.37065  0.09350  0.11179  1.0000
  H   H22       1.0  0.50112  0.16818  0.53502  1.0000
  H   H23       1.0  0.38487  0.29363  0.09054  1.0000
  H   H24       1.0  0.50877  0.21426  0.57846  1.0000
  S   S3        1.0  0.39221  0.26544  0.58428  1.0000
  H   H25       1.0  0.50748  0.15582  0.57870  1.0000
  C   C14       1.0  0.55296  0.18480  0.57866  1.0000
  S   S4        1.0  0.57308  0.13139  0.58528  1.0000
  N   N1        1.0  0.51226  0.18500  0.58419  1.0000
  Fe  Fe1       1.0  0.29107  0.14361  0.94630  1.0000
  S   S5        1.0  0.34402  0.15116  0.97653  1.0000
  S   S6        1.0  0.23503  0.15227  0.96767  1.0000
  Fe  Fe2       1.0  0.33089  0.12904  0.87648  1.0000
  S   S7        1.0  0.38712  0.13544  0.90045  1.0000
  S   S8        1.0  0.32110  0.11942  0.81635  1.0000
  Fe  Fe3       1.0  0.36433  0.12401  0.95497  1.0000
  C   C15       1.0  0.16386  0.14205  0.95351  1.0000
  Fe  Fe4       1.0  0.36154  0.16184  0.91941  1.0000
  S   S9        1.0  0.38848  0.18908  0.90906  1.0000
  S   S10       1.0  0.30973  0.11538  0.92938  1.0000
  S   S11       1.0  0.30711  0.15643  0.89081  1.0000
  H   H26       1.0  0.10321  0.19115  0.95854  1.0000
  C   C16       1.0  0.24665  0.32790  0.60059  1.0000
  S   S12       1.0  0.28575  0.25007  0.98119  1.0000
  Fe  Fe5       1.0  0.47344  0.10705  0.67321  1.0000
  S   S13       1.0  0.42442  0.10044  0.63606  1.0000
  S   S14       1.0  0.47367  0.10182  0.73651  1.0000
  C   C17       1.0  0.13187  0.08803  0.03605  1.0000
  H   H27       1.0  0.33559  0.31208  0.59647  1.0000
  H   H28       1.0  0.27208  0.30120  0.64708  1.0000
  Fe  Fe6       1.0  0.52022  0.11889  0.60561  1.0000
  S   S15       1.0  0.29095  0.32743  0.91503  1.0000
  S   S16       1.0  0.48402  0.13422  0.64613  1.0000
  H   H29       1.0  0.42580  0.24608  0.82401  1.0000
  C   C18       1.0  0.35181  0.10099  0.04671  1.0000
  H   H30       1.0  0.54420  0.28980  0.73515  1.0000
  C   C19       1.0  0.40546  0.15844  0.66452  1.0000
  C   C20       1.0  0.40966  0.17107  0.69421  1.0000
  C   C21       1.0  0.40685  0.18981  0.68687  1.0000
  C   C22       1.0  0.39758  0.19587  0.65006  1.0000
  C   C23       1.0  0.34320  0.24021  0.77806  1.0000
  H   H31       1.0  0.40831  0.14397  0.67028  1.0000
  H   H32       1.0  0.41619  0.16630  0.72251  1.0000
  H   H33       1.0  0.25770  0.11605  0.85986  1.0000
  H   H34       1.0  0.56593  0.17242  0.59181  1.0000
  H   H35       1.0  0.15764  0.15655  0.95297  1.0000
  H   H36       1.0  0.46154  0.18138  0.77328  1.0000
  C   C24       1.0  0.36053  0.20609  0.92971  1.0000
  C   C25       1.0  0.32689  0.20143  0.94680  1.0000
  C   C26       1.0  0.30426  0.21503  0.96274  1.0000
  C   C27       1.0  0.31474  0.23340  0.96091  1.0000
  H   H37       1.0  0.31516  0.23503  0.78558  1.0000
  C   C28       1.0  0.37156  0.22442  0.92871  1.0000
  H   H38       1.0  0.31813  0.18734  0.94792  1.0000
  H   H39       1.0  0.27835  0.21129  0.97611  1.0000
  H   H40       1.0  0.15413  0.08780  0.05838  1.0000
  H   H41       1.0  0.39801  0.22802  0.91641  1.0000
  H   H42       1.0  0.32478  0.32465  0.04454  1.0000
  C   C29       1.0  0.36271  0.11334  0.79396  1.0000
  C   C30       1.0  0.36627  0.11590  0.75457  1.0000
  C   C31       1.0  0.40026  0.11227  0.73670  1.0000
  C   C32       1.0  0.43046  0.10564  0.75801  1.0000
  C   C33       1.0  0.42654  0.10254  0.79722  1.0000
  C   C34       1.0  0.39281  0.10657  0.81528  1.0000
  H   H43       1.0  0.34312  0.12125  0.73801  1.0000
  H   H44       1.0  0.40313  0.11503  0.70665  1.0000
  H   H45       1.0  0.56060  0.29339  0.66858  1.0000
  H   H46       1.0  0.38999  0.10428  0.84564  1.0000
  H   H47       1.0  0.43932  0.18408  0.84070  1.0000
  H   H48       1.0  0.21521  0.10865  0.88079  1.0000
  H   H49       1.0  0.17121  0.14360  0.87370  1.0000
  H   H50       1.0  0.19328  0.10305  0.81354  1.0000
  H   H51       1.0  0.56469  0.12684  0.66675  1.0000
  H   H52       1.0  0.41577  0.14592  0.77531  1.0000
  C   C35       1.0  0.20002  0.13603  0.96149  1.0000
  C   C36       1.0  0.20815  0.11729  0.96168  1.0000
  H   H53       1.0  0.40012  0.14866  0.82326  1.0000
  H   H54       1.0  0.23602  0.11260  0.96830  1.0000
  H   H55       1.0  0.50437  0.17122  0.78972  1.0000
  H   H56       1.0  0.48302  0.17455  0.85640  1.0000
  C   C37       1.0  0.27065  0.29784  0.61611  1.0000
  H   H57       1.0  0.50265  0.14401  0.83336  1.0000
  C   C38       1.0  0.22977  0.12075  0.86894  1.0000
  C   C39       1.0  0.47513  0.16820  0.78142  1.0000
  C   C40       1.0  0.45446  0.17104  0.84661  1.0000
  N   N2        1.0  0.20871  0.12909  0.83699  1.0000
  H   H58       1.0  0.47595  0.15948  0.75534  1.0000
  H   H59       1.0  0.44024  0.16436  0.87103  1.0000
  C   C41       1.0  0.13154  0.31041  0.86806  1.0000
  C   C42       1.0  0.39802  0.16450  0.62737  1.0000
  N   N3        1.0  0.45500  0.15905  0.81268  1.0000
  N   N4        1.0  0.36895  0.23924  0.81111  1.0000
  H   H60       1.0  0.23408  0.13072  0.89249  1.0000
  C   C43       1.0  0.14408  0.11071  0.94455  1.0000
  S   S17       1.0  0.41789  0.20546  0.72315  1.0000
  H   H61       1.0  0.31492  0.32699  0.63099  1.0000
  H   H62       1.0  0.40142  0.16808  0.79206  1.0000
  C   C44       1.0  0.47397  0.14165  0.82240  1.0000
  C   C45       1.0  0.22755  0.14599  0.82458  1.0000
  C   C46       1.0  0.10098  0.28525  0.98779  1.0000
  C   C47       1.0  0.41642  0.15529  0.80028  1.0000
  C   C48       1.0  0.17066  0.13358  0.84977  1.0000
  C   C49       1.0  0.38219  0.33073  0.03355  1.0000
  H   H63       1.0  0.14045  0.32399  0.85711  1.0000
  C   C50       1.0  0.18013  0.10461  0.95319  1.0000
  C   C51       1.0  0.37288  0.22002  0.82378  1.0000
  C   C52       1.0  0.50417  0.18499  0.62552  1.0000
  C   C53       1.0  0.36821  0.27736  0.02419  1.0000
  C   C54       1.0  0.20703  0.11601  0.80489  1.0000
  H   H64       1.0  0.45857  0.13396  0.84469  1.0000
  H   H65       1.0  0.35368  0.23194  0.75362  1.0000
  H   H66       1.0  0.33011  0.10320  0.02561  1.0000
  S   S18       1.0  0.45972  0.23202  0.63541  1.0000
  C   C55       1.0  0.13608  0.12943  0.94447  1.0000
  H   H67       1.0  0.41781  0.23802  0.77618  1.0000
  S   S19       1.0  0.40195  0.10525  0.98833  1.0000
  C   C56       1.0  0.34851  0.23810  0.94398  1.0000
  H   H68       1.0  0.47631  0.13261  0.79695  1.0000
  N   N5        1.0  0.09146  0.30725  0.86124  1.0000
  H   H69       1.0  0.21849  0.32246  0.59374  1.0000
  H   H70       1.0  0.23549  0.11243  0.79473  1.0000
  H   H71       1.0  0.33970  0.25457  0.76780  1.0000
  C   C57       1.0  0.38921  0.10219  0.03614  1.0000
  H   H72       1.0  0.18643  0.09012  0.95324  1.0000
  H   H73       1.0  0.39686  0.27329  0.01590  1.0000
  H   H74       1.0  0.31804  0.29183  0.07222  1.0000
  H   H75       1.0  0.50228  0.30837  0.69203  1.0000
  C   C58       1.0  0.31293  0.32225  0.60087  1.0000
  H   H76       1.0  0.29993  0.27116  0.05178  1.0000
  H   H77       1.0  0.39396  0.21031  0.64442  1.0000
  H   H78       1.0  0.56931  0.25131  0.71723  1.0000
  Fe  Fe7       1.0  0.44036  0.23086  0.69595  1.0000
  H   H79       1.0  0.34882  0.27175  0.00239  1.0000
  S   S20       1.0  0.51502  0.09239  0.63693  1.0000
  H   H80       1.0  0.40359  0.26065  0.78951  1.0000
  C   C59       1.0  0.40568  0.24629  0.79974  1.0000
  H   H81       1.0  0.09967  0.29661  0.80470  1.0000
  H   H82       1.0  0.25651  0.14308  0.81517  1.0000
  H   H83       1.0  0.34900  0.26483  0.83349  1.0000
  H   H84       1.0  0.57399  0.31526  0.64991  1.0000
  H   H85       1.0  0.15589  0.12121  0.86029  1.0000
  H   H86       1.0  0.36645  0.29253  0.02230  1.0000
  H   H87       1.0  0.38915  0.24551  0.05580  1.0000
  H   H88       1.0  0.09705  0.27796  0.86401  1.0000
  H   H89       1.0  0.21259  0.15263  0.80033  1.0000
  S   S21       1.0  0.49142  0.24407  0.71991  1.0000
  S   S22       1.0  0.48129  0.27498  0.65157  1.0000
  H   H90       1.0  0.19127  0.12179  0.78018  1.0000
  Fe  Fe8       1.0  0.50828  0.24748  0.65887  1.0000
  H   H91       1.0  0.38676  0.18792  0.59164  1.0000
  Fe  Fe9       1.0  0.46023  0.27034  0.71085  1.0000
  S   S23       1.0  0.46339  0.29172  0.75668  1.0000
  C   C60       1.0  0.35409  0.25047  0.84267  1.0000
  S   S24       1.0  0.40729  0.25672  0.69251  1.0000
  Fe  Fe10      1.0  0.28960  0.27805  0.95523  1.0000
  S   S25       1.0  0.24826  0.28759  0.91138  1.0000
  Fe  Fe11      1.0  0.32873  0.31448  0.95885  1.0000
  H   H92       1.0  0.44606  0.10010  0.05537  1.0000
  C   C61       1.0  0.35144  0.32792  0.05700  1.0000
  Fe  Fe12      1.0  0.24535  0.31310  0.94650  1.0000
  N   N6        1.0  0.27608  0.31431  0.59228  1.0000
  Fe  Fe13      1.0  0.29707  0.30090  0.88358  1.0000
  S   S26       1.0  0.30081  0.29863  0.81973  1.0000
  S   S27       1.0  0.28252  0.30245  0.99313  1.0000
  S   S28       1.0  0.33896  0.28904  0.92444  1.0000
  C   C62       1.0  0.16601  0.29235  0.97736  1.0000
  C   C63       1.0  0.15701  0.31089  0.97343  1.0000
  H   H93       1.0  0.24315  0.29147  0.61026  1.0000
  H   H94       1.0  0.19448  0.28782  0.97437  1.0000
  C   C64       1.0  0.08833  0.22467  0.02410  1.0000
  C   C65       1.0  0.09212  0.30386  0.98507  1.0000
  H   H95       1.0  0.34093  0.24439  0.04276  1.0000
  C   C66       1.0  0.57498  0.30641  0.67577  1.0000
  S   S29       1.0  0.56616  0.24221  0.63738  1.0000
  H   H96       1.0  0.35728  0.25216  0.94333  1.0000
  C   C67       1.0  0.41856  0.29663  0.77321  1.0000
  C   C68       1.0  0.41295  0.30068  0.81180  1.0000
  C   C69       1.0  0.37670  0.30210  0.82614  1.0000
  C   C70       1.0  0.34614  0.29948  0.80184  1.0000
  C   C71       1.0  0.35183  0.29621  0.76297  1.0000
  C   C72       1.0  0.38798  0.29489  0.74865  1.0000
  H   H97       1.0  0.43655  0.30215  0.83088  1.0000
  H   H98       1.0  0.37247  0.30496  0.85606  1.0000
  H   H99       1.0  0.32824  0.29439  0.74404  1.0000
  H   H100      1.0  0.39216  0.29248  0.71857  1.0000
  H   H101      1.0  0.51740  0.33023  0.67498  1.0000
  H   H102      1.0  0.22937  0.15611  0.84828  1.0000
  C   C73       1.0  0.55832  0.30293  0.74205  1.0000
  H   H103      1.0  0.44978  0.09732  0.81382  1.0000
  H   H104      1.0  0.38289  0.21109  0.80021  1.0000
  H   H105      1.0  0.14905  0.29977  0.85420  1.0000
  H   H106      1.0  0.34598  0.21440  0.83392  1.0000
  S   S30       1.0  0.37889  0.32864  0.98372  1.0000
  H   H107      1.0  0.13263  0.21019  0.97027  1.0000
  H   H108      1.0  0.14511  0.26520  0.98704  1.0000
  C   C74       1.0  0.11053  0.20109  0.98151  1.0000
  H   H109      1.0  0.39307  0.21871  0.84786  1.0000
  N   N7        1.0  0.35885  0.27074  0.06280  1.0000
  C   C75       1.0  0.39304  0.18320  0.62029  1.0000
  C   C76       1.0  0.41715  0.09926  0.06349  1.0000
  C   C77       1.0  0.51898  0.32061  0.69958  1.0000
  H   H110      1.0  0.37376  0.25095  0.86726  1.0000
  C   C78       1.0  0.13804  0.27955  0.98469  1.0000
  S   S31       1.0  0.10909  0.09494  0.93386  1.0000
  H   H111      1.0  0.15362  0.13967  0.82632  1.0000
  H   H112      1.0  0.12754  0.10254  0.02725  1.0000
  H   H113      1.0  0.51549  0.19740  0.63980  1.0000
  Fe  Fe14      1.0  0.43070  0.25924  0.63357  1.0000
  H   H114      1.0  0.10877  0.13428  0.93637  1.0000
  H   H115      1.0  0.12279  0.19311  0.00566  1.0000
  C   C79       1.0  0.32071  0.27666  0.07251  1.0000
  H   H116      1.0  0.32720  0.24506  0.85331  1.0000
  H   H117      1.0  0.51652  0.17279  0.63994  1.0000
  H   H118      1.0  0.29247  0.28731  0.61040  1.0000
  H   H119      1.0  0.47369  0.18473  0.63081  1.0000
  H   H120      1.0  0.10011  0.21746  0.04947  1.0000
  C   C80       1.0  0.12014  0.31668  0.97803  1.0000
  H   H121      1.0  0.54355  0.30891  0.76697  1.0000
  H   H122      1.0  0.09132  0.32086  0.80678  1.0000
  S   S32       1.0  0.19061  0.32669  0.95889  1.0000
  C   C81       1.0  0.36094  0.25053  0.06351  1.0000
  H   H123      1.0  0.10959  0.23455  0.01394  1.0000
  Fe  Fe15      1.0  0.43836  0.12639  0.60557  1.0000
  H   H124      1.0  0.50489  0.32717  0.72430  1.0000
  S   S33       1.0  0.39875  0.14887  0.58950  1.0000
  N   N8        1.0  0.55782  0.31553  0.70899  1.0000
  H   H125      1.0  0.43334  0.29785  0.60654  1.0000
  H   H126      1.0  0.13841  0.31011  0.89902  1.0000
  Fe  Fe16      1.0  0.46654  0.08732  0.59786  1.0000
  H   H127      1.0  0.56623  0.19703  0.59185  1.0000
  H   H128      1.0  0.41447  0.27407  0.08463  1.0000
  C   C82       1.0  0.34253  0.09639  0.08449  1.0000
  Fe  Fe17      1.0  0.48616  0.38836  0.15651  1.0000
  S   S34       1.0  0.51056  0.39315  0.21459  1.0000
  Fe  Fe18      1.0  0.43804  0.35704  0.18205  1.0000
  C   C83       1.0  0.36470  0.55183  0.18353  1.0000
  Fe  Fe19      1.0  0.45244  0.38890  0.23551  1.0000
  S   S35       1.0  0.42919  0.40581  0.28339  1.0000
  Fe  Fe20      1.0  0.51464  0.36259  0.21730  1.0000
  C   C84       1.0  0.42710  0.36691  0.41998  1.0000
  S   S36       1.0  0.42734  0.38719  0.17682  1.0000
  S   S37       1.0  0.49520  0.35804  0.15721  1.0000
  H   H129      1.0  0.41595  0.56678  0.25914  1.0000
  S   S38       1.0  0.29835  0.36174  0.35856  1.0000
  H   H130      1.0  0.19815  0.44350  0.41849  1.0000
  Fe  Fe21      1.0  0.25340  0.35085  0.49121  1.0000
  S   S39       1.0  0.29080  0.36516  0.53273  1.0000
  H   H131      1.0  0.12614  0.52578  0.50796  1.0000
  C   C85       1.0  0.41969  0.33790  0.08957  1.0000
  Fe  Fe22      1.0  0.33701  0.35536  0.49533  1.0000
  H   H132      1.0  0.38725  0.55189  0.16197  1.0000
  S   S40       1.0  0.30002  0.33869  0.45730  1.0000
  C   C86       1.0  0.16282  0.56636  0.53600  1.0000
  C   C87       1.0  0.18064  0.37069  0.52860  1.0000
  H   H133      1.0  0.20981  0.37362  0.53257  1.0000
  H   H134      1.0  0.47107  0.42824  0.15674  1.0000
  C   C88       1.0  0.16911  0.35301  0.51930  1.0000
  C   C89       1.0  0.38905  0.33503  0.11307  1.0000
  C   C90       1.0  0.11670  0.38142  0.52661  1.0000
  H   H135      1.0  0.33185  0.35923  0.28470  1.0000
  S   S41       1.0  0.33640  0.38030  0.45815  1.0000
  C   C91       1.0  0.10482  0.36364  0.51829  1.0000
  H   H136      1.0  0.16386  0.39834  0.53999  1.0000
  S   S42       1.0  0.24566  0.37497  0.45261  1.0000
  Fe  Fe23      1.0  0.28637  0.38860  0.49182  1.0000
  C   C92       1.0  0.39171  0.39408  0.30346  1.0000
  C   C93       1.0  0.37941  0.39869  0.34003  1.0000
  C   C94       1.0  0.34974  0.38927  0.35644  1.0000
  C   C95       1.0  0.33292  0.37485  0.33683  1.0000
  C   C96       1.0  0.34496  0.37032  0.30010  1.0000
  C   C97       1.0  0.37430  0.37995  0.28339  1.0000
  H   H137      1.0  0.33973  0.39327  0.38412  1.0000
  H   H138      1.0  0.38332  0.37641  0.25495  1.0000
  H   H139      1.0  0.42244  0.54578  0.09644  1.0000
  C   C98       1.0  0.11859  0.56073  0.48530  1.0000
  C   C99       1.0  0.15453  0.38476  0.53266  1.0000
  H   H140      1.0  0.39299  0.40939  0.35592  1.0000
  Fe  Fe24      1.0  0.29588  0.36440  0.42239  1.0000
  H   H141      1.0  0.40662  0.37668  0.40735  1.0000
  H   H142      1.0  0.38104  0.33909  0.43697  1.0000
  C   C100      1.0  0.13107  0.34938  0.51495  1.0000
  S   S43       1.0  0.39208  0.34604  0.51920  1.0000
  H   H143      1.0  0.17235  0.45067  0.51916  1.0000
  C   C101      1.0  0.10035  0.52862  0.39524  1.0000
  H   H144      1.0  0.15939  0.52985  0.54527  1.0000
  H   H145      1.0  0.54647  0.45095  0.17431  1.0000
  H   H146      1.0  0.43191  0.55746  0.21464  1.0000
  C   C102      1.0  0.47055  0.43431  0.12854  1.0000
  H   H147      1.0  0.09516  0.56508  0.50381  1.0000
  H   H148      1.0  0.34868  0.57261  0.26872  1.0000
  H   H149      1.0  0.20505  0.45729  0.46019  1.0000
  H   H150      1.0  0.10809  0.43905  0.46759  1.0000
  H   H151      1.0  0.33753  0.54982  0.25428  1.0000
  H   H152      1.0  0.56463  0.41106  0.15658  1.0000
  H   H153      1.0  0.13039  0.44398  0.42291  1.0000
  H   H154      1.0  0.16402  0.41378  0.42494  1.0000
  C   C103      1.0  0.56451  0.44311  0.19458  1.0000
  N   N9        1.0  0.14951  0.55276  0.50794  1.0000
  H   H155      1.0  0.36572  0.35053  0.39431  1.0000
  Fe  Fe25      1.0  0.31219  0.50492  0.43789  1.0000
  S   S44       1.0  0.27629  0.49442  0.39052  1.0000
  S   S45       1.0  0.35661  0.48492  0.45582  1.0000
  Fe  Fe26      1.0  0.27330  0.54192  0.43869  1.0000
  S   S46       1.0  0.23475  0.53438  0.39051  1.0000
  C   C104      1.0  0.13334  0.51846  0.39976  1.0000
  Fe  Fe27      1.0  0.22938  0.50772  0.42166  1.0000
  S   S47       1.0  0.17698  0.49244  0.43529  1.0000
  Fe  Fe28      1.0  0.28571  0.52187  0.36412  1.0000
  S   S48       1.0  0.29986  0.52271  0.30152  1.0000
  S   S49       1.0  0.26440  0.51607  0.47180  1.0000
  S   S50       1.0  0.32475  0.53171  0.40972  1.0000
  Fe  Fe29      1.0  0.46705  0.50058  0.12147  1.0000
  S   S51       1.0  0.50677  0.48842  0.16414  1.0000
  H   H156      1.0  0.57565  0.37104  0.17320  1.0000
  Fe  Fe30      1.0  0.48119  0.53944  0.14748  1.0000
  S   S52       1.0  0.52241  0.53064  0.19208  1.0000
  S   S53       1.0  0.46872  0.56941  0.14255  1.0000
  Fe  Fe31      1.0  0.54352  0.51158  0.14712  1.0000
  S   S54       1.0  0.26977  0.41592  0.51504  1.0000
  Fe  Fe32      1.0  0.48113  0.50857  0.20443  1.0000
  S   S55       1.0  0.46687  0.50245  0.26525  1.0000
  S   S56       1.0  0.50589  0.52234  0.10106  1.0000
  S   S57       1.0  0.43809  0.51889  0.16308  1.0000
  C   C105      1.0  0.16471  0.41540  0.45650  1.0000
  H   H157      1.0  0.37707  0.37655  0.10980  1.0000
  C   C106      1.0  0.20056  0.44302  0.45015  1.0000
  N   N10       1.0  0.37356  0.56410  0.21581  1.0000
  H   H158      1.0  0.58066  0.49407  0.20685  1.0000
  H   H159      1.0  0.42374  0.45857  0.38161  1.0000
  C   C107      1.0  0.40813  0.55776  0.23484  1.0000
  H   H160      1.0  0.40500  0.40840  0.10928  1.0000
  H   H161      1.0  0.28622  0.54510  0.52365  1.0000
  H   H162      1.0  0.19507  0.42879  0.52079  1.0000
  H   H163      1.0  0.38883  0.47181  0.28470  1.0000
  H   H164      1.0  0.09850  0.53915  0.37355  1.0000
  H   H165      1.0  0.33563  0.45142  0.30069  1.0000
  H   H166      1.0  0.38739  0.44240  0.38992  1.0000
  C   C108      1.0  0.13583  0.50490  0.42790  1.0000
  H   H167      1.0  0.15666  0.52099  0.38123  1.0000
  C   C109      1.0  0.34607  0.51642  0.29205  1.0000
  C   C110      1.0  0.37373  0.51804  0.32007  1.0000
  C   C111      1.0  0.41074  0.51366  0.31171  1.0000
  C   C112      1.0  0.42034  0.50770  0.27517  1.0000
  C   C113      1.0  0.39261  0.50569  0.24727  1.0000
  C   C114      1.0  0.35558  0.51018  0.25562  1.0000
  H   H168      1.0  0.36691  0.52293  0.34809  1.0000
  H   H169      1.0  0.43201  0.51509  0.33353  1.0000
  H   H170      1.0  0.39943  0.50014  0.21964  1.0000
  H   H171      1.0  0.33419  0.50859  0.23399  1.0000
  C   C115      1.0  0.33427  0.46563  0.47436  1.0000
  C   C116      1.0  0.35021  0.44819  0.47080  1.0000
  C   C117      1.0  0.33068  0.43269  0.48316  1.0000
  C   C118      1.0  0.29582  0.43477  0.50019  1.0000
  C   C119      1.0  0.28073  0.45226  0.50505  1.0000
  C   C120      1.0  0.29959  0.46760  0.49155  1.0000
  H   H172      1.0  0.37736  0.44667  0.45818  1.0000
  H   H173      1.0  0.17301  0.57893  0.52156  1.0000
  H   H174      1.0  0.25411  0.45396  0.51879  1.0000
  H   H175      1.0  0.28747  0.48099  0.49509  1.0000
  H   H176      1.0  0.31892  0.33418  0.58213  1.0000
  H   H177      1.0  0.40504  0.54370  0.24648  1.0000
  C   C121      1.0  0.45622  0.45205  0.12326  1.0000
  H   H178      1.0  0.33857  0.55605  0.16869  1.0000
  H   H179      1.0  0.54663  0.43272  0.20856  1.0000
  C   C122      1.0  0.48464  0.42464  0.09735  1.0000
  H   H180      1.0  0.56425  0.42977  0.12346  1.0000
  H   H181      1.0  0.44561  0.45964  0.14739  1.0000
  C   C123      1.0  0.17011  0.43619  0.50972  1.0000
  H   H182      1.0  0.17157  0.53700  0.46134  1.0000
  C   C124      1.0  0.35454  0.44470  0.32179  1.0000
  S   S58       1.0  0.26742  0.57039  0.46252  1.0000
  H   H183      1.0  0.44614  0.34166  0.10190  1.0000
  H   H184      1.0  0.34314  0.48056  0.33451  1.0000
  H   H185      1.0  0.38038  0.48347  0.36833  1.0000
  H   H186      1.0  0.36119  0.53744  0.19331  1.0000
  S   S59       1.0  0.45833  0.35856  0.24285  1.0000
  H   H187      1.0  0.31619  0.56877  0.23025  1.0000
  H   H188      1.0  0.12203  0.33572  0.50773  1.0000
  H   H189      1.0  0.13916  0.40897  0.46802  1.0000
  H   H190      1.0  0.34274  0.41923  0.48003  1.0000
  S   S60       1.0  0.20275  0.33596  0.51124  1.0000
  H   H191      1.0  0.33695  0.43853  0.34440  1.0000
  N   N11       1.0  0.38143  0.45784  0.33801  1.0000
  C   C125      1.0  0.34267  0.56388  0.24343  1.0000
  N   N12       1.0  0.16727  0.43485  0.46768  1.0000
  H   H192      1.0  0.34287  0.46841  0.37920  1.0000
  C   C126      1.0  0.43586  0.57408  0.10669  1.0000
  H   H193      1.0  0.19011  0.55966  0.46552  1.0000
  C   C127      1.0  0.26371  0.57192  0.51231  1.0000
  H   H194      1.0  0.10718  0.49106  0.47329  1.0000
  H   H195      1.0  0.57417  0.45281  0.21701  1.0000
  H   H196      1.0  0.18892  0.40738  0.46765  1.0000
  C   C128      1.0  0.27420  0.55730  0.53589  1.0000
  C   C129      1.0  0.18022  0.54767  0.48218  1.0000
  H   H197      1.0  0.42101  0.45341  0.29313  1.0000
  H   H198      1.0  0.41198  0.36005  0.34593  1.0000
  H   H199      1.0  0.42637  0.47459  0.31837  1.0000
  H   H200      1.0  0.42230  0.43775  0.35448  1.0000
  C   C130      1.0  0.40475  0.44869  0.36730  1.0000
  C   C131      1.0  0.36106  0.47324  0.35567  1.0000
  C   C132      1.0  0.40545  0.46474  0.30722  1.0000
  H   H201      1.0  0.22605  0.43504  0.45737  1.0000
  H   H202      1.0  0.42104  0.36588  0.45109  1.0000
  H   H203      1.0  0.12773  0.57295  0.46891  1.0000
  H   H204      1.0  0.36897  0.43335  0.30665  1.0000
  C   C133      1.0  0.13366  0.44478  0.45447  1.0000
  C   C134      1.0  0.13652  0.53629  0.52828  1.0000
  H   H205      1.0  0.13512  0.45954  0.46210  1.0000
  C   C135      1.0  0.10532  0.50146  0.45133  1.0000
  H   H206      1.0  0.14533  0.43015  0.52378  1.0000
  H   H207      1.0  0.24990  0.34048  0.58302  1.0000
  H   H208      1.0  0.20454  0.54218  0.49839  1.0000
  C   C136      1.0  0.38740  0.34121  0.40624  1.0000
  H   H209      1.0  0.10743  0.55073  0.46432  1.0000
  H   H210      1.0  0.48140  0.34160  0.41559  1.0000
  C   C137      1.0  0.43272  0.35087  0.36002  1.0000
  H   H211      1.0  0.11343  0.53958  0.54812  1.0000
  H   H212      1.0  0.45514  0.37306  0.41695  1.0000
  C   C138      1.0  0.58194  0.42221  0.14449  1.0000
  H   H213      1.0  0.43152  0.33751  0.34490  1.0000
  C   C139      1.0  0.26971  0.55859  0.57555  1.0000
  N   N13       1.0  0.42500  0.34883  0.40123  1.0000
  S   S61       1.0  0.56650  0.35012  0.24210  1.0000
  H   H214      1.0  0.46067  0.35685  0.35500  1.0000
  H   H215      1.0  0.14041  0.57057  0.55595  1.0000
  H   H216      1.0  0.18622  0.56080  0.55355  1.0000
  S   S62       1.0  0.39259  0.33802  0.16266  1.0000
  S   S63       1.0  0.50342  0.40268  0.10297  1.0000
  C   C140      1.0  0.45263  0.33634  0.41889  1.0000
  H   H217      1.0  0.44744  0.33465  0.45009  1.0000
  H   H218      1.0  0.36296  0.41647  0.08682  1.0000
  H   H219      1.0  0.33629  0.38568  0.08663  1.0000
  C   C141      1.0  0.45517  0.45988  0.08670  1.0000
  C   C142      1.0  0.41713  0.55984  0.08832  1.0000
  H   H220      1.0  0.55853  0.56727  0.08988  1.0000
  S   S64       1.0  0.24853  0.57567  0.64124  1.0000
  H   H221      1.0  0.38811  0.40599  0.00494  1.0000
  H   H222      1.0  0.31611  0.54174  0.90920  1.0000
  H   H223      1.0  0.43816  0.38105  0.08298  1.0000
  H   H224      1.0  0.24700  0.33209  0.63111  1.0000
  H   H225      1.0  0.36112  0.36695  0.06564  1.0000
  H   H226      1.0  0.57710  0.56139  0.04401  1.0000
  H   H227      1.0  0.37671  0.55275  0.04510  1.0000
  H   H228      1.0  0.27794  0.54725  0.59371  1.0000
  S   S65       1.0  0.43845  0.48220  0.07976  1.0000
  C   C143      1.0  0.34927  0.57447  0.90631  1.0000
  C   C144      1.0  0.46850  0.44997  0.05551  1.0000
  H   H229      1.0  0.56701  0.33931  0.74374  1.0000
  C   C145      1.0  0.39080  0.41038  0.08124  1.0000
  C   C146      1.0  0.57911  0.33215  0.71865  1.0000
  H   H230      1.0  0.36821  0.38349  0.00541  1.0000
  C   C147      1.0  0.41634  0.33558  0.04996  1.0000
  C   C148      1.0  0.50421  0.56951  0.03704  1.0000
  H   H231      1.0  0.49478  0.42504  0.03681  1.0000
  C   C149      1.0  0.39137  0.56377  0.05917  1.0000
  H   H232      1.0  0.47900  0.57647  0.02517  1.0000
  H   H233      1.0  0.49616  0.56297  0.06441  1.0000
  C   C150      1.0  0.48379  0.43250  0.06093  1.0000
  H   H234      1.0  0.46790  0.45603  0.02730  1.0000
  N   N14       1.0  0.38794  0.39297  0.06000  1.0000
  C   C151      1.0  0.30426  0.55168  0.88821  1.0000
  C   C152      1.0  0.36457  0.38001  0.08148  1.0000
  H   H235      1.0  0.51199  0.55831  0.01713  1.0000
  H   H236      1.0  0.42466  0.37254  0.03695  1.0000
  H   H237      1.0  0.40716  0.42070  0.06521  1.0000
  H   H238      1.0  0.36462  0.57290  0.87901  1.0000
  H   H239      1.0  0.32620  0.57900  0.63272  1.0000
  H   H240      1.0  0.36229  0.56533  0.92814  1.0000
  H   H241      1.0  0.34266  0.40250  0.02469  1.0000
  C   C153      1.0  0.37096  0.39642  0.02208  1.0000
  C   C154      1.0  0.25419  0.57437  0.59165  1.0000
  H   H242      1.0  0.31841  0.54936  0.86044  1.0000
  H   H243      1.0  0.27433  0.54837  0.88415  1.0000
  C   C155      1.0  0.42545  0.38502  0.05505  1.0000
  H   H244      1.0  0.30192  0.56402  0.96077  1.0000
  C   C156      1.0  0.29012  0.57322  0.93832  1.0000
  C   C157      1.0  0.56666  0.57295  0.06162  1.0000
  H   H245      1.0  0.44469  0.39488  0.04131  1.0000
  N   N15       1.0  0.30918  0.57071  0.90141  1.0000
  H   H246      1.0  0.57938  0.34198  0.69436  1.0000
  H   H247      1.0  0.44028  0.33763  0.03193  1.0000
  H   H248      1.0  0.25982  0.57048  0.93585  1.0000
  H   H249      1.0  0.11319  0.33104  0.97538  1.0000
  H   H250      1.0  0.37125  0.58011  0.65460  1.0000
  H   H251      1.0  0.55691  0.57868  0.98612  1.0000
  C   C158      1.0  0.25384  0.82952  0.10197  1.0000
  H   H252      1.0  0.18574  0.82160  0.45798  1.0000
  H   H253      1.0  0.22155  0.82605  0.49254  1.0000
  H   H254      1.0  0.38508  0.59260  0.22500  1.0000
  H   H255      1.0  0.30200  0.73038  0.11710  1.0000
  H   H256      1.0  0.23206  0.60132  0.58033  1.0000
  C   C159      1.0  0.27842  0.81148  0.57724  1.0000
  H   H257      1.0  0.23099  0.77987  0.41857  1.0000
  H   H258      1.0  0.44366  0.60326  0.10979  1.0000
  H   H259      1.0  0.24114  0.59926  0.51036  1.0000
  H   H260      1.0  0.27509  0.74918  0.09815  1.0000
  H   H261      1.0  0.55041  0.82920  0.54348  1.0000
  H   H262      1.0  0.33276  0.76772  0.09081  1.0000
  H   H263      1.0  0.28523  0.80817  0.44708  1.0000
  C   C160      1.0  0.29157  0.73681  0.09024  1.0000
  C   C161      1.0  0.22122  0.79424  0.42193  1.0000
  S   S66       1.0  0.36074  0.82381  0.46425  1.0000
  H   H264      1.0  0.35904  0.74893  0.11091  1.0000
  H   H265      1.0  0.23095  0.82030  0.10706  1.0000
  H   H266      1.0  0.40224  0.58358  0.18086  1.0000
  H   H267      1.0  0.35349  0.58801  0.18611  1.0000
  H   H268      1.0  0.19094  0.79467  0.41520  1.0000
  H   H269      1.0  0.17848  0.79073  0.48520  1.0000
  C   C162      1.0  0.25117  0.82451  0.56833  1.0000
  N   N16       1.0  0.22896  0.80116  0.46081  1.0000
  H   H270      1.0  0.23058  0.82927  0.44267  1.0000
  C   C163      1.0  0.20918  0.78984  0.48910  1.0000
  C   C164      1.0  0.37877  0.58292  0.20136  1.0000
  C   C165      1.0  0.24913  0.58789  0.52854  1.0000
  C   C166      1.0  0.21612  0.82035  0.46362  1.0000
  H   H271      1.0  0.27997  0.78590  0.46777  1.0000
  C   C167      1.0  0.42923  0.59220  0.09561  1.0000
  H   H272      1.0  0.51392  0.59300  0.09566  1.0000
  C   C168      1.0  0.21377  0.82103  0.57655  1.0000
  H   H273      1.0  0.23558  0.80262  0.39995  1.0000
  H   H274      1.0  0.27650  0.80590  0.49710  1.0000
  C   C169      1.0  0.24391  0.58904  0.56812  1.0000
  H   H275      1.0  0.21745  0.77519  0.48715  1.0000
  H   H276      1.0  0.21549  0.79435  0.51872  1.0000
  C   C170      1.0  0.26939  0.80022  0.46853  1.0000
  S   S67       1.0  0.32518  0.81525  0.56612  1.0000
  H   H277      1.0  0.29634  0.59795  0.88181  1.0000
  H   H278      1.0  0.48602  0.78384  0.07290  1.0000
  Fe  Fe33      1.0  0.34372  0.65152  0.95726  1.0000
  S   S68       1.0  0.38930  0.65384  0.91406  1.0000
  S   S69       1.0  0.30234  0.67428  0.96503  1.0000
  Fe  Fe34      1.0  0.36707  0.61314  0.98138  1.0000
  S   S70       1.0  0.41530  0.61253  0.94151  1.0000
  C   C171      1.0  0.51467  0.62767  0.93287  1.0000
  Fe  Fe35      1.0  0.42473  0.64144  0.96040  1.0000
  S   S71       1.0  0.47979  0.65342  0.97732  1.0000
  Fe  Fe36      1.0  0.37522  0.62484  0.89943  1.0000
  S   S72       1.0  0.36856  0.61232  0.84124  1.0000
  C   C172      1.0  0.55311  0.64405  0.97823  1.0000
  S   S73       1.0  0.32617  0.62371  0.93824  1.0000
  Fe  Fe37      1.0  0.17746  0.63551  0.63952  1.0000
  S   S74       1.0  0.14585  0.63696  0.69416  1.0000
  S   S75       1.0  0.17714  0.65924  0.59882  1.0000
  Fe  Fe38      1.0  0.21123  0.59873  0.65919  1.0000
  C   C173      1.0  0.28560  0.81971  0.74610  1.0000
  H   H279      1.0  0.49732  0.75581  0.01810  1.0000
  Fe  Fe39      1.0  0.13329  0.60747  0.68348  1.0000
  H   H280      1.0  0.46487  0.73107  0.93183  1.0000
  Fe  Fe40      1.0  0.19814  0.62659  0.72122  1.0000
  H   H281      1.0  0.31893  0.61911  0.69726  1.0000
  S   S76       1.0  0.16025  0.60679  0.62595  1.0000
  S   S77       1.0  0.23132  0.62745  0.66753  1.0000
  H   H282      1.0  0.21341  0.67043  0.71669  1.0000
  H   H283      1.0  0.39959  0.61009  0.05692  1.0000
  H   H284      1.0  0.21048  0.81647  0.97027  1.0000
  C   C174      1.0  0.54547  0.61698  0.92240  1.0000
  H   H285      1.0  0.54892  0.76653  0.97540  1.0000
  H   H286      1.0  0.54234  0.60637  0.90112  1.0000
  H   H287      1.0  0.10129  0.61941  0.75229  1.0000
  C   C175      1.0  0.51834  0.64096  0.96135  1.0000
  H   H288      1.0  0.49859  0.60526  0.05383  1.0000
  H   H289      1.0  0.48810  0.62558  0.91904  1.0000
  C   C176      1.0  0.32747  0.62096  0.82085  1.0000
  H   H290      1.0  0.54877  0.76009  0.92612  1.0000
  H   H291      1.0  0.52524  0.82216  0.96359  1.0000
  C   C177      1.0  0.25924  0.63341  0.79138  1.0000
  C   C178      1.0  0.27529  0.64202  0.82304  1.0000
  C   C179      1.0  0.30936  0.63580  0.83775  1.0000
  S   S78       1.0  0.35387  0.58657  0.01034  1.0000
  H   H292      1.0  0.30730  0.58211  0.84476  1.0000
  S   S79       1.0  0.12222  0.75590  0.74535  1.0000
  H   H293      1.0  0.32153  0.64256  0.86223  1.0000
  H   H294      1.0  0.55612  0.65446  0.99997  1.0000
  C   C180      1.0  0.26832  0.79513  0.59520  1.0000
  C   C181      1.0  0.31161  0.61240  0.78894  1.0000
  C   C182      1.0  0.15743  0.68623  0.75509  1.0000
  C   C183      1.0  0.36647  0.72746  0.95408  1.0000
  C   C184      1.0  0.32785  0.72759  0.94913  1.0000
  C   C185      1.0  0.30783  0.71125  0.95291  1.0000
  C   C186      1.0  0.32662  0.69484  0.96103  1.0000
  C   C187      1.0  0.36518  0.69482  0.96590  1.0000
  C   C188      1.0  0.38508  0.71107  0.96228  1.0000
  H   H295      1.0  0.35395  0.58870  0.91607  1.0000
  H   H296      1.0  0.27799  0.71121  0.94877  1.0000
  H   H297      1.0  0.37977  0.68226  0.97277  1.0000
  H   H298      1.0  0.41493  0.71091  0.96627  1.0000
  C   C189      1.0  0.10715  0.70434  0.65221  1.0000
  C   C190      1.0  0.09693  0.68604  0.65632  1.0000
  C   C191      1.0  0.11739  0.67225  0.63825  1.0000
  C   C192      1.0  0.14849  0.67667  0.61652  1.0000
  C   C193      1.0  0.15802  0.69504  0.61127  1.0000
  C   C194      1.0  0.13739  0.70889  0.62924  1.0000
  H   H299      1.0  0.28712  0.78505  0.72222  1.0000
  H   H300      1.0  0.10900  0.65817  0.64091  1.0000
  H   H301      1.0  0.18190  0.69852  0.59418  1.0000
  H   H302      1.0  0.14489  0.72304  0.62525  1.0000
  H   H303      1.0  0.23333  0.69125  0.69898  1.0000
  H   H304      1.0  0.16350  0.71515  0.70867  1.0000
  H   H305      1.0  0.16221  0.67167  0.76338  1.0000
  H   H306      1.0  0.17417  0.72225  0.75656  1.0000
  C   C195      1.0  0.34345  0.72488  0.05435  1.0000
  S   S80       1.0  0.38000  0.64097  0.00482  1.0000
  H   H307      1.0  0.33895  0.80545  0.70139  1.0000
  C   C196      1.0  0.57977  0.61951  0.94068  1.0000
  H   H308      1.0  0.20935  0.70185  0.79989  1.0000
  H   H309      1.0  0.57098  0.80163  0.99592  1.0000
  H   H310      1.0  0.26474  0.61182  0.75001  1.0000
  H   H311      1.0  0.26129  0.65345  0.83642  1.0000
  C   C197      1.0  0.21978  0.69448  0.77428  1.0000
  H   H312      1.0  0.18698  0.68491  0.68530  1.0000
  C   C198      1.0  0.20722  0.68498  0.70945  1.0000
  S   S81       1.0  0.21642  0.64131  0.77390  1.0000
  H   H313      1.0  0.32534  0.60072  0.77632  1.0000
  N   N17       1.0  0.19229  0.69497  0.74269  1.0000
  C   C199      1.0  0.18469  0.71420  0.73190  1.0000
  C   C200      1.0  0.20365  0.80465  0.59431  1.0000
  H   H314      1.0  0.13612  0.68638  0.73185  1.0000
  C   C201      1.0  0.53127  0.79107  0.03605  1.0000
  H   H315      1.0  0.24637  0.70104  0.76591  1.0000
  H   H316      1.0  0.22629  0.68017  0.78317  1.0000
  H   H317      1.0  0.32986  0.75379  0.00956  1.0000
  C   C202      1.0  0.27740  0.61861  0.77419  1.0000
  H   H318      1.0  0.14532  0.69339  0.78015  1.0000
  H   H319      1.0  0.21026  0.72116  0.72177  1.0000
  S   S82       1.0  0.39248  0.74755  0.95243  1.0000
  C   C203      1.0  0.26811  0.79434  0.70600  1.0000
  H   H320      1.0  0.51402  0.77567  0.94387  1.0000
  C   C204      1.0  0.54686  0.58970  0.00539  1.0000
  H   H321      1.0  0.36733  0.72812  0.03549  1.0000
  H   H322      1.0  0.30443  0.81057  0.76296  1.0000
  S   S83       1.0  0.56118  0.77450  0.05592  1.0000
  C   C205      1.0  0.48127  0.75264  0.99166  1.0000
  N   N18       1.0  0.28154  0.81341  0.70619  1.0000
  C   C206      1.0  0.53052  0.76313  0.95082  1.0000
  C   C207      1.0  0.29314  0.58344  0.87279  1.0000
  H   H323      1.0  0.54522  0.60804  0.07134  1.0000
  C   C208      1.0  0.25443  0.82526  0.68587  1.0000
  H   H324      1.0  0.31350  0.74020  0.94208  1.0000
  H   H325      1.0  0.22317  0.77895  0.61710  1.0000
  H   H326      1.0  0.25642  0.82029  0.98818  1.0000
  H   H327      1.0  0.24028  0.79329  0.71937  1.0000
  H   H328      1.0  0.28936  0.78497  0.60195  1.0000
  N   N19       1.0  0.53511  0.58248  0.04277  1.0000
  H   H329      1.0  0.54630  0.73481  0.99742  1.0000
  C   C209      1.0  0.22715  0.82509  0.99014  1.0000
  N   N20       1.0  0.50617  0.74754  0.95998  1.0000
  Fe  Fe41      1.0  0.10093  0.78324  0.72621  1.0000
  S   S84       1.0  0.08765  0.77399  0.66678  1.0000
  H   H330      1.0  0.22641  0.82461  0.69915  1.0000
  Fe  Fe42      1.0  0.17762  0.76571  0.72579  1.0000
  S   S85       1.0  0.17094  0.75496  0.66612  1.0000
  S   S86       1.0  0.22949  0.75809  0.75854  1.0000
  Fe  Fe43      1.0  0.14600  0.78259  0.65378  1.0000
  C   C210      1.0  0.52920  0.73163  0.97159  1.0000
  S   S87       1.0  0.15742  0.79409  0.71205  1.0000
  C   C211      1.0  0.54260  0.80224  0.00582  1.0000
  Fe  Fe44      1.0  0.39197  0.81263  0.96934  1.0000
  S   S88       1.0  0.37873  0.78964  0.00904  1.0000
  H   H331      1.0  0.54862  0.72748  0.94855  1.0000
  Fe  Fe45      1.0  0.32114  0.80688  0.92284  1.0000
  S   S89       1.0  0.30326  0.78299  0.95825  1.0000
  S   S90       1.0  0.28112  0.81751  0.87840  1.0000
  Fe  Fe46      1.0  0.32070  0.80050  0.00771  1.0000
  Fe  Fe47      1.0  0.36329  0.77458  0.95585  1.0000
  S   S91       1.0  0.15665  0.80014  0.60230  1.0000
  S   S92       1.0  0.37981  0.79693  0.91576  1.0000
  H   H332      1.0  0.46164  0.74141  0.99848  1.0000
  H   H333      1.0  0.26553  0.78887  0.67654  1.0000
  S   S93       1.0  0.33490  0.82508  0.97253  1.0000
  H   H334      1.0  0.31576  0.80965  0.65659  1.0000
  H   H335      1.0  0.36456  0.58749  0.60592  1.0000
  C   C212      1.0  0.52266  0.59786  0.06699  1.0000
  H   H336      1.0  0.50148  0.73892  0.90139  1.0000
  C   C213      1.0  0.51674  0.81386  0.98756  1.0000
  C   C214      1.0  0.24226  0.77398  0.79391  1.0000
  C   C215      1.0  0.27537  0.77141  0.81460  1.0000
  C   C216      1.0  0.28701  0.78451  0.84138  1.0000
  C   C217      1.0  0.26582  0.80036  0.84705  1.0000
  C   C218      1.0  0.23251  0.80283  0.82671  1.0000
  C   C219      1.0  0.22058  0.78958  0.80043  1.0000
  H   H337      1.0  0.29218  0.75932  0.80979  1.0000
  H   H338      1.0  0.31274  0.78251  0.85709  1.0000
  H   H339      1.0  0.21584  0.81497  0.83131  1.0000
  H   H340      1.0  0.19464  0.79150  0.78523  1.0000
  C   C220      1.0  0.46903  0.80385  0.03101  1.0000
  C   C221      1.0  0.47965  0.81433  0.99955  1.0000
  S   S94       1.0  0.44643  0.82742  0.97433  1.0000
  C   C222      1.0  0.49467  0.79218  0.04906  1.0000
  C   C223      1.0  0.48369  0.74278  0.92595  1.0000
  H   H341      1.0  0.34453  0.59850  0.70767  1.0000
  H   H342      1.0  0.46423  0.76497  0.98439  1.0000
  Fe  Fe48      1.0  0.11337  0.74744  0.68468  1.0000
  C   C224      1.0  0.31787  0.61522  0.62099  1.0000
  H   H343      1.0  0.46569  0.75448  0.91682  1.0000
  H   H344      1.0  0.37146  0.75829  0.06537  1.0000
  H   H345      1.0  0.51165  0.71958  0.97855  1.0000
  C   C225      1.0  0.58379  0.63332  0.96796  1.0000
  H   H346      1.0  0.56990  0.59965  0.00870  1.0000
  H   H347      1.0  0.32883  0.82849  0.68629  1.0000
  H   H348      1.0  0.29962  0.59728  0.68532  1.0000
  S   S95       1.0  0.18288  0.59704  0.71596  1.0000
  H   H349      1.0  0.31139  0.62950  0.62981  1.0000
  C   C226      1.0  0.23096  0.79173  0.60387  1.0000
  N   N21       1.0  0.34351  0.60613  0.64829  1.0000
  H   H350      1.0  0.21784  0.82223  0.01981  1.0000
  H   H351      1.0  0.52361  0.59698  0.99053  1.0000
  H   H352      1.0  0.28801  0.74074  0.01415  1.0000
  H   H353      1.0  0.25105  0.82106  0.65555  1.0000
  C   C227      1.0  0.40437  0.59608  0.06566  1.0000
  H   H354      1.0  0.29336  0.58743  0.94917  1.0000
  C   C228      1.0  0.31788  0.81428  0.68685  1.0000
  H   H355      1.0  0.37300  0.63086  0.66134  1.0000
  H   H356      1.0  0.25835  0.81988  0.76092  1.0000
  H   H357      1.0  0.29142  0.76289  0.03604  1.0000
  C   C229      1.0  0.30720  0.75013  0.02956  1.0000
  H   H358      1.0  0.44117  0.80499  0.04187  1.0000
  C   C230      1.0  0.32594  0.60523  0.68629  1.0000
  H   H359      1.0  0.32566  0.71493  0.03858  1.0000
  C   C231      1.0  0.37835  0.61668  0.65109  1.0000
  H   H360      1.0  0.39835  0.61018  0.67148  1.0000
  H   H361      1.0  0.29101  0.60784  0.61903  1.0000
  H   H362      1.0  0.57352  0.82659  0.60997  1.0000
  S   S96       1.0  0.28415  0.80177  0.05950  1.0000
  N   N22       1.0  0.32245  0.74160  0.06457  1.0000
  H   H363      1.0  0.26295  0.58104  0.86810  1.0000
  H   H364      1.0  0.27219  0.72696  0.07634  1.0000
  C   C232      1.0  0.35186  0.58739  0.63481  1.0000
  H   H365      1.0  0.39228  0.61768  0.62288  1.0000
  C   C233      1.0  0.38522  0.58188  0.04759  1.0000
  H   H366      1.0  0.32960  0.61566  0.59168  1.0000
  C   C234      1.0  0.34752  0.75468  0.08387  1.0000
  C   C235      1.0  0.28408  0.82371  0.07997  1.0000
  H   H367      1.0  0.35480  0.71780  0.08007  1.0000
  Fe  Fe49      1.0  0.19882  0.89769  0.23740  1.0000
  S   S97       1.0  0.21282  0.89981  0.29998  1.0000
  Fe  Fe50      1.0  0.14867  0.88639  0.17142  1.0000
  S   S98       1.0  0.18061  0.90268  0.12872  1.0000
  H   H368      1.0  0.53220  0.85421  0.43020  1.0000
  Fe  Fe51      1.0  0.23069  0.89132  0.15898  1.0000
  S   S99       1.0  0.28204  0.88178  0.12830  1.0000
  C   C236      1.0  0.53346  0.04332  0.45131  1.0000
  C   C237      1.0  0.09694  0.05213  0.23779  1.0000
  S   S100      1.0  0.19900  0.87316  0.19865  1.0000
  S   S101      1.0  0.14519  0.90901  0.21419  1.0000
  Fe  Fe52      1.0  0.33421  0.87365  0.48691  1.0000
  S   S102      1.0  0.35885  0.86573  0.43072  1.0000
  C   C238      1.0  0.36654  0.07097  0.27629  1.0000
  H   H369      1.0  0.52821  0.95166  0.37570  1.0000
  C   C239      1.0  0.17482  0.01817  0.27276  1.0000
  Fe  Fe53      1.0  0.39743  0.84850  0.46631  1.0000
  S   S103      1.0  0.45725  0.84590  0.44887  1.0000
  Fe  Fe54      1.0  0.32005  0.84198  0.43361  1.0000
  H   H370      1.0  0.15517  0.01655  0.19872  1.0000
  S   S104      1.0  0.37596  0.85829  0.52276  1.0000
  S   S105      1.0  0.29171  0.85132  0.48689  1.0000
  C   C240      1.0  0.23030  0.88039  0.32356  1.0000
  C   C241      1.0  0.22990  0.86314  0.30638  1.0000
  C   C242      1.0  0.24655  0.84813  0.32505  1.0000
  C   C243      1.0  0.26393  0.85047  0.36065  1.0000
  C   C244      1.0  0.26328  0.86761  0.37826  1.0000
  C   C245      1.0  0.24619  0.88249  0.35986  1.0000
  H   H371      1.0  0.21659  0.86137  0.27889  1.0000
  H   H372      1.0  0.33998  0.95435  0.37892  1.0000
  H   H373      1.0  0.27592  0.86942  0.40610  1.0000
  H   H374      1.0  0.24553  0.89571  0.37368  1.0000
  H   H375      1.0  0.51507  0.91437  0.44601  1.0000
  H   H376      1.0  0.58645  0.95014  0.43834  1.0000
  H   H377      1.0  0.28148  0.88226  0.25680  1.0000
  C   C246      1.0  0.52385  0.86332  0.45295  1.0000
  H   H378      1.0  0.13590  0.97634  0.26041  1.0000
  H   H379      1.0  0.54023  0.85317  0.54875  1.0000
  H   H380      1.0  0.49397  0.89609  0.53413  1.0000
  C   C247      1.0  0.50246  0.88691  0.51154  1.0000
  H   H381      1.0  0.37404  0.87360  0.21322  1.0000
  C   C248      1.0  0.48775  0.86237  0.46738  1.0000
  C   C249      1.0  0.47696  0.87430  0.49650  1.0000
  H   H382      1.0  0.39576  0.89485  0.48796  1.0000
  H   H383      1.0  0.44911  0.87373  0.50767  1.0000
  C   C250      1.0  0.33636  0.85753  0.27056  1.0000
  C   C251      1.0  0.14394  0.98902  0.27597  1.0000
  C   C252      1.0  0.53875  0.88767  0.49745  1.0000
  H   H384      1.0  0.09046  0.87689  0.22718  1.0000
  N   N23       1.0  0.32149  0.86350  0.23306  1.0000
  H   H385      1.0  0.19419  0.01494  0.29679  1.0000
  C   C253      1.0  0.54917  0.87602  0.46774  1.0000
  H   H386      1.0  0.49205  0.93145  0.41797  1.0000
  H   H387      1.0  0.16100  0.98489  0.30122  1.0000
  H   H388      1.0  0.10709  0.92854  0.13399  1.0000
  H   H389      1.0  0.22891  0.85190  0.13291  1.0000
  H   H390      1.0  0.14985  0.02498  0.28500  1.0000
  S   S106      1.0  0.31770  0.90291  0.49614  1.0000
  C   C254      1.0  0.28212  0.85940  0.10993  1.0000
  H   H391      1.0  0.31529  0.94395  0.41746  1.0000
  C   C255      1.0  0.30522  0.88203  0.23658  1.0000
  C   C256      1.0  0.36917  0.04145  0.09601  1.0000
  C   C257      1.0  0.53775  0.02171  0.50348  1.0000
  H   H392      1.0  0.29453  0.88706  0.20856  1.0000
  C   C258      1.0  0.35184  0.86383  0.20480  1.0000
  C   C259      1.0  0.25267  0.84740  0.11664  1.0000
  H   H393      1.0  0.25889  0.83737  0.55549  1.0000
  H   H394      1.0  0.54888  0.05230  0.43124  1.0000
  H   H395      1.0  0.34140  0.86814  0.17609  1.0000
  H   H396      1.0  0.36395  0.05592  0.10416  1.0000
  S   S107      1.0  0.23441  0.91499  0.19973  1.0000
  C   C260      1.0  0.37543  0.03826  0.27509  1.0000
  H   H397      1.0  0.32607  0.89211  0.24681  1.0000
  Fe  Fe55      1.0  0.48733  0.98572  0.35569  1.0000
  S   S108      1.0  0.48481  0.99601  0.41558  1.0000
  H   H398      1.0  0.21416  0.00129  0.21699  1.0000
  Fe  Fe56      1.0  0.40416  0.97974  0.35090  1.0000
  S   S109      1.0  0.39419  0.98929  0.41093  1.0000
  S   S110      1.0  0.35962  0.97067  0.31013  1.0000
  Fe  Fe57      1.0  0.43445  0.01149  0.39570  1.0000
  S   S111      1.0  0.42737  0.04141  0.40784  1.0000
  Fe  Fe58      1.0  0.44549  0.97292  0.42482  1.0000
  S   S112      1.0  0.45660  0.95390  0.47355  1.0000
  S   S113      1.0  0.44042  0.00325  0.33449  1.0000
  S   S114      1.0  0.45173  0.96124  0.36617  1.0000
  Fe  Fe59      1.0  0.27630  0.03361  0.14309  1.0000
  S   S115      1.0  0.22680  0.03720  0.18045  1.0000
  H   H399      1.0  0.31436  0.85759  0.29275  1.0000
  H   H400      1.0  0.36682  0.04076  0.35024  1.0000
  C   C261      1.0  0.13980  0.06756  0.17947  1.0000
  H   H401      1.0  0.43469  0.01766  0.47329  1.0000
  Fe  Fe60      1.0  0.26640  0.04869  0.22312  1.0000
  S   S116      1.0  0.26233  0.04108  0.28478  1.0000
  Fe  Fe61      1.0  0.22521  0.06568  0.15717  1.0000
  H   H402      1.0  0.34598  0.03652  0.26632  1.0000
  S   S117      1.0  0.31659  0.04252  0.18816  1.0000
  H   H403      1.0  0.55647  0.01344  0.52230  1.0000
  C   C262      1.0  0.32823  0.98879  0.30392  1.0000
  C   C263      1.0  0.31977  0.00020  0.33469  1.0000
  C   C264      1.0  0.29712  0.01560  0.32917  1.0000
  C   C265      1.0  0.28400  0.01996  0.29261  1.0000
  C   C266      1.0  0.29152  0.00828  0.26196  1.0000
  C   C267      1.0  0.31323  0.99253  0.26775  1.0000
  H   H404      1.0  0.33083  0.99724  0.36277  1.0000
  H   H405      1.0  0.29118  0.02458  0.35294  1.0000
  H   H406      1.0  0.28146  0.01160  0.23361  1.0000
  H   H407      1.0  0.31983  0.98373  0.24386  1.0000
  H   H408      1.0  0.20886  0.01216  0.11848  1.0000
  H   H409      1.0  0.36314  0.06515  0.35314  1.0000
  N   N24       1.0  0.16458  0.00163  0.25096  1.0000
  H   H410      1.0  0.31824  0.89695  0.37931  1.0000
  H   H411      1.0  0.44699  0.02430  0.54156  1.0000
  H   H412      1.0  0.19195  0.97954  0.22170  1.0000
  C   C268      1.0  0.33759  0.94164  0.39611  1.0000
  H   H413      1.0  0.45022  0.91497  0.47972  1.0000
  C   C269      1.0  0.21584  0.99809  0.12499  1.0000
  H   H414      1.0  0.51524  0.01982  0.34577  1.0000
  C   C270      1.0  0.35662  0.91712  0.49265  1.0000
  H   H415      1.0  0.15948  0.99072  0.13792  1.0000
  C   C271      1.0  0.25261  0.99200  0.12202  1.0000
  H   H416      1.0  0.27145  0.93212  0.36656  1.0000
  S   S118      1.0  0.16802  0.07539  0.14229  1.0000
  C   C272      1.0  0.42286  0.92091  0.48311  1.0000
  C   C273      1.0  0.41818  0.93991  0.48199  1.0000
  C   C274      1.0  0.38277  0.94756  0.48662  1.0000
  S   S119      1.0  0.28796  0.00760  0.11143  1.0000
  Fe  Fe62      1.0  0.33563  0.83505  0.51786  1.0000
  H   H417      1.0  0.14346  0.05812  0.27473  1.0000
  H   H418      1.0  0.37915  0.96226  0.48603  1.0000
  Fe  Fe63      1.0  0.30785  0.07053  0.16376  1.0000
  C   C275      1.0  0.19665  0.96770  0.14435  1.0000
  C   C276      1.0  0.23324  0.96144  0.14041  1.0000
  Fe  Fe64      1.0  0.18080  0.92450  0.17345  1.0000
  H   H419      1.0  0.21786  0.98888  0.26105  1.0000
  C   C277      1.0  0.32344  0.90946  0.39645  1.0000
  C   C278      1.0  0.18787  0.98593  0.13588  1.0000
  H   H420      1.0  0.30003  0.94124  0.32928  1.0000
  H   H421      1.0  0.54232  0.93162  0.34997  1.0000
  C   C279      1.0  0.56263  0.84313  0.54188  1.0000
  C   C280      1.0  0.14074  0.00686  0.21811  1.0000
  H   H422      1.0  0.36424  0.93987  0.41201  1.0000
  C   C281      1.0  0.26119  0.97358  0.12897  1.0000
  C   C282      1.0  0.29604  0.92921  0.34839  1.0000
  H   H423      1.0  0.33643  0.06964  0.26901  1.0000
  H   H424      1.0  0.18177  0.07113  0.22304  1.0000
  C   C283      1.0  0.43385  0.04603  0.45650  1.0000
  H   H425      1.0  0.58418  0.90884  0.43586  1.0000
  H   H426      1.0  0.19265  0.83109  0.56933  1.0000
  S   S120      1.0  0.28757  0.83217  0.38243  1.0000
  H   H427      1.0  0.56344  0.05544  0.51686  1.0000
  C   C284      1.0  0.44430  0.03545  0.52136  1.0000
  H   H428      1.0  0.38168  0.07255  0.24883  1.0000
  C   C285      1.0  0.43741  0.03168  0.48272  1.0000
  H   H429      1.0  0.28883  0.91729  0.33004  1.0000
  C   C286      1.0  0.43698  0.06414  0.46900  1.0000
  H   H430      1.0  0.39225  0.03876  0.24858  1.0000
  C   C287      1.0  0.31261  0.85345  0.08856  1.0000
  C   C288      1.0  0.36164  0.92194  0.34673  1.0000
  S   S121      1.0  0.16175  0.95334  0.16185  1.0000
  C   C289      1.0  0.54947  0.94063  0.37448  1.0000
  H   H431      1.0  0.38743  0.91925  0.36367  1.0000
  C   C290      1.0  0.15407  0.06629  0.21669  1.0000
  C   C291      1.0  0.13242  0.05887  0.24595  1.0000
  H   H432      1.0  0.51931  0.01208  0.48778  1.0000
  C   C292      1.0  0.35864  0.05325  0.33390  1.0000
  H   H433      1.0  0.11477  0.01376  0.22766  1.0000
  H   H434      1.0  0.29919  0.91152  0.41562  1.0000
  N   N25       1.0  0.55131  0.93033  0.41077  1.0000
  H   H435      1.0  0.32467  0.94206  0.49615  1.0000
  N   N26       1.0  0.32963  0.92558  0.37187  1.0000
  C   C293      1.0  0.51526  0.92135  0.41774  1.0000
  H   H436      1.0  0.18893  0.02840  0.25439  1.0000
  C   C294      1.0  0.39204  0.90952  0.48791  1.0000
  S   S122      1.0  0.09851  0.87306  0.14543  1.0000
  C   C295      1.0  0.44830  0.05355  0.53376  1.0000
  H   H437      1.0  0.51406  0.05218  0.46769  1.0000
  C   C296      1.0  0.58096  0.91632  0.40840  1.0000
  C   C297      1.0  0.10380  0.06142  0.17167  1.0000
  S   S123      1.0  0.54425  0.98377  0.33077  1.0000
  H   H438      1.0  0.51984  0.03019  0.52231  1.0000
  C   C298      1.0  0.56636  0.00470  0.33912  1.0000
  C   C299      1.0  0.58418  0.02155  0.45409  1.0000
  H   H439      1.0  0.32829  0.05238  0.32789  1.0000
  C   C300      1.0  0.35204  0.93615  0.49242  1.0000
  C   C301      1.0  0.55947  0.94308  0.44246  1.0000
  N   N27       1.0  0.55918  0.03324  0.47696  1.0000
  H   H440      1.0  0.24014  0.94734  0.14657  1.0000
  H   H441      1.0  0.38364  0.02575  0.29128  1.0000
  H   H442      1.0  0.50880  0.91093  0.39560  1.0000
  N   N28       1.0  0.38017  0.05496  0.29828  1.0000
  H   H443      1.0  0.28961  0.96881  0.12661  1.0000
  H   H444      1.0  0.35655  0.90989  0.32813  1.0000
  H   H445      1.0  0.34848  0.03294  0.11127  1.0000
  C   C302      1.0  0.54522  0.02038  0.34674  1.0000
  S   S124      1.0  0.27137  0.06114  0.11539  1.0000
  H   H446      1.0  0.57635  0.94740  0.36796  1.0000
  H   H447      1.0  0.36727  0.93382  0.32781  1.0000
  C   C303      1.0  0.19861  0.99243  0.23711  1.0000
  H   H448      1.0  0.51621  0.03388  0.43375  1.0000
  C   C304      1.0  0.56285  0.03690  0.35563  1.0000
  H   H449      1.0  0.34799  0.90666  0.41511  1.0000
  H   H450      1.0  0.57059  0.84551  0.51165  1.0000
  C   C305      1.0  0.44438  0.06791  0.50761  1.0000
  H   H451      1.0  0.24649  0.83480  0.31167  1.0000
  H   H452      1.0  0.54637  0.04897  0.36156  1.0000
  H   H453      1.0  0.35895  0.86668  0.28076  1.0000
  S   S125      1.0  0.57031  0.90343  0.51705  1.0000
  H   H454      1.0  0.43104  0.04530  0.32397  1.0000
  H   H455      1.0  0.56825  0.01191  0.43566  1.0000
  H   H456      1.0  0.09256  0.06214  0.14312  1.0000
  H   H457      1.0  0.56085  0.93579  0.47040  1.0000
  C   C306      1.0  0.41996  0.05730  0.30783  1.0000
  H   H458      1.0  0.53732  0.95372  0.44508  1.0000
  H   H459      1.0  0.13255  0.99468  0.20104  1.0000
  H   H460      1.0  0.57486  0.90603  0.38585  1.0000
  H   H461      1.0  0.43706  0.05891  0.28171  1.0000
  S   S126      1.0  0.26117  0.07769  0.20322  1.0000
  H   H462      1.0  0.43418  0.07527  0.44876  1.0000
  H   H463      1.0  0.39717  0.03761  0.10717  1.0000
  H   H464      1.0  0.42450  0.06953  0.32617  1.0000
  C   C307      1.0  0.58149  0.04649  0.49907  1.0000
  H   H465      1.0  0.57655  0.87672  0.45589  1.0000
  H   H466      1.0  0.11795  0.99555  0.28666  1.0000
  C   C308      1.0  0.29248  0.85062  0.22013  1.0000
  H   H467      1.0  0.28004  0.85504  0.19242  1.0000
  H   H468      1.0  0.34787  0.84338  0.26926  1.0000
  H   H469      1.0  0.36484  0.85009  0.20139  1.0000
  H   H470      1.0  0.26945  0.84971  0.24100  1.0000
  H   H471      1.0  0.30389  0.83659  0.21604  1.0000
  S   S127      1.0  0.45971  0.05773  0.58175  1.0000
  H   H472      1.0  0.23649  0.85382  0.03758  1.0000
  H   H473      1.0  0.38888  0.05622  0.69497  1.0000
  C   C309      1.0  0.18437  0.85041  0.98317  1.0000
  C   C310      1.0  0.32928  0.04494  0.04074  1.0000
  N   N29       1.0  0.36639  0.03890  0.05423  1.0000
  C   C311      1.0  0.44359  0.04659  0.74389  1.0000
  H   H474      1.0  0.42369  0.04584  0.04484  1.0000
  H   H475      1.0  0.41843  0.06136  0.65538  1.0000
  H   H476      1.0  0.39933  0.01427  0.05521  1.0000
  C   C312      1.0  0.10405  0.06062  0.06135  1.0000
  C   C313      1.0  0.39526  0.04989  0.03526  1.0000
  H   H477      1.0  0.23431  0.86243  0.93270  1.0000
  H   H478      1.0  0.48567  0.05424  0.65888  1.0000
  C   C314      1.0  0.24628  0.85559  0.00776  1.0000
  H   H479      1.0  0.29704  0.83381  0.74760  1.0000
  H   H480      1.0  0.32433  0.05966  0.04734  1.0000
  H   H481      1.0  0.18078  0.86521  0.97644  1.0000
  H   H482      1.0  0.24497  0.87047  0.00109  1.0000
  H   H483      1.0  0.33723  0.83125  0.05697  1.0000
  H   H484      1.0  0.46450  0.03690  0.75606  1.0000
  H   H485      1.0  0.43994  0.02936  0.65360  1.0000
  H   H486      1.0  0.32616  0.04326  0.00932  1.0000
  N   N30       1.0  0.44569  0.04733  0.70177  1.0000
  H   H487      1.0  0.39384  0.04852  0.00364  1.0000
  H   H488      1.0  0.50514  0.04389  0.70103  1.0000
  H   H489      1.0  0.41561  0.04217  0.75349  1.0000
  C   C315      1.0  0.41752  0.06038  0.68712  1.0000
  H   H490      1.0  0.39182  0.06466  0.04184  1.0000
  H   H491      1.0  0.30679  0.03691  0.05455  1.0000
  C   C316      1.0  0.48315  0.05342  0.69049  1.0000
  H   H492      1.0  0.44897  0.06031  0.75672  1.0000
  H   H493      1.0  0.16663  0.84256  0.96286  1.0000
  H   H494      1.0  0.36988  0.01688  0.01373  1.0000
  C   C317      1.0  0.43851  0.02904  0.68544  1.0000
  H   H495      1.0  0.41040  0.02401  0.69317  1.0000
  H   H496      1.0  0.17334  0.84812  0.01244  1.0000
  H   H497      1.0  0.14246  0.08052  0.01072  1.0000
  H   H498      1.0  0.45930  0.01879  0.69570  1.0000
  H   H499      1.0  0.48948  0.06722  0.70214  1.0000
  H   H500      1.0  0.35019  0.01072  0.05886  1.0000
  H   H501      1.0  0.22183  0.83939  0.92013  1.0000
  C   C318      1.0  0.23724  0.84786  0.94137  1.0000
  H   H502      1.0  0.26717  0.84413  0.93872  1.0000
  C   C319      1.0  0.37177  0.01934  0.04502  1.0000
  H   H503      1.0  0.56118  0.85021  0.61703  1.0000
  H   H504      1.0  0.11320  0.05231  0.03651  1.0000
  C   C320      1.0  0.31352  0.83569  0.07344  1.0000
  N   N31       1.0  0.22377  0.84474  0.98060  1.0000
  H   H505      1.0  0.27607  0.85140  0.00720  1.0000
  H   H506      1.0  0.26338  0.83980  0.68587  1.0000
  H   H507      1.0  0.42206  0.07433  0.69896  1.0000
  N   N32       1.0  0.09712  0.07987  0.05030  1.0000
  C   C321      1.0  0.58380  0.84087  0.60740  1.0000
  H   H508      1.0  0.33554  0.86264  0.08340  1.0000
  H   H509      1.0  0.12627  0.05955  0.08348  1.0000
  H   H510      1.0  0.98913  0.09870  0.12376  1.0000
  C   C322      1.0  0.78428  0.09149  0.52053  1.0000
  C   C323      1.0  0.67637  0.32798  0.17359  1.0000
  C   C324      1.0  0.79350  0.10852  0.53610  1.0000
  H   H511      1.0  0.66776  0.30435  0.11558  1.0000
  H   H512      1.0  0.65471  0.32694  0.10009  1.0000
  H   H513      1.0  0.87472  0.29334  0.12001  1.0000
  S   S128      1.0  0.82859  0.31925  0.15988  1.0000
  H   H514      1.0  0.72286  0.29990  0.15747  1.0000
  H   H515      1.0  0.86772  0.09323  0.41815  1.0000
  H   H516      1.0  0.91190  0.08157  0.41845  1.0000
  H   H517      1.0  0.79342  0.12058  0.51813  1.0000
  C   C325      1.0  0.80146  0.11015  0.57524  1.0000
  H   H518      1.0  0.75173  0.31243  0.12497  1.0000
  H   H519      1.0  0.71997  0.11027  0.56120  1.0000
  C   C326      1.0  0.82586  0.32781  0.57354  1.0000
  C   C327      1.0  0.67885  0.31805  0.10794  1.0000
  H   H520      1.0  0.97745  0.32011  0.42089  1.0000
  H   H521      1.0  0.74870  0.31928  0.17384  1.0000
  C   C328      1.0  0.87034  0.30508  0.10163  1.0000
  C   C329      1.0  0.84784  0.31962  0.11389  1.0000
  H   H522      1.0  0.84945  0.08351  0.12953  1.0000
  H   H523      1.0  0.94748  0.31623  0.46108  1.0000
  C   C330      1.0  0.95681  0.32668  0.44005  1.0000
  N   N33       1.0  0.67334  0.09419  0.57892  1.0000
  H   H524      1.0  0.66652  0.10215  0.52008  1.0000
  S   S129      1.0  0.77106  0.09009  0.47226  1.0000
  H   H525      1.0  0.92597  0.31353  0.37545  1.0000
  C   C331      1.0  0.90658  0.31995  0.39618  1.0000
  C   C332      1.0  0.64995  0.10063  0.54666  1.0000
  H   H526      1.0  0.88236  0.32545  0.37964  1.0000
  N   N34       1.0  0.70048  0.32600  0.13982  1.0000
  C   C333      1.0  0.89016  0.31816  0.56733  1.0000
  H   H527      1.0  0.88699  0.08483  0.37426  1.0000
  H   H528      1.0  0.89605  0.30895  0.41523  1.0000
  H   H529      1.0  0.62687  0.09099  0.54048  1.0000
  C   C334      1.0  0.98317  0.08767  0.10410  1.0000
  H   H530      1.0  0.63722  0.11421  0.55286  1.0000
  C   C335      1.0  0.85386  0.31479  0.57978  1.0000
  C   C336      1.0  0.73221  0.31385  0.14937  1.0000
  H   H531      1.0  0.91178  0.30806  0.57229  1.0000
  H   H532      1.0  0.05913  0.08397  0.09656  1.0000
  C   C337      1.0  0.88369  0.08171  0.40520  1.0000
  H   H533      1.0  0.66491  0.31460  0.18290  1.0000
  Fe  Fe65      1.0  0.97445  0.11076  0.90570  1.0000
  S   S130      1.0  0.95813  0.13376  0.94463  1.0000
  S   S131      1.0  0.93169  0.09915  0.86584  1.0000
  Fe  Fe66      1.0  0.05334  0.10884  0.93646  1.0000
  S   S132      1.0  0.04356  0.13152  0.97820  1.0000
  H   H534      1.0  0.61487  0.26876  0.75548  1.0000
  Fe  Fe67      1.0  0.98938  0.11761  0.98921  1.0000
  C   C338      1.0  0.59315  0.25720  0.70345  1.0000
  Fe  Fe68      1.0  0.01385  0.14519  0.92953  1.0000
  S   S133      1.0  0.02629  0.17393  0.91131  1.0000
  S   S134      1.0  0.00148  0.09367  0.95129  1.0000
  S   S135      1.0  0.02771  0.12350  0.88670  1.0000
  Fe  Fe69      1.0  0.73733  0.14922  0.70247  1.0000
  S   S136      1.0  0.75138  0.14219  0.64203  1.0000
  S   S137      1.0  0.67855  0.15152  0.72279  1.0000
  Fe  Fe70      1.0  0.81819  0.15401  0.72575  1.0000
  S   S138      1.0  0.83932  0.14759  0.66714  1.0000
  S   S139      1.0  0.85856  0.16323  0.77093  1.0000
  Fe  Fe71      1.0  0.79189  0.16517  0.64695  1.0000
  H   H535      1.0  0.82412  0.24693  0.82801  1.0000
  Fe  Fe72      1.0  0.79692  0.12524  0.66801  1.0000
  S   S140      1.0  0.80843  0.09664  0.64802  1.0000
  S   S141      1.0  0.77431  0.17354  0.70555  1.0000
  S   S142      1.0  0.77942  0.13012  0.72855  1.0000
  H   H536      1.0  0.04127  0.18870  0.98640  1.0000
  H   H537      1.0  0.82721  0.25781  0.78223  1.0000
  C   C339      1.0  0.81488  0.20606  0.62721  1.0000
  C   C340      1.0  0.83549  0.20296  0.66062  1.0000
  C   C341      1.0  0.84678  0.21768  0.68327  1.0000
  C   C342      1.0  0.83711  0.23553  0.67281  1.0000
  C   C343      1.0  0.81772  0.23876  0.63864  1.0000
  H   H538      1.0  0.05087  0.28648  0.87249  1.0000
  H   H539      1.0  0.84231  0.18917  0.66942  1.0000
  H   H540      1.0  0.86211  0.21514  0.70947  1.0000
  H   H541      1.0  0.85192  0.23694  0.79062  1.0000
  H   H542      1.0  0.05371  0.30520  0.81356  1.0000
  N   N35       1.0  0.90658  0.10007  0.70991  1.0000
  C   C344      1.0  0.70517  0.22948  0.64000  1.0000
  C   C345      1.0  0.65018  0.09188  0.61325  1.0000
  C   C346      1.0  0.64754  0.14746  0.68500  1.0000
  C   C347      1.0  0.65699  0.15229  0.64768  1.0000
  C   C348      1.0  0.86960  0.09622  0.72609  1.0000
  H   H543      1.0  0.68240  0.15957  0.64227  1.0000
  H   H544      1.0  0.70959  0.24398  0.64850  1.0000
  C   C349      1.0  0.99068  0.18966  0.92028  1.0000
  C   C350      1.0  0.98821  0.20546  0.89789  1.0000
  C   C351      1.0  0.96182  0.21895  0.90621  1.0000
  C   C352      1.0  0.93814  0.21684  0.93732  1.0000
  C   C353      1.0  0.94011  0.20086  0.95941  1.0000
  C   C354      1.0  0.96633  0.18721  0.95079  1.0000
  H   H545      1.0  0.00695  0.20732  0.87416  1.0000
  H   H546      1.0  0.95974  0.23095  0.88833  1.0000
  H   H547      1.0  0.92204  0.19926  0.98374  1.0000
  H   H548      1.0  0.96853  0.17510  0.96848  1.0000
  C   C355      1.0  0.80108  0.09465  0.59868  1.0000
  C   C356      1.0  0.61906  0.26704  0.72512  1.0000
  S   S143      1.0  0.78112  0.32448  0.59148  1.0000
  H   H549      1.0  0.63664  0.10499  0.62154  1.0000
  C   C357      1.0  0.69858  0.19823  0.66101  1.0000
  H   H550      1.0  0.90891  0.25097  0.77050  1.0000
  C   C358      1.0  0.91132  0.11693  0.83965  1.0000
  C   C359      1.0  0.87592  0.11470  0.82360  1.0000
  C   C360      1.0  0.85967  0.12884  0.80204  1.0000
  C   C361      1.0  0.87890  0.14518  0.79650  1.0000
  C   C362      1.0  0.91428  0.14741  0.81263  1.0000
  C   C363      1.0  0.93040  0.13334  0.83438  1.0000
  H   H551      1.0  0.86093  0.10210  0.82825  1.0000
  H   H552      1.0  0.83203  0.12719  0.79043  1.0000
  H   H553      1.0  0.92943  0.15998  0.80814  1.0000
  H   H554      1.0  0.95778  0.13513  0.84671  1.0000
  N   N36       1.0  0.85486  0.17782  0.89435  1.0000
  C   C364      1.0  0.84183  0.18994  0.92532  1.0000
  C   C365      1.0  0.87742  0.16274  0.91076  1.0000
  C   C366      1.0  0.87773  0.18847  0.86747  1.0000
  C   C367      1.0  0.82245  0.17015  0.87381  1.0000
  H   H555      1.0  0.82445  0.20139  0.91400  1.0000
  H   H556      1.0  0.86553  0.19623  0.94098  1.0000
  H   H557      1.0  0.82502  0.18232  0.94656  1.0000
  H   H558      1.0  0.88749  0.15327  0.88819  1.0000
  H   H559      1.0  0.90237  0.16797  0.92609  1.0000
  H   H560      1.0  0.86124  0.15443  0.93138  1.0000
  H   H561      1.0  0.90324  0.19381  0.88161  1.0000
  H   H562      1.0  0.86202  0.20031  0.85543  1.0000
  H   H563      1.0  0.88685  0.17997  0.84297  1.0000
  H   H564      1.0  0.83130  0.16067  0.85072  1.0000
  H   H565      1.0  0.80535  0.18108  0.86005  1.0000
  H   H566      1.0  0.80424  0.16226  0.89331  1.0000
  H   H567      1.0  0.03662  0.22967  0.96838  1.0000
  H   H568      1.0  0.60627  0.13503  0.72079  1.0000
  H   H569      1.0  0.06246  0.09472  0.01090  1.0000
  H   H570      1.0  0.93070  0.10442  0.65455  1.0000
  C   C368      1.0  0.66931  0.22263  0.69625  1.0000
  C   C369      1.0  0.73605  0.21930  0.69767  1.0000
  C   C370      1.0  0.88848  0.30602  0.06623  1.0000
  H   H571      1.0  0.88688  0.28641  0.84412  1.0000
  H   H572      1.0  0.87793  0.24773  0.87278  1.0000
  C   C371      1.0  0.60037  0.13844  0.62395  1.0000
  C   C372      1.0  0.80699  0.22399  0.61554  1.0000
  H   H573      1.0  0.63443  0.26010  0.61668  1.0000
  H   H574      1.0  0.67954  0.22899  0.62203  1.0000
  C   C373      1.0  0.06233  0.22200  0.96065  1.0000
  S   S144      1.0  0.75468  0.32300  0.69665  1.0000
  C   C374      1.0  0.90335  0.10165  0.66792  1.0000
  C   C375      1.0  0.59861  0.25465  0.66437  1.0000
  H   H575      1.0  0.67168  0.23687  0.70711  1.0000
  H   H576      1.0  0.76131  0.21508  0.68182  1.0000
  H   H577      1.0  0.73461  0.21063  0.72373  1.0000
  C   C376      1.0  0.86311  0.27832  0.83314  1.0000
  H   H578      1.0  0.06405  0.23295  0.03371  1.0000
  H   H579      1.0  0.02315  0.20653  0.01622  1.0000
  C   C377      1.0  0.87668  0.32614  0.78779  1.0000
  H   H580      1.0  0.74030  0.23373  0.70686  1.0000
  N   N37       1.0  0.70227  0.21741  0.67373  1.0000
  C   C378      1.0  0.04903  0.19907  0.00825  1.0000
  S   S145      1.0  0.97227  0.11443  0.05049  1.0000
  C   C379      1.0  0.90109  0.26393  0.78513  1.0000
  H   H581      1.0  0.64334  0.22186  0.67880  1.0000
  H   H582      1.0  0.72314  0.19378  0.64407  1.0000
  H   H583      1.0  0.90135  0.12899  0.72042  1.0000
  H   H584      1.0  0.67347  0.19635  0.64273  1.0000
  H   H585      1.0  0.66711  0.08716  0.63816  1.0000
  H   H586      1.0  0.66580  0.21348  0.72139  1.0000
  H   H587      1.0  0.84887  0.28684  0.81098  1.0000
  S   S146      1.0  0.90606  0.23411  0.94828  1.0000
  H   H588      1.0  0.69616  0.18870  0.68572  1.0000
  H   H589      1.0  0.07614  0.10465  0.07554  1.0000
  S   S147      1.0  0.06595  0.26883  0.99263  1.0000
  H   H590      1.0  0.96060  0.08738  0.70818  1.0000
  N   N38       1.0  0.07757  0.21171  0.99365  1.0000
  C   C380      1.0  0.89586  0.25022  0.84753  1.0000
  C   C381      1.0  0.63024  0.26194  0.64701  1.0000
  C   C382      1.0  0.63348  0.14776  0.61716  1.0000
  C   C383      1.0  0.88647  0.32875  0.82618  1.0000
  N   N39       1.0  0.87583  0.26062  0.81749  1.0000
  C   C384      1.0  0.65021  0.27473  0.70774  1.0000
  H   H591      1.0  0.84348  0.27644  0.85721  1.0000
  H   H592      1.0  0.94815  0.12111  0.71319  1.0000
  H   H593      1.0  0.88787  0.27294  0.76317  1.0000
  C   C385      1.0  0.84333  0.25006  0.80417  1.0000
  H   H594      1.0  0.81108  0.25259  0.62998  1.0000
  H   H595      1.0  0.84978  0.10766  0.72042  1.0000
  C   C386      1.0  0.65587  0.27214  0.66862  1.0000
  Fe  Fe73      1.0  0.80706  0.31624  0.72876  1.0000
  S   S148      1.0  0.83718  0.30515  0.67827  1.0000
  H   H596      1.0  0.69044  0.12122  0.59532  1.0000
  Fe  Fe74      1.0  0.73653  0.29452  0.71111  1.0000
  S   S149      1.0  0.76089  0.28138  0.65905  1.0000
  S   S150      1.0  0.68024  0.28816  0.73548  1.0000
  Fe  Fe75      1.0  0.81248  0.27833  0.69508  1.0000
  Fe  Fe76      1.0  0.78316  0.30951  0.64728  1.0000
  H   H597      1.0  0.90570  0.23674  0.83677  1.0000
  S   S151      1.0  0.78634  0.28908  0.74830  1.0000
  H   H598      1.0  0.87114  0.09415  0.75750  1.0000
  Fe  Fe77      1.0  0.01000  0.27819  0.97108  1.0000
  S   S152      1.0  0.95709  0.27401  0.00345  1.0000
  H   H599      1.0  0.67947  0.27832  0.65484  1.0000
  Fe  Fe78      1.0  0.96963  0.29030  0.89863  1.0000
  S   S153      1.0  0.91332  0.28700  0.92439  1.0000
  S   S154      1.0  0.97888  0.29728  0.83706  1.0000
  Fe  Fe79      1.0  0.93915  0.30043  0.97572  1.0000
  H   H600      1.0  0.88409  0.11296  0.65955  1.0000
  Fe  Fe80      1.0  0.93631  0.26103  0.94930  1.0000
  S   S155      1.0  0.99413  0.30573  0.94763  1.0000
  S   S156      1.0  0.99064  0.26322  0.91916  1.0000
  H   H601      1.0  0.92721  0.27065  0.79470  1.0000
  C   C387      1.0  0.59016  0.13415  0.66135  1.0000
  C   C388      1.0  0.91855  0.32036  0.84137  1.0000
  C   C389      1.0  0.94145  0.30981  0.81783  1.0000
  C   C390      1.0  0.93270  0.30803  0.77902  1.0000
  C   C391      1.0  0.89994  0.31581  0.76423  1.0000
  S   S157      1.0  0.79472  0.18751  0.60352  1.0000
  H   H602      1.0  0.95043  0.29996  0.76066  1.0000
  H   H603      1.0  0.89280  0.31382  0.73459  1.0000
  S   S158      1.0  0.84789  0.25340  0.70400  1.0000
  H   H604      1.0  0.90687  0.29509  0.05750  1.0000
  H   H605      1.0  0.92072  0.25781  0.85795  1.0000
  C   C392      1.0  0.88384  0.32148  0.04305  1.0000
  H   H606      1.0  0.92525  0.32188  0.87137  1.0000
  H   H607      1.0  0.89192  0.08893  0.65499  1.0000
  H   H608      1.0  0.60469  0.30302  0.68149  1.0000
  H   H609      1.0  0.72894  0.22539  0.62167  1.0000
  C   C393      1.0  0.61369  0.13876  0.69192  1.0000
  C   C394      1.0  0.97361  0.09163  0.06613  1.0000
  H   H610      1.0  0.06374  0.30839  0.98852  1.0000
  H   H611      1.0  0.85714  0.08369  0.71339  1.0000
  C   C395      1.0  0.92093  0.11739  0.72583  1.0000
  S   S159      1.0  0.90994  0.32466  0.00150  1.0000
  H   H612      1.0  0.93537  0.08346  0.75148  1.0000
  H   H613      1.0  0.92514  0.11639  0.75726  1.0000
  H   H614      1.0  0.05916  0.19147  0.03387  1.0000
  H   H615      1.0  0.07426  0.32188  0.91137  1.0000
  H   H616      1.0  0.05526  0.21269  0.93659  1.0000
  H   H617      1.0  0.72149  0.10326  0.61036  1.0000
  C   C396      1.0  0.06951  0.32181  0.87994  1.0000
  H   H618      1.0  0.84748  0.30203  0.59392  1.0000
  C   C397      1.0  0.93237  0.08496  0.71989  1.0000
  H   H619      1.0  0.69629  0.31638  0.08201  1.0000
  H   H620      1.0  0.03913  0.31992  0.87495  1.0000
  C   C398      1.0  0.08095  0.28930  0.87723  1.0000
  H   H621      1.0  0.60861  0.32874  0.72585  1.0000
  H   H622      1.0  0.79152  0.22642  0.58939  1.0000
  H   H623      1.0  0.64125  0.15124  0.58825  1.0000
  H   H624      1.0  0.08256  0.23224  0.94995  1.0000
  C   C399      1.0  0.70259  0.10782  0.58682  1.0000
  H   H625      1.0  0.80773  0.12342  0.58723  1.0000
  H   H626      1.0  0.58727  0.29968  0.75132  1.0000
  H   H627      1.0  0.08617  0.28870  0.90857  1.0000
  C   C400      1.0  0.08376  0.30749  0.81972  1.0000
  H   H628      1.0  0.62765  0.08176  0.60835  1.0000
  C   C401      1.0  0.08393  0.09039  0.08361  1.0000
  Fe  Fe81      1.0  0.84365  0.38596  0.19160  1.0000
  S   S160      1.0  0.79805  0.39433  0.23103  1.0000
  Fe  Fe82      1.0  0.81739  0.34699  0.18542  1.0000
  S   S161      1.0  0.76957  0.35158  0.22511  1.0000
  C   C402      1.0  0.89558  0.41968  0.24281  1.0000
  Fe  Fe83      1.0  0.76112  0.37784  0.19293  1.0000
  S   S162      1.0  0.70635  0.38825  0.17021  1.0000
  Fe  Fe84      1.0  0.81037  0.36763  0.26019  1.0000
  S   S163      1.0  0.80967  0.36599  0.32431  1.0000
  S   S164      1.0  0.80563  0.37200  0.15034  1.0000
  S   S165      1.0  0.85936  0.36052  0.22367  1.0000
  Fe  Fe85      1.0  0.02505  0.39376  0.51916  1.0000
  H   H629      1.0  0.60494  0.41561  0.12844  1.0000
  Fe  Fe86      1.0  0.96081  0.39712  0.46216  1.0000
  S   S166      1.0  0.91815  0.38990  0.50560  1.0000
  S   S167      1.0  0.94718  0.40493  0.40156  1.0000
  Fe  Fe87      1.0  0.95036  0.40816  0.54477  1.0000
  Fe  Fe88      1.0  0.95926  0.36839  0.52393  1.0000
  S   S168      1.0  0.98973  0.41732  0.49962  1.0000
  S   S169      1.0  0.99996  0.37420  0.47712  1.0000
  C   C403      1.0  0.67159  0.55494  0.28172  1.0000
  H   H630      1.0  0.87660  0.36030  0.52859  1.0000
  H   H631      1.0  0.64270  0.44263  0.14062  1.0000
  H   H632      1.0  0.63101  0.38561  0.14483  1.0000
  C   C404      1.0  0.90781  0.39486  0.38069  1.0000
  C   C405      1.0  0.87965  0.38738  0.40309  1.0000
  C   C406      1.0  0.84920  0.37875  0.38561  1.0000
  C   C407      1.0  0.84702  0.37746  0.34578  1.0000
  C   C408      1.0  0.87468  0.38530  0.32341  1.0000
  C   C409      1.0  0.90500  0.39401  0.34085  1.0000
  H   H633      1.0  0.88122  0.38824  0.43377  1.0000
  H   H634      1.0  0.82745  0.37293  0.40295  1.0000
  H   H635      1.0  0.87294  0.38445  0.29267  1.0000
  H   H636      1.0  0.92673  0.39979  0.32342  1.0000
  S   S170      1.0  0.88504  0.40626  0.17071  1.0000
  C   C410      1.0  0.63338  0.37869  0.17205  1.0000
  C   C411      1.0  0.67089  0.36859  0.22581  1.0000
  C   C412      1.0  0.66773  0.37785  0.19098  1.0000
  C   C413      1.0  0.97364  0.53019  0.33612  1.0000
  H   H637      1.0  0.69717  0.36819  0.24093  1.0000
  H   H638      1.0  0.69689  0.56290  0.21188  1.0000
  C   C414      1.0  0.83408  0.34408  0.55439  1.0000
  H   H639      1.0  0.80026  0.40493  0.31213  1.0000
  S   S171      1.0  0.60377  0.50801  0.13334  1.0000
  H   H640      1.0  0.60223  0.41240  0.21521  1.0000
  H   H641      1.0  0.67140  0.56893  0.29423  1.0000
  H   H642      1.0  0.63250  0.45754  0.17960  1.0000
  H   H643      1.0  0.90263  0.40582  0.25088  1.0000
  H   H644      1.0  0.91559  0.35450  0.37416  1.0000
  C   C415      1.0  0.07286  0.51197  0.44761  1.0000
  H   H645      1.0  0.82366  0.34553  0.09821  1.0000
  S   S172      1.0  0.94476  0.33911  0.53637  1.0000
  C   C416      1.0  0.60211  0.37039  0.18800  1.0000
  C   C417      1.0  0.07025  0.52552  0.41949  1.0000
  H   H646      1.0  0.97738  0.36607  0.17175  1.0000
  H   H647      1.0  0.87357  0.34842  0.43010  1.0000
  H   H648      1.0  0.76766  0.40841  0.34969  1.0000
  H   H649      1.0  0.91346  0.55212  0.34707  1.0000
  H   H650      1.0  0.87391  0.44277  0.44182  1.0000
  H   H651      1.0  0.91502  0.38663  0.09907  1.0000
  H   H652      1.0  0.64339  0.41742  0.18853  1.0000
  C   C418      1.0  0.89821  0.34264  0.44528  1.0000
  C   C419      1.0  0.61958  0.44873  0.15738  1.0000
  H   H653      1.0  0.07559  0.36094  0.51386  1.0000
  H   H654      1.0  0.76851  0.43499  0.25828  1.0000
  C   C420      1.0  0.60532  0.36090  0.22258  1.0000
  H   H655      1.0  0.70123  0.55103  0.27745  1.0000
  H   H656      1.0  0.75211  0.40861  0.30077  1.0000
  H   H657      1.0  0.67690  0.53913  0.15112  1.0000
  S   S173      1.0  0.02796  0.54347  0.52745  1.0000
  Fe  Fe89      1.0  0.99715  0.51910  0.54869  1.0000
  C   C421      1.0  0.74379  0.56220  0.10336  1.0000
  C   C422      1.0  0.93267  0.34354  0.13143  1.0000
  C   C423      1.0  0.77506  0.41283  0.32030  1.0000
  H   H658      1.0  0.73071  0.35059  0.15182  1.0000
  Fe  Fe90      1.0  0.99969  0.53798  0.47163  1.0000
  H   H659      1.0  0.95620  0.51433  0.40229  1.0000
  H   H660      1.0  0.67940  0.53070  0.22397  1.0000
  Fe  Fe91      1.0  0.92591  0.52984  0.50854  1.0000
  C   C424      1.0  0.62866  0.49850  0.17153  1.0000
  S   S174      1.0  0.87080  0.51681  0.49674  1.0000
  H   H661      1.0  0.96009  0.34338  0.37238  1.0000
  C   C425      1.0  0.90954  0.37188  0.10463  1.0000
  H   H662      1.0  0.96897  0.45961  0.46584  1.0000
  C   C426      1.0  0.81302  0.43744  0.34410  1.0000
  S   S175      1.0  0.94991  0.55551  0.48354  1.0000
  S   S176      1.0  0.97367  0.51207  0.49142  1.0000
  Fe  Fe92      1.0  0.75145  0.49207  0.26842  1.0000
  S   S177      1.0  0.79533  0.48383  0.22678  1.0000
  S   S178      1.0  0.69666  0.47787  0.27288  1.0000
  Fe  Fe93      1.0  0.79729  0.52275  0.30211  1.0000
  S   S179      1.0  0.84551  0.51729  0.26366  1.0000
  S   S180      1.0  0.80074  0.54615  0.34317  1.0000
  Fe  Fe94      1.0  0.80201  0.51402  0.21797  1.0000
  S   S181      1.0  0.02548  0.49766  0.58403  1.0000
  Fe  Fe95      1.0  0.83457  0.48783  0.27621  1.0000
  S   S182      1.0  0.87844  0.46798  0.29561  1.0000
  S   S183      1.0  0.75455  0.52205  0.25553  1.0000
  S   S184      1.0  0.78991  0.49343  0.31866  1.0000
  C   C427      1.0  0.87053  0.34763  0.54279  1.0000
  C   C428      1.0  0.66731  0.49708  0.16909  1.0000
  H   H663      1.0  0.87976  0.53431  0.34216  1.0000
  C   C429      1.0  0.93508  0.52407  0.39068  1.0000
  C   C430      1.0  0.90227  0.44349  0.45452  1.0000
  H   H664      1.0  0.87747  0.47647  0.42975  1.0000
  H   H665      1.0  0.88779  0.47846  0.51677  1.0000
  C   C431      1.0  0.92697  0.50657  0.33281  1.0000
  C   C432      1.0  0.84872  0.52583  0.45619  1.0000
  C   C433      1.0  0.82384  0.51491  0.43567  1.0000
  C   C434      1.0  0.80811  0.52137  0.40150  1.0000
  C   C435      1.0  0.81702  0.53877  0.38790  1.0000
  C   C436      1.0  0.84084  0.54996  0.40916  1.0000
  C   C437      1.0  0.85685  0.54344  0.44321  1.0000
  H   H666      1.0  0.81692  0.50142  0.44605  1.0000
  H   H667      1.0  0.78842  0.51304  0.38619  1.0000
  H   H668      1.0  0.84741  0.56354  0.39899  1.0000
  H   H669      1.0  0.87503  0.55215  0.45962  1.0000
  N   N40       1.0  0.78191  0.43270  0.31818  1.0000
  C   C438      1.0  0.67015  0.48495  0.23348  1.0000
  C   C439      1.0  0.68804  0.49049  0.20017  1.0000
  N   N41       1.0  0.90948  0.46160  0.47172  1.0000
  H   H670      1.0  0.71799  0.48975  0.19833  1.0000
  H   H671      1.0  0.89878  0.50206  0.34167  1.0000
  N   N42       1.0  0.93607  0.52479  0.34852  1.0000
  S   S185      1.0  0.92033  0.42901  0.57995  1.0000
  H   H672      1.0  0.95122  0.36048  0.40792  1.0000
  C   C440      1.0  0.66736  0.56671  0.21736  1.0000
  H   H673      1.0  0.61747  0.48173  0.26155  1.0000
  H   H674      1.0  0.95345  0.47486  0.50293  1.0000
  H   H675      1.0  0.97562  0.53072  0.30445  1.0000
  H   H676      1.0  0.59762  0.55073  0.27311  1.0000
  H   H677      1.0  0.98124  0.54392  0.34742  1.0000
  H   H678      1.0  0.75211  0.45782  0.32806  1.0000
  H   H679      1.0  0.65241  0.56635  0.18936  1.0000
  H   H680      1.0  0.90727  0.51983  0.40109  1.0000
  C   C441      1.0  0.90853  0.53835  0.33453  1.0000
  H   H681      1.0  0.92254  0.44033  0.43150  1.0000
  H   H682      1.0  0.95890  0.38705  0.15220  1.0000
  H   H683      1.0  0.69195  0.33379  0.19830  1.0000
  C   C442      1.0  0.89499  0.43354  0.27047  1.0000
  C   C443      1.0  0.88484  0.45139  0.26016  1.0000
  C   C444      1.0  0.87715  0.45555  0.22191  1.0000
  C   C445      1.0  0.87874  0.44180  0.19410  1.0000
  C   C446      1.0  0.77516  0.55277  0.11720  1.0000
  H   H684      1.0  0.92711  0.50660  0.30100  1.0000
  H   H685      1.0  0.87008  0.46940  0.21366  1.0000
  H   H686      1.0  0.87233  0.44502  0.16460  1.0000
  N   N43       1.0  0.65028  0.55426  0.24547  1.0000
  H   H687      1.0  0.90801  0.34270  0.15042  1.0000
  H   H688      1.0  0.94724  0.49596  0.34250  1.0000
  C   C447      1.0  0.70838  0.55757  0.11626  1.0000
  S   S186      1.0  0.81050  0.52682  0.16050  1.0000
  H   H689      1.0  0.63399  0.53426  0.20368  1.0000
  Fe  Fe96      1.0  0.97584  0.55887  0.54156  1.0000
  H   H690      1.0  0.81890  0.45237  0.34338  1.0000
  H   H691      1.0  0.97165  0.33737  0.45673  1.0000
  H   H692      1.0  0.68138  0.50147  0.14352  1.0000
  H   H693      1.0  0.92949  0.37222  0.17884  1.0000
  H   H694      1.0  0.80254  0.55632  0.10704  1.0000
  C   C448      1.0  0.70436  0.54330  0.14254  1.0000
  H   H695      1.0  0.59464  0.55958  0.22535  1.0000
  H   H696      1.0  0.90930  0.53974  0.30290  1.0000
  C   C449      1.0  0.89871  0.33476  0.54957  1.0000
  H   H697      1.0  0.94127  0.53769  0.40340  1.0000
  H   H698      1.0  0.80696  0.43356  0.37411  1.0000
  H   H699      1.0  0.95612  0.33634  0.14598  1.0000
  H   H700      1.0  0.92585  0.47356  0.41837  1.0000
  H   H701      1.0  0.95105  0.45085  0.50975  1.0000
  C   C450      1.0  0.73577  0.53410  0.15691  1.0000
  H   H702      1.0  0.90130  0.43033  0.29998  1.0000
  H   H703      1.0  0.91182  0.48971  0.45429  1.0000
  C   C451      1.0  0.74801  0.44276  0.32954  1.0000
  H   H704      1.0  0.73967  0.43932  0.35919  1.0000
  H   H705      1.0  0.81648  0.43001  0.26864  1.0000
  C   C452      1.0  0.61055  0.49287  0.20475  1.0000
  C   C453      1.0  0.65069  0.53538  0.23049  1.0000
  S   S187      1.0  0.03039  0.53935  0.41632  1.0000
  H   H706      1.0  0.63897  0.52550  0.25136  1.0000
  H   H707      1.0  0.99526  0.52043  0.34677  1.0000
  C   C454      1.0  0.88232  0.46515  0.50236  1.0000
  C   C455      1.0  0.93860  0.34882  0.39207  1.0000
  H   H708      1.0  0.04996  0.50957  0.46667  1.0000
  C   C456      1.0  0.79171  0.43775  0.27865  1.0000
  H   H709      1.0  0.83914  0.43026  0.33571  1.0000
  C   C457      1.0  0.94745  0.46178  0.48807  1.0000
  N   N44       1.0  0.94208  0.36271  0.12234  1.0000
  S   S188      1.0  0.94726  0.53481  0.56795  1.0000
  S   S189      1.0  0.66873  0.56870  0.09809  1.0000
  H   H710      1.0  0.66006  0.54539  0.30337  1.0000
  H   H711      1.0  0.79864  0.45250  0.27652  1.0000
  C   C458      1.0  0.63133  0.48587  0.23563  1.0000
  H   H712      1.0  0.85337  0.46571  0.49107  1.0000
  H   H713      1.0  0.72412  0.43960  0.31024  1.0000
  C   C459      1.0  0.88727  0.42380  0.20466  1.0000
  H   H714      1.0  0.91111  0.35383  0.46222  1.0000
  H   H715      1.0  0.88361  0.45432  0.52476  1.0000
  H   H716      1.0  0.88488  0.37128  0.12355  1.0000
  H   H717      1.0  0.73254  0.52286  0.17655  1.0000
  H   H718      1.0  0.90479  0.43236  0.47617  1.0000
  C   C460      1.0  0.90605  0.47595  0.44213  1.0000
  C   C461      1.0  0.63975  0.35994  0.24141  1.0000
  C   C462      1.0  0.77123  0.53885  0.14432  1.0000
  S   S190      1.0  0.98769  0.38606  0.56758  1.0000
  C   C463      1.0  0.95256  0.37239  0.15782  1.0000
  H   H719      1.0  0.62906  0.43245  0.22618  1.0000
  H   H720      1.0  0.81238  0.35413  0.54937  1.0000
  H   H721      1.0  0.92600  0.33569  0.10510  1.0000
  C   C464      1.0  0.61139  0.55995  0.25225  1.0000
  C   C465      1.0  0.61866  0.42372  0.20240  1.0000
  H   H722      1.0  0.00027  0.43203  0.58248  1.0000
  N   N45       1.0  0.92508  0.33452  0.41838  1.0000
  H   H723      1.0  0.60985  0.57413  0.26370  1.0000
  H   H724      1.0  0.64218  0.35272  0.26832  1.0000
  H   H725      1.0  0.60308  0.45779  0.13795  1.0000
  S   S191      1.0  0.08559  0.40003  0.52776  1.0000
  H   H726      1.0  0.90755  0.57433  0.57864  1.0000
  C   C466      1.0  0.71451  0.34415  0.12838  1.0000
  H   H727      1.0  0.99855  0.35617  0.10766  1.0000
  H   H728      1.0  0.65238  0.33729  0.16768  1.0000
  H   H729      1.0  0.69139  0.35377  0.12112  1.0000
  H   H730      1.0  0.73317  0.34322  0.10323  1.0000
  N   N46       1.0  0.59617  0.43444  0.17473  1.0000
  C   C467      1.0  0.97348  0.36301  0.09535  1.0000
  H   H731      1.0  0.88798  0.33229  0.46602  1.0000
  C   C468      1.0  0.98831  0.44559  0.58474  1.0000
  H   H732      1.0  0.04147  0.45909  0.58391  1.0000
  C   C469      1.0  0.84201  0.33463  0.08984  1.0000
  H   H733      1.0  0.98119  0.37729  0.08778  1.0000
  H   H734      1.0  0.01529  0.54377  0.73234  1.0000
  C   C470      1.0  0.02832  0.55846  0.64137  1.0000
  H   H735      1.0  0.85572  0.34735  0.03630  1.0000
  H   H736      1.0  0.66595  0.52747  0.08141  1.0000
  H   H737      1.0  0.74713  0.57288  0.08237  1.0000
  C   C471      1.0  0.70350  0.53485  0.01713  1.0000
  C   C472      1.0  0.88373  0.37673  0.63514  1.0000
  C   C473      1.0  0.02867  0.55136  0.70864  1.0000
  H   H738      1.0  0.95561  0.55250  0.64649  1.0000
  C   C474      1.0  0.89987  0.34678  0.65939  1.0000
  H   H739      1.0  0.68879  0.48896  0.01638  1.0000
  N   N47       1.0  0.87692  0.36329  0.66589  1.0000
  H   H740      1.0  0.95492  0.54603  0.69602  1.0000
  H   H741      1.0  0.83109  0.34819  0.68898  1.0000
  C   C475      1.0  0.69319  0.50284  0.00413  1.0000
  H   H742      1.0  0.04021  0.52341  0.65888  1.0000
  H   H743      1.0  0.91353  0.38077  0.63406  1.0000
  H   H744      1.0  0.72906  0.53512  0.99942  1.0000
  H   H745      1.0  0.86861  0.33678  0.84450  1.0000
  N   N48       1.0  0.00961  0.54803  0.67178  1.0000
  H   H746      1.0  0.02819  0.56615  0.71615  1.0000
  H   H747      1.0  0.73472  0.52217  0.08135  1.0000
  H   H748      1.0  0.71823  0.50214  0.98567  1.0000
  C   C476      1.0  0.97038  0.55404  0.67435  1.0000
  H   H749      1.0  0.99826  0.51988  0.68547  1.0000
  H   H750      1.0  0.72635  0.49841  0.07327  1.0000
  H   H751      1.0  0.89590  0.33649  0.68241  1.0000
  H   H752      1.0  0.75617  0.51108  0.04183  1.0000
  H   H753      1.0  0.91673  0.37535  0.70430  1.0000
  H   H754      1.0  0.07698  0.33560  0.86899  1.0000
  C   C477      1.0  0.83718  0.35819  0.66588  1.0000
  H   H755      1.0  0.01614  0.55540  0.61285  1.0000
  C   C478      1.0  0.88692  0.37137  0.70323  1.0000
  H   H756      1.0  0.93000  0.35010  0.65827  1.0000
  H   H757      1.0  0.89242  0.34009  0.63192  1.0000
  H   H758      1.0  0.88211  0.36152  0.72702  1.0000
  H   H759      1.0  0.86706  0.38945  0.63914  1.0000
  H   H760      1.0  0.63863  0.52076  0.04108  1.0000
  H   H761      1.0  0.05855  0.55525  0.64019  1.0000
  H   H762      1.0  0.86997  0.38380  0.70923  1.0000
  H   H763      1.0  0.96824  0.56872  0.68240  1.0000
  H   H764      1.0  0.90180  0.36544  0.07697  1.0000
  H   H765      1.0  0.81892  0.37031  0.67042  1.0000
  S   S192      1.0  0.83501  0.33545  0.76974  1.0000
  C   C479      1.0  0.85991  0.33555  0.05454  1.0000
  H   H766      1.0  0.99594  0.52525  0.63564  1.0000
  C   C480      1.0  0.66378  0.51715  0.05820  1.0000
  N   N49       1.0  0.69764  0.51666  0.03454  1.0000
  H   H767      1.0  0.02562  0.57349  0.64590  1.0000
  C   C481      1.0  0.01110  0.52830  0.66268  1.0000
  H   H768      1.0  0.82868  0.35178  0.63837  1.0000
  H   H769      1.0  0.05843  0.54716  0.70756  1.0000
  H   H770      1.0  0.67957  0.53900  0.99870  1.0000
  H   H771      1.0  0.66885  0.50606  0.98542  1.0000
  H   H772      1.0  0.65855  0.50371  0.07208  1.0000
  H   H773      1.0  0.70671  0.54560  0.03934  1.0000
  C   C482      1.0  0.73011  0.51181  0.05871  1.0000
  H   H774      1.0  0.87632  0.37105  0.60664  1.0000
  H   H775      1.0  0.96630  0.35578  0.06825  1.0000
  C   C483      1.0  0.93450  0.46547  0.58937  1.0000
  C   C484      1.0  0.95777  0.48081  0.58874  1.0000
  H   H776      1.0  0.90468  0.46729  0.59072  1.0000
  C   C485      1.0  0.99638  0.47853  0.58681  1.0000
  H   H777      1.0  0.94580  0.49439  0.58982  1.0000
  C   C486      1.0  0.94971  0.44786  0.58648  1.0000
  C   C487      1.0  0.01164  0.46091  0.58555  1.0000
  H   H778      1.0  0.72588  0.82362  0.14020  1.0000
  H   H779      1.0  0.61513  0.81790  0.55585  1.0000
  H   H780      1.0  0.69090  0.71656  0.09238  1.0000
  C   C488      1.0  0.77952  0.72575  0.12044  1.0000
  C   C489      1.0  0.74849  0.81991  0.21360  1.0000
  H   H781      1.0  0.68624  0.80592  0.18282  1.0000
  H   H782      1.0  0.71066  0.71473  0.13941  1.0000
  H   H783      1.0  0.74545  0.81639  0.24437  1.0000
  H   H784      1.0  0.65747  0.82577  0.18977  1.0000
  S   S193      1.0  0.73860  0.77457  0.10901  1.0000
  C   C490      1.0  0.80854  0.82627  0.10413  1.0000
  H   H785      1.0  0.75261  0.80692  0.19772  1.0000
  H   H786      1.0  0.83461  0.81629  0.15570  1.0000
  C   C491      1.0  0.79330  0.79747  0.13465  1.0000
  H   H787      1.0  0.73243  0.81841  0.57882  1.0000
  C   C492      1.0  0.71348  0.72173  0.11136  1.0000
  H   H788      1.0  0.79769  0.78771  0.15751  1.0000
  C   C493      1.0  0.81400  0.81369  0.13380  1.0000
  H   H789      1.0  0.70829  0.73660  0.11602  1.0000
  C   C494      1.0  0.68264  0.81845  0.20059  1.0000
  H   H790      1.0  0.77580  0.74071  0.12513  1.0000
  H   H791      1.0  0.77870  0.71900  0.14892  1.0000
  H   H792      1.0  0.75403  0.69101  0.11674  1.0000
  H   H793      1.0  0.67700  0.81394  0.23037  1.0000
  C   C495      1.0  0.76667  0.79401  0.10625  1.0000
  N   N50       1.0  0.71589  0.83021  0.19899  1.0000
  H   H794      1.0  0.77449  0.82802  0.21106  1.0000
  N   N51       1.0  0.75051  0.71847  0.09457  1.0000
  H   H795      1.0  0.80781  0.72367  0.10852  1.0000
  C   C496      1.0  0.75636  0.69861  0.08930  1.0000
  S   S194      1.0  0.98470  0.58542  0.57200  1.0000
  H   H796      1.0  0.00846  0.66797  0.57116  1.0000
  H   H797      1.0  0.03343  0.64704  0.58049  1.0000
  H   H798      1.0  0.66715  0.58113  0.22747  1.0000
  H   H799      1.0  0.89182  0.61375  0.87551  1.0000
  H   H800      1.0  0.96776  0.64692  0.93889  1.0000
  H   H801      1.0  0.98163  0.80774  0.65090  1.0000
  H   H802      1.0  0.04185  0.80381  0.68463  1.0000
  H   H803      1.0  0.86899  0.82343  0.60202  1.0000
  Fe  Fe97      1.0  0.68959  0.63126  0.04107  1.0000
  S   S195      1.0  0.70207  0.62738  0.97921  1.0000
  S   S196      1.0  0.84054  0.81278  0.85982  1.0000
  Fe  Fe98      1.0  0.65763  0.60631  0.98047  1.0000
  H   H804      1.0  0.62987  0.62586  0.85902  1.0000
  Fe  Fe99      1.0  0.73961  0.60485  0.99953  1.0000
  S   S197      1.0  0.79385  0.59999  0.97015  1.0000
  H   H805      1.0  0.98189  0.63650  0.89496  1.0000
  H   H806      1.0  0.93092  0.60335  0.89926  1.0000
  Fe  Fe100     1.0  0.89084  0.67136  0.73084  1.0000
  S   S198      1.0  0.89957  0.67161  0.79411  1.0000
  S   S199      1.0  0.89923  0.69717  0.69732  1.0000
  Fe  Fe101     1.0  0.87662  0.63046  0.72857  1.0000
  S   S200      1.0  0.88377  0.62721  0.79190  1.0000
  H   H807      1.0  0.81770  0.59716  0.89234  1.0000
  Fe  Fe102     1.0  0.85015  0.65307  0.79562  1.0000
  S   S201      1.0  0.80739  0.65927  0.84040  1.0000
  Fe  Fe103     1.0  0.93213  0.64594  0.78469  1.0000
  S   S202      1.0  0.98721  0.64104  0.81308  1.0000
  S   S203      1.0  0.83846  0.65482  0.73270  1.0000
  S   S204      1.0  0.92796  0.64730  0.72105  1.0000
  C   C497      1.0  0.79849  0.61645  0.93432  1.0000
  C   C498      1.0  0.81094  0.61133  0.89811  1.0000
  C   C499      1.0  0.81362  0.62444  0.86900  1.0000
  C   C500      1.0  0.80432  0.64269  0.87627  1.0000
  C   C501      1.0  0.79220  0.64783  0.91259  1.0000
  C   C502      1.0  0.78938  0.63473  0.94164  1.0000
  H   H808      1.0  0.69099  0.65565  0.91773  1.0000
  H   H809      1.0  0.82194  0.62031  0.84071  1.0000
  H   H810      1.0  0.78510  0.66197  0.91833  1.0000
  H   H811      1.0  0.78042  0.63879  0.96983  1.0000
  C   C503      1.0  0.01269  0.62726  0.78179  1.0000
  C   C504      1.0  0.99394  0.61569  0.75650  1.0000
  H   H812      1.0  0.03410  0.74280  0.73466  1.0000
  H   H813      1.0  0.96403  0.61447  0.75779  1.0000
  H   H814      1.0  0.63111  0.64700  0.83290  1.0000
  C   C505      1.0  0.73056  0.81617  0.92270  1.0000
  H   H815      1.0  0.02858  0.63168  0.64232  1.0000
  H   H816      1.0  0.88235  0.73397  0.67280  1.0000
  H   H817      1.0  0.61036  0.63561  0.98169  1.0000
  C   C506      1.0  0.05148  0.62837  0.78069  1.0000
  H   H818      1.0  0.77995  0.72548  0.04333  1.0000
  C   C507      1.0  0.98524  0.67324  0.64348  1.0000
  H   H819      1.0  0.99919  0.59688  0.70967  1.0000
  H   H820      1.0  0.68887  0.66535  0.83204  1.0000
  H   H821      1.0  0.71328  0.61705  0.85256  1.0000
  H   H822      1.0  0.65072  0.66326  0.89156  1.0000
  C   C508      1.0  0.68255  0.70678  0.98306  1.0000
  C   C509      1.0  0.70425  0.69124  0.97573  1.0000
  C   C510      1.0  0.70275  0.67608  0.00033  1.0000
  C   C511      1.0  0.67934  0.67644  0.03210  1.0000
  C   C512      1.0  0.65683  0.69175  0.03861  1.0000
  C   C513      1.0  0.65816  0.70681  0.01393  1.0000
  H   H823      1.0  0.72341  0.69122  0.95205  1.0000
  H   H824      1.0  0.72119  0.66459  0.99589  1.0000
  H   H825      1.0  0.73073  0.72288  0.03715  1.0000
  C   C514      1.0  0.95983  0.60095  0.63744  1.0000
  C   C515      1.0  0.96399  0.63465  0.92053  1.0000
  C   C516      1.0  0.80859  0.71948  0.74698  1.0000
  C   C517      1.0  0.83679  0.70723  0.73647  1.0000
  C   C518      1.0  0.86356  0.71244  0.70986  1.0000
  C   C519      1.0  0.86225  0.73001  0.69400  1.0000
  C   C520      1.0  0.01382  0.60566  0.72936  1.0000
  H   H826      1.0  0.78785  0.71532  0.76740  1.0000
  H   H827      1.0  0.83768  0.69376  0.74907  1.0000
  H   H828      1.0  0.64937  0.64214  0.91757  1.0000
  C   C521      1.0  0.71233  0.77097  0.83011  1.0000
  H   H829      1.0  0.78577  0.76359  0.82431  1.0000
  C   C522      1.0  0.66736  0.65095  0.89957  1.0000
  H   H830      1.0  0.98627  0.74493  0.66277  1.0000
  C   C523      1.0  0.05240  0.60734  0.72708  1.0000
  C   C524      1.0  0.01773  0.64464  0.65482  1.0000
  Fe  Fe104     1.0  0.67537  0.75185  0.99035  1.0000
  H   H831      1.0  0.68263  0.76692  0.83187  1.0000
  H   H832      1.0  0.87194  0.62818  0.93651  1.0000
  H   H833      1.0  0.70392  0.73565  0.85009  1.0000
  H   H834      1.0  0.99937  0.64081  0.67896  1.0000
  H   H835      1.0  0.64029  0.71845  0.01886  1.0000
  C   C525      1.0  0.94698  0.75978  0.72002  1.0000
  C   C526      1.0  0.92117  0.61599  0.88451  1.0000
  H   H836      1.0  0.69359  0.75887  0.90002  1.0000
  N   N52       1.0  0.92460  0.63222  0.90941  1.0000
  C   C527      1.0  0.91475  0.58292  0.60269  1.0000
  H   H837      1.0  0.02024  0.76350  0.71090  1.0000
  H   H838      1.0  0.88216  0.64708  0.87851  1.0000
  H   H839      1.0  0.74090  0.80402  0.05448  1.0000
  C   C528      1.0  0.73425  0.82442  0.88689  1.0000
  S   S205      1.0  0.61649  0.60427  0.93232  1.0000
  H   H840      1.0  0.98799  0.60577  0.64095  1.0000
  N   N53       1.0  0.68060  0.64099  0.86550  1.0000
  H   H841      1.0  0.93799  0.61753  0.85811  1.0000
  H   H842      1.0  0.07374  0.68250  0.67426  1.0000
  H   H843      1.0  0.94026  0.61375  0.68866  1.0000
  C   C529      1.0  0.97821  0.73546  0.68617  1.0000
  H   H844      1.0  0.72845  0.65825  0.85980  1.0000
  S   S206      1.0  0.05926  0.79701  0.76419  1.0000
  H   H845      1.0  0.91027  0.61706  0.95993  1.0000
  H   H846      1.0  0.97488  0.62255  0.93643  1.0000
  N   N54       1.0  0.73578  0.76025  0.85689  1.0000
  H   H847      1.0  0.95353  0.76955  0.69666  1.0000
  H   H848      1.0  0.75050  0.73213  0.86728  1.0000
  S   S207      1.0  0.86186  0.60608  0.69234  1.0000
  S   S208      1.0  0.68873  0.72671  0.95597  1.0000
  H   H849      1.0  0.72645  0.62855  0.89556  1.0000
  H   H850      1.0  0.68504  0.61507  0.89445  1.0000
  C   C530      1.0  0.93282  0.60554  0.66438  1.0000
  C   C531      1.0  0.70447  0.65316  0.84264  1.0000
  C   C532      1.0  0.80776  0.73717  0.73180  1.0000
  C   C533      1.0  0.89643  0.59929  0.66011  1.0000
  H   H851      1.0  0.85950  0.58259  0.62641  1.0000
  C   C534      1.0  0.64829  0.63510  0.84235  1.0000
  C   C535      1.0  0.07135  0.61846  0.75318  1.0000
  H   H852      1.0  0.04741  0.66786  0.60337  1.0000
  C   C536      1.0  0.88759  0.58762  0.62966  1.0000
  C   C537      1.0  0.90187  0.62962  0.94397  1.0000
  C   C538      1.0  0.70225  0.62470  0.87752  1.0000
  H   H853      1.0  0.95133  0.72899  0.67804  1.0000
  C   C539      1.0  0.95068  0.58997  0.60620  1.0000
  C   C540      1.0  0.91138  0.64864  0.88856  1.0000
  C   C541      1.0  0.73753  0.82914  0.63599  1.0000
  H   H854      1.0  0.71629  0.64595  0.81745  1.0000
  H   H855      1.0  0.92860  0.65130  0.86294  1.0000
  N   N55       1.0  0.97538  0.74516  0.72305  1.0000
  H   H856      1.0  0.99963  0.72441  0.68747  1.0000
  C   C542      1.0  0.79868  0.81468  0.88447  1.0000
  H   H857      1.0  0.94500  0.76777  0.74696  1.0000
  H   H858      1.0  0.01089  0.76073  0.76060  1.0000
  H   H859      1.0  0.83403  0.75614  0.69350  1.0000
  H   H860      1.0  0.91254  0.66109  0.90671  1.0000
  C   C543      1.0  0.73302  0.74058  0.84762  1.0000
  H   H861      1.0  0.71391  0.78590  0.83634  1.0000
  H   H862      1.0  0.65724  0.62753  0.81642  1.0000
  H   H863      1.0  0.06609  0.63722  0.80041  1.0000
  S   S209      1.0  0.64154  0.61190  0.04095  1.0000
  H   H864      1.0  0.91893  0.75417  0.71396  1.0000
  S   S210      1.0  0.68143  0.65908  0.06661  1.0000
  C   C544      1.0  0.77489  0.76611  0.85352  1.0000
  C   C545      1.0  0.83478  0.74251  0.70552  1.0000
  H   H865      1.0  0.74244  0.73778  0.81792  1.0000
  N   N56       1.0  0.99773  0.65587  0.62598  1.0000
  H   H866      1.0  0.93730  0.72563  0.74649  1.0000
  Fe  Fe105     1.0  0.79666  0.78094  0.74354  1.0000
  S   S211      1.0  0.85415  0.78573  0.76606  1.0000
  H   H867      1.0  0.63856  0.69202  0.06303  1.0000
  Fe  Fe106     1.0  0.85856  0.80555  0.71745  1.0000
  S   S212      1.0  0.90677  0.80863  0.67795  1.0000
  Fe  Fe107     1.0  0.82790  0.80914  0.79737  1.0000
  H   H868      1.0  0.98535  0.80279  0.79213  1.0000
  S   S213      1.0  0.80339  0.79840  0.69151  1.0000
  S   S214      1.0  0.76981  0.80292  0.77821  1.0000
  Fe  Fe108     1.0  0.67764  0.79312  0.98525  1.0000
  S   S215      1.0  0.72105  0.77206  0.99927  1.0000
  H   H869      1.0  0.96624  0.67080  0.66786  1.0000
  Fe  Fe109     1.0  0.61923  0.77489  0.03310  1.0000
  S   S216      1.0  0.77352  0.75267  0.74665  1.0000
  Fe  Fe110     1.0  0.69951  0.77451  0.05881  1.0000
  S   S217      1.0  0.65771  0.75227  0.05158  1.0000
  S   S218      1.0  0.65957  0.79735  0.04580  1.0000
  S   S219      1.0  0.63339  0.77264  0.97103  1.0000
  H   H870      1.0  0.72404  0.77810  0.90406  1.0000
  C   C546      1.0  0.01642  0.80422  0.70074  1.0000
  H   H871      1.0  0.74011  0.75563  0.91744  1.0000
  C   C547      1.0  0.95047  0.80661  0.74233  1.0000
  C   C548      1.0  0.94933  0.80764  0.70245  1.0000
  C   C549      1.0  0.72287  0.76336  0.89633  1.0000
  H   H872      1.0  0.92507  0.80753  0.75854  1.0000
  H   H873      1.0  0.96212  0.73894  0.78135  1.0000
  C   C550      1.0  0.98237  0.80677  0.68172  1.0000
  H   H874      1.0  0.72128  0.76895  0.80001  1.0000
  C   C551      1.0  0.01173  0.75335  0.73280  1.0000
  C   C552      1.0  0.76143  0.80654  0.07650  1.0000
  S   S220      1.0  0.68724  0.81647  0.94508  1.0000
  H   H875      1.0  0.00908  0.68136  0.65447  1.0000
  S   S221      1.0  0.73125  0.61050  0.06189  1.0000
  C   C553      1.0  0.79535  0.80683  0.92073  1.0000
  C   C554      1.0  0.76127  0.80759  0.93985  1.0000
  H   H876      1.0  0.81894  0.79994  0.93374  1.0000
  H   H877      1.0  0.75892  0.80176  0.96801  1.0000
  H   H878      1.0  0.77782  0.78098  0.85913  1.0000
  H   H879      1.0  0.98544  0.72082  0.75610  1.0000
  H   H880      1.0  0.79334  0.75871  0.87400  1.0000
  C   C555      1.0  0.98457  0.80399  0.76133  1.0000
  C   C556      1.0  0.96463  0.73207  0.75315  1.0000
  H   H881      1.0  0.74351  0.81597  0.64870  1.0000
  C   C557      1.0  0.01749  0.80240  0.74048  1.0000
  Fe  Fe111     1.0  0.68409  0.59062  0.05611  1.0000
  H   H882      1.0  0.90425  0.64145  0.96376  1.0000
  Fe  Fe112     1.0  0.78204  0.82110  0.72836  1.0000
  H   H883      1.0  0.04195  0.65203  0.66716  1.0000
  S   S222      1.0  0.08236  0.72110  0.67717  1.0000
  H   H884      1.0  0.96974  0.68196  0.62263  1.0000
  H   H885      1.0  0.80792  0.82646  0.99099  1.0000
  C   C558      1.0  0.76823  0.82360  0.86770  1.0000
  H   H886      1.0  0.78413  0.69557  0.07701  1.0000
  H   H887      1.0  0.97349  0.63282  0.59702  1.0000
  C   C559      1.0  0.02285  0.65986  0.59384  1.0000
  H   H888      1.0  0.73526  0.69278  0.06955  1.0000
  C   C560      1.0  0.78226  0.82265  0.07552  1.0000
  H   H889      1.0  0.94582  0.64205  0.63504  1.0000
  C   C561      1.0  0.96507  0.64574  0.61152  1.0000
  S   S223      1.0  0.07622  0.59589  0.69072  1.0000
  C   C562      1.0  0.75262  0.72781  0.05718  1.0000
  H   H890      1.0  0.85545  0.82611  0.97584  1.0000
  H   H891      1.0  0.74874  0.74285  0.06020  1.0000
  S   S224      1.0  0.69595  0.58319  0.99537  1.0000
  H   H892      1.0  0.59042  0.58234  0.06678  1.0000
  H   H893      1.0  0.77091  0.83003  0.84002  1.0000
  S   S225      1.0  0.83789  0.82954  0.75090  1.0000
  C   C563      1.0  0.73097  0.83052  0.59650  1.0000
  H   H894      1.0  0.94876  0.65397  0.59047  1.0000
  Fe  Fe113     1.0  0.84721  0.85784  0.16053  1.0000
  S   S226      1.0  0.86586  0.84199  0.21241  1.0000
  H   H895      1.0  0.89855  0.91539  0.28521  1.0000
  Fe  Fe114     1.0  0.84381  0.89385  0.20272  1.0000
  S   S227      1.0  0.86078  0.88115  0.25810  1.0000
  Fe  Fe115     1.0  0.90303  0.86606  0.22354  1.0000
  S   S228      1.0  0.95909  0.86588  0.25259  1.0000
  Fe  Fe116     1.0  0.82234  0.85855  0.24242  1.0000
  S   S229      1.0  0.78569  0.84581  0.28651  1.0000
  S   S230      1.0  0.88869  0.88036  0.16855  1.0000
  S   S231      1.0  0.80079  0.87266  0.18992  1.0000
  Fe  Fe117     1.0  0.69784  0.87661  0.50751  1.0000
  S   S232      1.0  0.65172  0.87779  0.46400  1.0000
  S   S233      1.0  0.71559  0.84903  0.53025  1.0000
  C   C564      1.0  0.99728  0.86870  0.22237  1.0000
  H   H896      1.0  0.87632  0.02700  0.14501  1.0000
  H   H897      1.0  0.91388  0.07433  0.14639  1.0000
  Fe  Fe118     1.0  0.63020  0.90080  0.49988  1.0000
  H   H898      1.0  0.92056  0.93643  0.29813  1.0000
  Fe  Fe119     1.0  0.68547  0.89944  0.43554  1.0000
  H   H899      1.0  0.69900  0.84403  0.14733  1.0000
  S   S234      1.0  0.67417  0.89844  0.54527  1.0000
  S   S235      1.0  0.73439  0.89565  0.47457  1.0000
  H   H900      1.0  0.05592  0.91511  0.19474  1.0000
  H   H901      1.0  0.66780  0.95024  0.53532  1.0000
  H   H902      1.0  0.98365  0.92414  0.28174  1.0000
  H   H903      1.0  0.61652  0.86780  0.53641  1.0000
  C   C565      1.0  0.08263  0.05352  0.20064  1.0000
  C   C566      1.0  0.97910  0.05514  0.09095  1.0000
  H   H904      1.0  0.96655  0.86372  0.17046  1.0000
  C   C567      1.0  0.71745  0.88881  0.34957  1.0000
  C   C568      1.0  0.73341  0.89302  0.31430  1.0000
  C   C569      1.0  0.75508  0.87995  0.29523  1.0000
  C   C570      1.0  0.76000  0.86250  0.31094  1.0000
  C   C571      1.0  0.74371  0.85823  0.34601  1.0000
  C   C572      1.0  0.72288  0.87146  0.36561  1.0000
  S   S236      1.0  0.83411  0.84659  0.10223  1.0000
  H   H905      1.0  0.76765  0.88337  0.26822  1.0000
  H   H906      1.0  0.74756  0.84474  0.35826  1.0000
  H   H907      1.0  0.71064  0.86815  0.39286  1.0000
  H   H908      1.0  0.03559  0.93673  0.20788  1.0000
  H   H909      1.0  0.73452  0.85580  0.22221  1.0000
  C   C573      1.0  0.03225  0.87254  0.23826  1.0000
  C   C574      1.0  0.88623  0.04918  0.39305  1.0000
  H   H910      1.0  0.88806  0.05959  0.46680  1.0000
  C   C575      1.0  0.02464  0.86836  0.15933  1.0000
  C   C576      1.0  0.91299  0.92261  0.30898  1.0000
  H   H911      1.0  0.07511  0.92816  0.09452  1.0000
  C   C577      1.0  0.83987  0.06993  0.13986  1.0000
  H   H912      1.0  0.60332  0.01336  0.47261  1.0000
  H   H913      1.0  0.84926  0.03861  0.18035  1.0000
  N   N57       1.0  0.86454  0.06410  0.41087  1.0000
  C   C578      1.0  0.93484  0.89386  0.33505  1.0000
  H   H914      1.0  0.92170  0.88604  0.31136  1.0000
  H   H915      1.0  0.95917  0.88558  0.34488  1.0000
  S   S237      1.0  0.69067  0.90535  0.37314  1.0000
  H   H916      1.0  0.82902  0.06752  0.36167  1.0000
  N   N58       1.0  0.94612  0.91229  0.32228  1.0000
  H   H917      1.0  0.89057  0.84098  0.57381  1.0000
  C   C579      1.0  0.05684  0.93014  0.18948  1.0000
  C   C580      1.0  0.85529  0.03803  0.14919  1.0000
  H   H918      1.0  0.03541  0.87379  0.26888  1.0000
  C   C581      1.0  0.99339  0.86687  0.18283  1.0000
  C   C582      1.0  0.72283  0.84753  0.57985  1.0000
  H   H919      1.0  0.02175  0.86644  0.12882  1.0000
  C   C583      1.0  0.07829  0.92482  0.12536  1.0000
  H   H920      1.0  0.59769  0.05550  0.47975  1.0000
  H   H921      1.0  0.81405  0.06642  0.12384  1.0000
  H   H922      1.0  0.98921  0.91481  0.36471  1.0000
  N   N59       1.0  0.86892  0.05579  0.13487  1.0000
  C   C584      1.0  0.69077  0.07650  0.56890  1.0000
  H   H923      1.0  0.92471  0.05059  0.15370  1.0000
  H   H924      1.0  0.97236  0.93616  0.34562  1.0000
  H   H925      1.0  0.99095  0.93643  0.15269  1.0000
  H   H926      1.0  0.72932  0.90644  0.30186  1.0000
  C   C585      1.0  0.97288  0.91056  0.29067  1.0000
  C   C586      1.0  0.06340  0.87432  0.21470  1.0000
  H   H927      1.0  0.91441  0.89454  0.35869  1.0000
  H   H928      1.0  0.00771  0.93069  0.10623  1.0000
  C   C587      1.0  0.87832  0.05412  0.09398  1.0000
  H   H929      1.0  0.89663  0.06260  0.18759  1.0000
  Fe  Fe120     1.0  0.69598  0.03228  0.48349  1.0000
  S   S238      1.0  0.68733  0.02115  0.42485  1.0000
  S   S239      1.0  0.66722  0.01723  0.53013  1.0000
  Fe  Fe121     1.0  0.73946  0.06482  0.45588  1.0000
  S   S240      1.0  0.73322  0.05711  0.39414  1.0000
  H   H930      1.0  0.99710  0.90180  0.29876  1.0000
  Fe  Fe122     1.0  0.67457  0.05023  0.40930  1.0000
  S   S241      1.0  0.62289  0.05738  0.37631  1.0000
  Fe  Fe123     1.0  0.74673  0.02872  0.41490  1.0000
  S   S242      1.0  0.78864  0.00916  0.39000  1.0000
  S   S243      1.0  0.67916  0.06091  0.46903  1.0000
  S   S244      1.0  0.75697  0.03695  0.47565  1.0000
  Fe  Fe124     1.0  0.98155  0.02680  0.16905  1.0000
  S   S245      1.0  0.97885  0.04802  0.21501  1.0000
  H   H931      1.0  0.81219  0.05194  0.39716  1.0000
  Fe  Fe125     1.0  0.97935  0.99541  0.22622  1.0000
  S   S246      1.0  0.97623  0.01400  0.27708  1.0000
  S   S247      1.0  0.98480  0.96490  0.23114  1.0000
  Fe  Fe126     1.0  0.93560  0.03005  0.24103  1.0000
  S   S248      1.0  0.88214  0.04401  0.25720  1.0000
  Fe  Fe127     1.0  0.01964  0.03001  0.24597  1.0000
  S   S249      1.0  0.83309  0.92407  0.20321  1.0000
  S   S250      1.0  0.93510  0.01007  0.19259  1.0000
  S   S251      1.0  0.02599  0.01013  0.19787  1.0000
  H   H932      1.0  0.60154  0.03939  0.51846  1.0000
  C   C588      1.0  0.75312  0.94072  0.42024  1.0000
  C   C589      1.0  0.70993  0.84666  0.22276  1.0000
  H   H933      1.0  0.77988  0.94305  0.43557  1.0000
  H   H934      1.0  0.05541  0.04831  0.19393  1.0000
  C   C590      1.0  0.96385  0.92214  0.35436  1.0000
  C   C591      1.0  0.62282  0.02206  0.34977  1.0000
  C   C592      1.0  0.60520  0.00564  0.33989  1.0000
  H   H935      1.0  0.65281  0.02272  0.35056  1.0000
  H   H936      1.0  0.87254  0.03569  0.39717  1.0000
  C   C593      1.0  0.81276  0.01755  0.35032  1.0000
  C   C594      1.0  0.84709  0.00980  0.34048  1.0000
  C   C595      1.0  0.86834  0.01752  0.31113  1.0000
  C   C596      1.0  0.85513  0.03297  0.29159  1.0000
  C   C597      1.0  0.82024  0.04027  0.30055  1.0000
  C   C598      1.0  0.79897  0.03249  0.32964  1.0000
  H   H937      1.0  0.85772  0.99811  0.35617  1.0000
  H   H938      1.0  0.89512  0.01171  0.30406  1.0000
  H   H939      1.0  0.80970  0.05207  0.28512  1.0000
  H   H940      1.0  0.77196  0.03812  0.33607  1.0000
  C   C599      1.0  0.73405  0.97217  0.42819  1.0000
  H   H941      1.0  0.95971  0.90410  0.26521  1.0000
  H   H942      1.0  0.75925  0.97545  0.35597  1.0000
  S   S252      1.0  0.66040  0.92269  0.46806  1.0000
  H   H943      1.0  0.08209  0.95935  0.15078  1.0000
  C   C600      1.0  0.82733  0.06500  0.39296  1.0000
  H   H944      1.0  0.62162  0.99359  0.33362  1.0000
  C   C601      1.0  0.68854  0.99566  0.53231  1.0000
  C   C602      1.0  0.72717  0.99428  0.52930  1.0000
  C   C603      1.0  0.74446  0.97710  0.52913  1.0000
  C   C604      1.0  0.72309  0.96121  0.53083  1.0000
  C   C605      1.0  0.68436  0.96251  0.53363  1.0000
  C   C606      1.0  0.66709  0.97978  0.53486  1.0000
  N   N60       1.0  0.74019  0.95739  0.40012  1.0000
  H   H945      1.0  0.77440  0.97611  0.52707  1.0000
  C   C607      1.0  0.98644  0.06943  0.11636  1.0000
  H   H946      1.0  0.63718  0.98080  0.53707  1.0000
  C   C608      1.0  0.87500  0.93572  0.21037  1.0000
  C   C609      1.0  0.90869  0.92614  0.20951  1.0000
  C   C610      1.0  0.94223  0.93528  0.21540  1.0000
  C   C611      1.0  0.94231  0.95402  0.22290  1.0000
  C   C612      1.0  0.90865  0.96366  0.22447  1.0000
  C   C613      1.0  0.87497  0.95452  0.21790  1.0000
  C   C614      1.0  0.76857  0.96315  0.37232  1.0000
  H   H947      1.0  0.96808  0.92773  0.21423  1.0000
  H   H948      1.0  0.90841  0.97806  0.23125  1.0000
  H   H949      1.0  0.84891  0.96196  0.21903  1.0000
  C   C615      1.0  0.70500  0.95355  0.37969  1.0000
  H   H950      1.0  0.74386  0.00649  0.52776  1.0000
  C   C616      1.0  0.05377  0.95447  0.14294  1.0000
  H   H951      1.0  0.73281  0.93633  0.44212  1.0000
  H   H952      1.0  0.60185  0.02992  0.43502  1.0000
  Fe  Fe128     1.0  0.70712  0.91761  0.50912  1.0000
  C   C617      1.0  0.90248  0.06109  0.15660  1.0000
  H   H953      1.0  0.79512  0.96684  0.38685  1.0000
  S   S253      1.0  0.07152  0.04084  0.27319  1.0000
  H   H954      1.0  0.00847  0.91375  0.14353  1.0000
  H   H955      1.0  0.89236  0.92444  0.33216  1.0000
  H   H956      1.0  0.99499  0.06650  0.14534  1.0000
  H   H957      1.0  0.66961  0.06575  0.56331  1.0000
  H   H958      1.0  0.03355  0.96217  0.16086  1.0000
  H   H959      1.0  0.77458  0.95213  0.35130  1.0000
  H   H960      1.0  0.83239  0.07144  0.17055  1.0000
  N   N61       1.0  0.05040  0.93450  0.14874  1.0000
  H   H961      1.0  0.83025  0.85522  0.55732  1.0000
  H   H962      1.0  0.90904  0.91164  0.20463  1.0000
  S   S254      1.0  0.98083  0.03220  0.10575  1.0000
  H   H963      1.0  0.69377  0.96602  0.36532  1.0000
  H   H964      1.0  0.94457  0.92356  0.37890  1.0000
  H   H965      1.0  0.71245  0.96839  0.44934  1.0000
  H   H966      1.0  0.77794  0.06275  0.53214  1.0000
  H   H967      1.0  0.68548  0.85478  0.21280  1.0000
  H   H968      1.0  0.75689  0.92906  0.40016  1.0000
  H   H969      1.0  0.70897  0.94290  0.35733  1.0000
  H   H970      1.0  0.68341  0.94840  0.39952  1.0000
  H   H971      1.0  0.04857  0.95834  0.11264  1.0000
  H   H972      1.0  0.75996  0.97533  0.44444  1.0000
  C   C618      1.0  0.05969  0.87194  0.17527  1.0000
  H   H973      1.0  0.72497  0.98505  0.41392  1.0000
  S   S255      1.0  0.74536  0.93994  0.52771  1.0000
  H   H974      1.0  0.84571  0.04736  0.45736  1.0000
  C   C619      1.0  0.01272  0.92855  0.13730  1.0000
  H   H975      1.0  0.88897  0.05129  0.36164  1.0000
  C   C620      1.0  0.60885  0.86403  0.56604  1.0000
  H   H976      1.0  0.07588  0.90971  0.12846  1.0000
  H   H977      1.0  0.60830  0.92252  0.40149  1.0000
  H   H978      1.0  0.82942  0.03377  0.13416  1.0000
  H   H979      1.0  0.91476  0.04818  0.40537  1.0000
  C   C621      1.0  0.78469  0.07595  0.54387  1.0000
  H   H980      1.0  0.70548  0.84299  0.25328  1.0000
  H   H981      1.0  0.74825  0.84404  0.15641  1.0000
  N   N62       1.0  0.59498  0.84507  0.56784  1.0000
  H   H982      1.0  0.63504  0.83561  0.52686  1.0000
  C   C622      1.0  0.79334  0.07751  0.58285  1.0000
  C   C623      1.0  0.72250  0.83575  0.15901  1.0000
  C   C624      1.0  0.86055  0.06047  0.45219  1.0000
  C   C625      1.0  0.60163  0.03762  0.35827  1.0000
  H   H983      1.0  0.81011  0.07617  0.40546  1.0000
  H   H984      1.0  0.84415  0.07148  0.46639  1.0000
  H   H985      1.0  0.70792  0.07778  0.54273  1.0000
  C   C626      1.0  0.62480  0.83232  0.55604  1.0000
  H   H986      1.0  0.64927  0.83310  0.57562  1.0000
  H   H987      1.0  0.89998  0.04339  0.08943  1.0000
  H   H988      1.0  0.63401  0.86587  0.58435  1.0000
  H   H989      1.0  0.58743  0.87409  0.57542  1.0000
  H   H990      1.0  0.08447  0.93516  0.19926  1.0000
  H   H991      1.0  0.80741  0.83730  0.58298  1.0000
  H   H992      1.0  0.07856  0.05416  0.07310  1.0000
  S   S256      1.0  0.74414  0.84369  0.70827  1.0000
  C   C627      1.0  0.96598  0.07734  0.04086  1.0000
  H   H993      1.0  0.87847  0.87396  0.59018  1.0000
  C   C628      1.0  0.73541  0.84474  0.65898  1.0000
  H   H994      1.0  0.88930  0.85573  0.96884  1.0000
  C   C629      1.0  0.86654  0.86253  0.98498  1.0000
  H   H995      1.0  0.71602  0.87631  0.59046  1.0000
  H   H996      1.0  0.81874  0.86715  0.92677  1.0000
  C   C630      1.0  0.80145  0.86236  0.00130  1.0000
  H   H997      1.0  0.79790  0.86078  0.59426  1.0000
  H   H998      1.0  0.90382  0.83770  0.62293  1.0000
  C   C631      1.0  0.72095  0.86308  0.60291  1.0000
  H   H999      1.0  0.04196  0.07434  0.02982  1.0000
  H   H1000     1.0  0.84399  0.83333  0.02338  1.0000
  H   H1001     1.0  0.85363  0.05036  0.07644  1.0000
  C   C632      1.0  0.72678  0.86166  0.64239  1.0000
  H   H1002     1.0  0.96301  0.04812  0.03345  1.0000
  H   H1003     1.0  0.72537  0.87379  0.66005  1.0000
  H   H1004     1.0  0.84544  0.87952  0.62671  1.0000
  H   H1005     1.0  0.77719  0.83249  0.05308  1.0000
  C   C633      1.0  0.86682  0.86931  0.61786  1.0000
  H   H1006     1.0  0.81454  0.85501  0.66268  1.0000
  C   C634      1.0  0.87978  0.83770  0.60268  1.0000
  H   H1007     1.0  0.88962  0.86961  0.63956  1.0000
  N   N63       1.0  0.83084  0.85295  0.97939  1.0000
  H   H1008     1.0  0.07740  0.07274  0.99417  1.0000
  N   N64       1.0  0.85071  0.85082  0.61462  1.0000
  H   H1009     1.0  0.92224  0.07167  0.70848  1.0000
  H   H1010     1.0  0.79313  0.84647  0.93354  1.0000
  C   C635      1.0  0.82065  0.85300  0.93840  1.0000
  H   H1011     1.0  0.95735  0.08029  0.01189  1.0000
  C   C636      1.0  0.06845  0.08043  0.01996  1.0000
  H   H1012     1.0  0.87485  0.86266  0.01575  1.0000
  C   C637      1.0  0.83475  0.83387  0.99296  1.0000
  H   H1013     1.0  0.77416  0.85536  0.99800  1.0000
  H   H1014     1.0  0.84134  0.84535  0.92095  1.0000
  H   H1015     1.0  0.79766  0.87676  0.99170  1.0000
  C   C638      1.0  0.82030  0.85104  0.58601  1.0000
  C   C639      1.0  0.83591  0.84521  0.65207  1.0000
  H   H1016     1.0  0.85840  0.84424  0.67400  1.0000
  H   H1017     1.0  0.80828  0.86267  0.03237  1.0000
  H   H1018     1.0  0.88965  0.06716  0.08249  1.0000
  C   C640      1.0  0.96896  0.05913  0.05317  1.0000
  H   H1019     1.0  0.79311  0.06549  0.60092  1.0000
  H   H1020     1.0  0.86473  0.87700  0.97520  1.0000
  H   H1021     1.0  0.60760  0.84242  0.62769  1.0000
  H   H1022     1.0  0.71062  0.83123  0.87369  1.0000
  H   H1023     1.0  0.82250  0.83157  0.65040  1.0000
  H   H1024     1.0  0.70943  0.07145  0.59219  1.0000
