data_image0
_chemical_formula_structural       HCFeSHFeSHFeCFeS3FeS2FeHSFeSC2S2HC2H2CHCHCSH2C6H4SC4SCHC2HCHCH2NH3CHC3HC2HCHCH6CHFeCSH4C2H5CNHCH2CHCNH3CHCHCHC2H3CH3SH4C5H2SCNH5FeHFeSCH2FeSHSFeSFeCSCS2C4H2C3H2C5H5FeHSNH2NFeH2CSH3CH2NCHS2H2C2SHSCH4CHC2SCH3C3H3NHCH5C2HCH3SH2C2H2SH2C3H2CH2C2SHSH3NH3C2HC2H3CHFeCSH2CHCSCH4CHCH5CH3C2H3C3H3CHCHNH4SH2CHFeCSHNC2H2CHCH6FeSH2CFeSFeSH2FeSHFeH3FeHC5HC2H3NH3SH4SNHC2H2C2H4C2H2C2H3S2CHSCSHFeS2FeS2FeSFeS3HS2CSFe2SFeSCHC2HCHCH2CNCHCHC7H4CH2CH4SHC6H8CHCSHCFeSHC2H4FeH4NH2CHCH2CH7CSHNHC4SFeS2FeS2FeSFeHS2CSH2SHFeSFeSFeHSHCH2C6H4C3HC3FeSC2HSH3CFeC6H3NHCH6C2H2CH2CH4CH3CS2H4FeH3C3HSNCH3CH2SFeHCSFeSFeS2HSNCHFeSHSH2SHSHC6H3FeH7C2FeHNH2CH3NHSCH4CH2NHC2H3CHCH3NHNHSHCH5CSC3H4C2HCH2C2H4C3H5CH2CH2CH3CHCH2CHNHCHNHC2H3CHCH6C2H4C2HCHCH2CHSNH3C2SH4FeCFeHSCHSCFeS2FeSHFeS2CH2CSH3NHC6H3FeC2SH2SHCFeH3FeHNH2SHCSCH2SHCH6CH6CFeS3C2FeSFeCS2FeSCFeS2FeSFeS3H2SC4H4CH2NHC6H4C6NH3C6HCHCH5SH3CH6C2HC2HCHC2NH5CSH4FeH2C2H3CH2CH3C2SHFeS2FeS2H2FeS3FeSHFeSHFeSFeS3H2FeHC3HC6H4SCH4CH2SCHC2HC6H2CH3NCHNHSH5CHC4HNCHCH5C2H2SHSHCH3CHCHCSH2CH4SCHC2H6Fe2H2CH4CSCH2SCHCFeS2Fe2SHNHSFe2HSFeH2C7HCHCH6SC3H2NH2CH2CH2CHCSC2H4CH2C2H2FeH6CH4FeSH2SCHSC5HSC3NHNCH2CH2C2H4SHCH5NH5CFeHNH3SH2C3HNHNH2CH3CH2CH2CH4C3H2C2HCH4CH3NHFeSFeS2FeCFeS2FeSFeSH2SHCH6C6H6CSH3S2H2C2HCHCH2CFeH3SFeSCFeS2FeSFeS3FeS2H4SH2SHC3NSHC6H4C3H2C6H2C2HC5H4CHCHSCHCHNHC2H2C4H3CSCH9CFeHCH3NC2HCHSHC2HC2H5CHNSHFeSHFeSHFeSFeCSHNS2FeS2FeCFeSHSC3H2SCH2SC6H5C3SNCH2C7H4NH4NFeCH2SCH3C2H2Fe2H4FeCH5CH2CHCHNHCH3CHSH2C2H3C2HSHSHCH2CHSFeSHCH2FeSH2FeH3SH2SHSC3HSC4HCH2CHCHCHSHC3H2CSHSC2HC2HFeHCHCH2FeH2C2HC3H6CH4NH2CH3CH5C3H2CHCHSCH3C2HCHCHNH4NH5CSH3CHS2H4CH3CHC2H4SHCSH2CHCHCNCNCSH2C2HFeSHFeSHFe3S2FeSHFeS2HFeNS2H2CHC2SH3SH5C3H7CSCHSHSHC3SHNCH2C3HCH3C2H12CHCSFeS2FeSHFeSFeS3FeS2FeSCFeCFeSHSCHC2H2C2HCHC7H5C2HC7H4C3H2NH4C4H5CNC4H6C3H2CHCHC2H4NHCH8NC2HCSCH4CH2CH3SH3
_chemical_formula_sum              "H1024 C640 Fe128 S256 N64"
_cell_length_a       31.7631
_cell_length_b       63.818
_cell_length_c       41.5523
_cell_angle_alpha    89.6181
_cell_angle_beta     89.2404
_cell_angle_gamma    88.7514

_space_group_name_H-M_alt    "P 1"
_space_group_IT_number       1

loop_
  _space_group_symop_operation_xyz
  'x, y, z'

loop_
  _atom_site_type_symbol
  _atom_site_label
  _atom_site_symmetry_multiplicity
  _atom_site_fract_x
  _atom_site_fract_y
  _atom_site_fract_z
  _atom_site_occupancy
  H   H1        1.0  0.52677  0.21336  0.32192  1.0000
  C   C1        1.0  0.54523  0.30292  0.24056  1.0000
  Fe  Fe1       1.0  0.30944  0.13375  0.09082  1.0000
  S   S1        1.0  0.24542  0.14806  0.08247  1.0000
  H   H2        1.0  0.20277  0.33420  0.35537  1.0000
  Fe  Fe2       1.0  0.30369  0.13887  0.16343  1.0000
  S   S2        1.0  0.23837  0.15297  0.16178  1.0000
  H   H3        1.0  0.32752  0.28740  0.09091  1.0000
  Fe  Fe3       1.0  0.22606  0.12854  0.12490  1.0000
  C   C2        1.0  0.34785  0.13970  0.27083  1.0000
  Fe  Fe4       1.0  0.26365  0.17129  0.11982  1.0000
  S   S3        1.0  0.25120  0.20591  0.11870  1.0000
  S   S4        1.0  0.19181  0.34727  0.42640  1.0000
  S   S5        1.0  0.32992  0.15899  0.12396  1.0000
  Fe  Fe5       1.0  0.40557  0.28126  0.17706  1.0000
  S   S6        1.0  0.34227  0.29750  0.17927  1.0000
  S   S7        1.0  0.41885  0.25278  0.14721  1.0000
  Fe  Fe6       1.0  0.44425  0.31070  0.22414  1.0000
  H   H4        1.0  0.38669  0.23069  0.23481  1.0000
  S   S8        1.0  0.50136  0.31806  0.25268  1.0000
  Fe  Fe7       1.0  0.35357  0.29853  0.23239  1.0000
  S   S9        1.0  0.34442  0.13167  0.20626  1.0000
  C   C3        1.0  0.36943  0.30398  0.30870  1.0000
  C   C4        1.0  0.09764  0.16146  0.10410  1.0000
  S   S10       1.0  0.41375  0.27970  0.23034  1.0000
  S   S11       1.0  0.44230  0.31065  0.17020  1.0000
  H   H5        1.0  0.33312  0.25946  0.09144  1.0000
  C   C5        1.0  0.42983  0.14751  0.52940  1.0000
  C   C6        1.0  0.13159  0.14792  0.11112  1.0000
  H   H6        1.0  0.24691  0.17495  0.27135  1.0000
  H   H7        1.0  0.24043  0.13208  0.50420  1.0000
  C   C7        1.0  0.28294  0.24984  0.54494  1.0000
  H   H8        1.0  0.50962  0.28088  0.21344  1.0000
  C   C8        1.0  0.37158  0.23712  0.29792  1.0000
  H   H9        1.0  0.33933  0.24631  0.23990  1.0000
  C   C9        1.0  0.08164  0.31755  0.43809  1.0000
  S   S12       1.0  0.30722  0.28930  0.27101  1.0000
  H   H10       1.0  0.16248  0.15427  0.11442  1.0000
  H   H11       1.0  0.28927  0.23851  0.28419  1.0000
  C   C10       1.0  0.29845  0.21782  0.12832  1.0000
  C   C11       1.0  0.33545  0.21266  0.11126  1.0000
  C   C12       1.0  0.37292  0.22287  0.11801  1.0000
  C   C13       1.0  0.37338  0.23825  0.14182  1.0000
  C   C14       1.0  0.33668  0.24287  0.15961  1.0000
  C   C15       1.0  0.29907  0.23287  0.15259  1.0000
  H   H12       1.0  0.51841  0.11984  0.41371  1.0000
  H   H13       1.0  0.40126  0.21925  0.10421  1.0000
  H   H14       1.0  0.33711  0.25424  0.17862  1.0000
  H   H15       1.0  0.27055  0.23672  0.16601  1.0000
  S   S13       1.0  0.38462  0.32977  0.23036  1.0000
  C   C16       1.0  0.32620  0.29623  0.36643  1.0000
  C   C17       1.0  0.30877  0.29037  0.33700  1.0000
  C   C18       1.0  0.33330  0.14881  0.29968  1.0000
  C   C19       1.0  0.36765  0.20146  0.27947  1.0000
  S   S14       1.0  0.44839  0.22089  0.35544  1.0000
  C   C20       1.0  0.55149  0.27762  0.35962  1.0000
  H   H16       1.0  0.27872  0.28271  0.33662  1.0000
  C   C21       1.0  0.51260  0.30603  0.33448  1.0000
  C   C22       1.0  0.50999  0.27121  0.31252  1.0000
  H   H17       1.0  0.55738  0.22721  0.43646  1.0000
  C   C23       1.0  0.29686  0.16153  0.29991  1.0000
  H   H18       1.0  0.37573  0.12965  0.27081  1.0000
  C   C24       1.0  0.30965  0.27263  0.09200  1.0000
  H   H19       1.0  0.54021  0.30999  0.31898  1.0000
  H   H20       1.0  0.55399  0.28638  0.38257  1.0000
  N   N1        1.0  0.51240  0.28344  0.34252  1.0000
  H   H21       1.0  0.48879  0.16555  0.41367  1.0000
  H   H22       1.0  0.34970  0.14558  0.32181  1.0000
  H   H23       1.0  0.54222  0.34365  0.16750  1.0000
  C   C25       1.0  0.27512  0.16513  0.27130  1.0000
  H   H24       1.0  0.48187  0.27599  0.29825  1.0000
  C   C26       1.0  0.30144  0.35044  0.33672  1.0000
  C   C27       1.0  0.54066  0.28568  0.22037  1.0000
  C   C28       1.0  0.29982  0.26671  0.52793  1.0000
  H   H25       1.0  0.50327  0.17149  0.37273  1.0000
  C   C29       1.0  0.56366  0.32965  0.16839  1.0000
  C   C30       1.0  0.36666  0.32923  0.09385  1.0000
  H   H26       1.0  0.35905  0.25346  0.29583  1.0000
  C   C31       1.0  0.12542  0.12636  0.11406  1.0000
  H   H27       1.0  0.08636  0.15945  0.18011  1.0000
  C   C32       1.0  0.38643  0.31007  0.33789  1.0000
  H   H28       1.0  0.27338  0.15945  0.22054  1.0000
  H   H29       1.0  0.47903  0.14701  0.38257  1.0000
  H   H30       1.0  0.40190  0.20117  0.27347  1.0000
  H   H31       1.0  0.36397  0.19522  0.30443  1.0000
  H   H32       1.0  0.37909  0.12489  0.14038  1.0000
  H   H33       1.0  0.39111  0.32098  0.10704  1.0000
  C   C33       1.0  0.33010  0.29465  0.30807  1.0000
  H   H34       1.0  0.51344  0.31586  0.35647  1.0000
  Fe  Fe8       1.0  0.37946  0.32691  0.17686  1.0000
  C   C34       1.0  0.41394  0.12383  0.13985  1.0000
  S   S15       1.0  0.27870  0.17380  0.33524  1.0000
  H   H35       1.0  0.42489  0.13175  0.11738  1.0000
  H   H36       1.0  0.55259  0.26064  0.36575  1.0000
  H   H37       1.0  0.56292  0.17183  0.43043  1.0000
  H   H38       1.0  0.41600  0.31811  0.33811  1.0000
  C   C35       1.0  0.30414  0.22257  0.28600  1.0000
  C   C36       1.0  0.53340  0.21603  0.34703  1.0000
  H   H39       1.0  0.28389  0.14485  0.48468  1.0000
  H   H40       1.0  0.23843  0.25102  0.09200  1.0000
  H   H41       1.0  0.40586  0.23736  0.29207  1.0000
  H   H42       1.0  0.09673  0.35812  0.49589  1.0000
  H   H43       1.0  0.29991  0.21694  0.31125  1.0000
  C   C37       1.0  0.28999  0.15626  0.24245  1.0000
  N   N2        1.0  0.34915  0.22283  0.27654  1.0000
  H   H44       1.0  0.28625  0.21187  0.27042  1.0000
  C   C38       1.0  0.32611  0.14336  0.24215  1.0000
  H   H45       1.0  0.38669  0.30687  0.28674  1.0000
  H   H46       1.0  0.24785  0.15982  0.50923  1.0000
  C   C39       1.0  0.35314  0.23022  0.24285  1.0000
  H   H47       1.0  0.35218  0.19035  0.26306  1.0000
  C   C40       1.0  0.30356  0.35054  0.05947  1.0000
  N   N3        1.0  0.29096  0.13995  0.53554  1.0000
  H   H48       1.0  0.50774  0.25415  0.31770  1.0000
  H   H49       1.0  0.36833  0.23227  0.32362  1.0000
  H   H50       1.0  0.24431  0.31914  0.33629  1.0000
  C   C41       1.0  0.08522  0.11835  0.10998  1.0000
  H   H51       1.0  0.33654  0.21978  0.22602  1.0000
  C   C42       1.0  0.47559  0.27892  0.36343  1.0000
  H   H52       1.0  0.44561  0.28080  0.35020  1.0000
  C   C43       1.0  0.26448  0.14433  0.50720  1.0000
  H   H53       1.0  0.29313  0.27220  0.11577  1.0000
  C   C44       1.0  0.36509  0.30615  0.36675  1.0000
  C   C45       1.0  0.55969  0.13955  0.36577  1.0000
  H   H54       1.0  0.56301  0.15171  0.34660  1.0000
  H   H55       1.0  0.25113  0.32934  0.37610  1.0000
  H   H56       1.0  0.14260  0.23863  0.49048  1.0000
  C   C46       1.0  0.08607  0.30778  0.46810  1.0000
  H   H57       1.0  0.47671  0.26254  0.37264  1.0000
  H   H58       1.0  0.53606  0.33705  0.10860  1.0000
  H   H59       1.0  0.47364  0.28945  0.38470  1.0000
  S   S16       1.0  0.31160  0.35670  0.43536  1.0000
  H   H60       1.0  0.23227  0.25027  0.04907  1.0000
  H   H61       1.0  0.34218  0.15808  0.51679  1.0000
  H   H62       1.0  0.53814  0.27358  0.29675  1.0000
  H   H63       1.0  0.12614  0.30312  0.50902  1.0000
  C   C47       1.0  0.31279  0.35656  0.09094  1.0000
  C   C48       1.0  0.23757  0.33286  0.35202  1.0000
  C   C49       1.0  0.35797  0.32347  0.06214  1.0000
  C   C50       1.0  0.21187  0.23622  0.45242  1.0000
  C   C51       1.0  0.25573  0.25173  0.06852  1.0000
  H   H64       1.0  0.33496  0.20118  0.09224  1.0000
  H   H65       1.0  0.33374  0.11962  0.50929  1.0000
  S   S17       1.0  0.34921  0.11730  0.05334  1.0000
  C   C52       1.0  0.50023  0.21919  0.36912  1.0000
  N   N4        1.0  0.25496  0.35224  0.33801  1.0000
  H   H66       1.0  0.53816  0.12742  0.35685  1.0000
  H   H67       1.0  0.27686  0.23758  0.06748  1.0000
  H   H68       1.0  0.26768  0.30447  0.06353  1.0000
  H   H69       1.0  0.42489  0.13292  0.16084  1.0000
  H   H70       1.0  0.12269  0.26318  0.47503  1.0000
  Fe  Fe9       1.0  0.32768  0.17695  0.37314  1.0000
  H   H71       1.0  0.23214  0.29018  0.08893  1.0000
  Fe  Fe10      1.0  0.39611  0.15958  0.41764  1.0000
  S   S18       1.0  0.40982  0.19122  0.43754  1.0000
  C   C53       1.0  0.23878  0.35529  0.30507  1.0000
  H   H72       1.0  0.10259  0.17815  0.10197  1.0000
  H   H73       1.0  0.23758  0.27125  0.48120  1.0000
  Fe  Fe11      1.0  0.33930  0.19514  0.43964  1.0000
  S   S19       1.0  0.30060  0.20152  0.48435  1.0000
  H   H74       1.0  0.37584  0.31080  0.05095  1.0000
  S   S20       1.0  0.32609  0.16281  0.42248  1.0000
  Fe  Fe12      1.0  0.29763  0.31560  0.50271  1.0000
  S   S21       1.0  0.36047  0.32874  0.49070  1.0000
  Fe  Fe13      1.0  0.25256  0.34115  0.45214  1.0000
  C   C54       1.0  0.34438  0.34594  0.10812  1.0000
  S   S22       1.0  0.35676  0.35418  0.14690  1.0000
  C   C55       1.0  0.50192  0.15868  0.39101  1.0000
  S   S23       1.0  0.28082  0.30872  0.45172  1.0000
  S   S24       1.0  0.26352  0.34670  0.50458  1.0000
  C   C56       1.0  0.11396  0.32996  0.42559  1.0000
  C   C57       1.0  0.20524  0.26615  0.48735  1.0000
  C   C58       1.0  0.54050  0.13220  0.42106  1.0000
  C   C59       1.0  0.42848  0.12953  0.47816  1.0000
  H   H75       1.0  0.48408  0.31084  0.32083  1.0000
  H   H76       1.0  0.21715  0.27435  0.42460  1.0000
  C   C60       1.0  0.15111  0.33230  0.44280  1.0000
  C   C61       1.0  0.15565  0.32247  0.47279  1.0000
  C   C62       1.0  0.14288  0.24919  0.46905  1.0000
  H   H77       1.0  0.18420  0.32431  0.48628  1.0000
  H   H78       1.0  0.20739  0.25590  0.50906  1.0000
  C   C63       1.0  0.55070  0.22388  0.41155  1.0000
  C   C64       1.0  0.30364  0.22639  0.50153  1.0000
  C   C65       1.0  0.32224  0.24306  0.48502  1.0000
  C   C66       1.0  0.32023  0.26329  0.49824  1.0000
  C   C67       1.0  0.28446  0.22976  0.53160  1.0000
  H   H79       1.0  0.31216  0.33745  0.32072  1.0000
  H   H80       1.0  0.33727  0.24047  0.46182  1.0000
  H   H81       1.0  0.33395  0.27624  0.48522  1.0000
  H   H82       1.0  0.16565  0.28371  0.43666  1.0000
  H   H83       1.0  0.48329  0.22528  0.41860  1.0000
  Fe  Fe14      1.0  0.34110  0.32468  0.43963  1.0000
  H   H84       1.0  0.43751  0.16263  0.48350  1.0000
  S   S25       1.0  0.29082  0.29214  0.54245  1.0000
  N   N5        1.0  0.18621  0.25520  0.46011  1.0000
  H   H85       1.0  0.21396  0.22533  0.47344  1.0000
  H   H86       1.0  0.24822  0.34190  0.28922  1.0000
  N   N6        1.0  0.54379  0.14881  0.39623  1.0000
  Fe  Fe15      1.0  0.40418  0.20223  0.38626  1.0000
  H   H87       1.0  0.52827  0.13860  0.44432  1.0000
  H   H88       1.0  0.24481  0.24022  0.44563  1.0000
  C   C68       1.0  0.18499  0.26929  0.43173  1.0000
  S   S26       1.0  0.38820  0.31370  0.40264  1.0000
  H   H89       1.0  0.12741  0.24091  0.44904  1.0000
  H   H90       1.0  0.19856  0.22740  0.43206  1.0000
  H   H91       1.0  0.31483  0.34724  0.36097  1.0000
  C   C69       1.0  0.43227  0.14797  0.49573  1.0000
  H   H92       1.0  0.54376  0.31588  0.17356  1.0000
  H   H93       1.0  0.11044  0.33740  0.40227  1.0000
  N   N7        1.0  0.27978  0.27122  0.06518  1.0000
  C   C70       1.0  0.25047  0.28953  0.06593  1.0000
  H   H94       1.0  0.17105  0.26148  0.41063  1.0000
  S   S27       1.0  0.39649  0.17019  0.36608  1.0000
  S   S28       1.0  0.33496  0.20978  0.39045  1.0000
  H   H95       1.0  0.30998  0.29281  0.38879  1.0000
  H   H96       1.0  0.18676  0.28041  0.49426  1.0000
  C   C71       1.0  0.50886  0.22264  0.40152  1.0000
  C   C72       1.0  0.12296  0.31039  0.48554  1.0000
  S   S29       1.0  0.42887  0.13029  0.43588  1.0000
  H   H97       1.0  0.20375  0.35655  0.30512  1.0000
  S   S30       1.0  0.16791  0.10947  0.12275  1.0000
  C   C73       1.0  0.31343  0.11962  0.53134  1.0000
  H   H98       1.0  0.27794  0.35820  0.04689  1.0000
  H   H99       1.0  0.57167  0.12447  0.42562  1.0000
  H   H100      1.0  0.30603  0.17237  0.54217  1.0000
  H   H101      1.0  0.53951  0.30928  0.11560  1.0000
  C   C74       1.0  0.55852  0.32355  0.11135  1.0000
  H   H102      1.0  0.43244  0.16192  0.54277  1.0000
  C   C75       1.0  0.32185  0.15679  0.53875  1.0000
  C   C76       1.0  0.42358  0.11046  0.49452  1.0000
  S   S31       1.0  0.28867  0.11249  0.13061  1.0000
  C   C77       1.0  0.42027  0.11005  0.52828  1.0000
  H   H103      1.0  0.27014  0.21688  0.54442  1.0000
  H   H104      1.0  0.22772  0.28913  0.04581  1.0000
  H   H105      1.0  0.22135  0.16084  0.82452  1.0000
  C   C78       1.0  0.32194  0.33539  0.59184  1.0000
  C   C79       1.0  0.08239  0.34667  0.91997  1.0000
  C   C80       1.0  0.36575  0.32587  0.63685  1.0000
  H   H106      1.0  0.32057  0.33897  0.56560  1.0000
  H   H107      1.0  0.37899  0.31281  0.55809  1.0000
  H   H108      1.0  0.27709  0.16154  0.78195  1.0000
  N   N8        1.0  0.36525  0.32968  0.60171  1.0000
  H   H109      1.0  0.39809  0.32190  0.64531  1.0000
  C   C81       1.0  0.26419  0.13903  0.56487  1.0000
  H   H110      1.0  0.10708  0.34106  0.93694  1.0000
  H   H111      1.0  0.28352  0.13615  0.58669  1.0000
  H   H112      1.0  0.35874  0.29709  0.59027  1.0000
  H   H113      1.0  0.32225  0.33573  0.87101  1.0000
  H   H114      1.0  0.32505  0.25702  0.03260  1.0000
  C   C82       1.0  0.37955  0.31050  0.58466  1.0000
  C   C83       1.0  0.32652  0.33416  0.04488  1.0000
  H   H115      1.0  0.31770  0.14151  0.78101  1.0000
  C   C84       1.0  0.28722  0.35167  0.83382  1.0000
  H   H116      1.0  0.22486  0.11286  0.81063  1.0000
  H   H117      1.0  0.41222  0.30577  0.59133  1.0000
  H   H118      1.0  0.26095  0.15986  0.85518  1.0000
  S   S32       1.0  0.41629  0.12915  0.58775  1.0000
  H   H119      1.0  0.30972  0.34944  0.60495  1.0000
  H   H120      1.0  0.12014  0.33558  0.86407  1.0000
  C   C85       1.0  0.29714  0.12343  0.83748  1.0000
  C   C86       1.0  0.32907  0.12209  0.01474  1.0000
  H   H121      1.0  0.26716  0.25244  0.56786  1.0000
  H   H122      1.0  0.50883  0.11876  0.55259  1.0000
  S   S33       1.0  0.22492  0.35192  0.95208  1.0000
  H   H123      1.0  0.32299  0.28507  0.03144  1.0000
  H   H124      1.0  0.32010  0.11430  0.82252  1.0000
  C   C87       1.0  0.36068  0.34072  0.82864  1.0000
  C   C88       1.0  0.29654  0.15089  0.79734  1.0000
  C   C89       1.0  0.31417  0.10948  0.96112  1.0000
  H   H125      1.0  0.16295  0.35667  0.00206  1.0000
  H   H126      1.0  0.28188  0.27067  0.01339  1.0000
  C   C90       1.0  0.53173  0.11821  0.57260  1.0000
  H   H127      1.0  0.33401  0.11602  0.55221  1.0000
  H   H128      1.0  0.31686  0.16077  0.81242  1.0000
  C   C91       1.0  0.30627  0.14058  0.00811  1.0000
  C   C92       1.0  0.39366  0.34703  0.59353  1.0000
  S   S34       1.0  0.31498  0.32619  0.00573  1.0000
  H   H129      1.0  0.10486  0.33146  0.00769  1.0000
  S   S35       1.0  0.26594  0.13118  0.91750  1.0000
  H   H130      1.0  0.34498  0.31272  0.64383  1.0000
  H   H131      1.0  0.27828  0.11212  0.85184  1.0000
  H   H132      1.0  0.52021  0.12961  0.59107  1.0000
  N   N9        1.0  0.26991  0.13717  0.81747  1.0000
  H   H133      1.0  0.31548  0.13263  0.85493  1.0000
  H   H134      1.0  0.22190  0.14023  0.85417  1.0000
  H   H135      1.0  0.29985  0.32239  0.59671  1.0000
  C   C93       1.0  0.28805  0.14368  0.97780  1.0000
  C   C94       1.0  0.24385  0.12423  0.79645  1.0000
  H   H136      1.0  0.30305  0.15264  0.02618  1.0000
  C   C95       1.0  0.29147  0.12800  0.95446  1.0000
  C   C96       1.0  0.30342  0.27094  0.03429  1.0000
  H   H137      1.0  0.22158  0.13404  0.78204  1.0000
  H   H138      1.0  0.38855  0.33346  0.83895  1.0000
  H   H139      1.0  0.56228  0.12388  0.56286  1.0000
  C   C97       1.0  0.09778  0.34796  0.00405  1.0000
  H   H140      1.0  0.35446  0.33999  0.65037  1.0000
  Fe  Fe16      1.0  0.28851  0.35233  0.97506  1.0000
  C   C98       1.0  0.24228  0.15014  0.83862  1.0000
  S   S36       1.0  0.24150  0.35530  0.85753  1.0000
  H   H141      1.0  0.26365  0.11500  0.77912  1.0000
  H   H142      1.0  0.15917  0.34386  0.89190  1.0000
  C   C99       1.0  0.32325  0.34213  0.84688  1.0000
  H   H143      1.0  0.27045  0.15801  0.97274  1.0000
  C   C100      1.0  0.13289  0.34948  0.87632  1.0000
  S   S37       1.0  0.41059  0.34874  0.77616  1.0000
  C   C101      1.0  0.32611  0.35821  0.78407  1.0000
  H   H144      1.0  0.24136  0.12602  0.56369  1.0000
  H   H145      1.0  0.39264  0.35105  0.56738  1.0000
  H   H146      1.0  0.42693  0.34306  0.59958  1.0000
  H   H147      1.0  0.24600  0.15393  0.56855  1.0000
  C   C102      1.0  0.36238  0.34905  0.79741  1.0000
  H   H148      1.0  0.34290  0.15392  0.55962  1.0000
  C   C103      1.0  0.42261  0.12868  0.54571  1.0000
  H   H149      1.0  0.35274  0.56856  0.06039  1.0000
  H   H150      1.0  0.32753  0.42602  0.07776  1.0000
  H   H151      1.0  0.44398  0.59160  0.04616  1.0000
  H   H152      1.0  0.54018  0.59520  0.05575  1.0000
  H   H153      1.0  0.30847  0.57953  0.21875  1.0000
  C   C104      1.0  0.35007  0.58452  0.10584  1.0000
  H   H154      1.0  0.09391  0.38525  0.50704  1.0000
  H   H155      1.0  0.35201  0.57018  0.11985  1.0000
  H   H156      1.0  0.29090  0.56568  0.28873  1.0000
  C   C105      1.0  0.39450  0.40010  0.08566  1.0000
  C   C106      1.0  0.36545  0.59714  0.25638  1.0000
  H   H157      1.0  0.29490  0.36920  0.10223  1.0000
  H   H158      1.0  0.08724  0.36517  0.53716  1.0000
  H   H159      1.0  0.50506  0.57951  0.07914  1.0000
  C   C107      1.0  0.35118  0.58360  0.07212  1.0000
  C   C108      1.0  0.51816  0.59552  0.07681  1.0000
  C   C109      1.0  0.34728  0.60389  0.12137  1.0000
  H   H160      1.0  0.53709  0.59851  0.09860  1.0000
  H   H161      1.0  0.44004  0.59616  0.10397  1.0000
  H   H162      1.0  0.25381  0.36845  0.38318  1.0000
  C   C110      1.0  0.32308  0.57053  0.28132  1.0000
  H   H163      1.0  0.42854  0.39573  0.08402  1.0000
  C   C111      1.0  0.08003  0.36966  0.51186  1.0000
  H   H164      1.0  0.33628  0.55837  0.26469  1.0000
  N   N10       1.0  0.32216  0.59143  0.26580  1.0000
  H   H165      1.0  0.37956  0.58593  0.23864  1.0000
  H   H166      1.0  0.39008  0.41137  0.10581  1.0000
  H   H167      1.0  0.25437  0.38526  0.34838  1.0000
  H   H168      1.0  0.39675  0.44071  0.06515  1.0000
  S   S38       1.0  0.35721  0.38758  0.50751  1.0000
  H   H169      1.0  0.26277  0.58657  0.24281  1.0000
  H   H170      1.0  0.34289  0.57041  0.30325  1.0000
  C   C112      1.0  0.29567  0.59092  0.23681  1.0000
  H   H171      1.0  0.31579  0.36504  0.32729  1.0000
  Fe  Fe17      1.0  0.32538  0.35948  0.48787  1.0000
  C   C113      1.0  0.34973  0.60203  0.05376  1.0000
  S   S39       1.0  0.35067  0.60473  0.16356  1.0000
  H   H172      1.0  0.37739  0.38569  0.09253  1.0000
  N   N11       1.0  0.37899  0.40904  0.05500  1.0000
  C   C114      1.0  0.30466  0.60712  0.28867  1.0000
  C   C115      1.0  0.40248  0.42818  0.04699  1.0000
  H   H173      1.0  0.20711  0.37193  0.36018  1.0000
  H   H174      1.0  0.25121  0.36978  0.29372  1.0000
  C   C116      1.0  0.33361  0.41435  0.05837  1.0000
  H   H175      1.0  0.43699  0.42494  0.04541  1.0000
  C   C117      1.0  0.24204  0.37031  0.35820  1.0000
  H   H176      1.0  0.31491  0.40023  0.06418  1.0000
  H   H177      1.0  0.28054  0.38280  0.54481  1.0000
  H   H178      1.0  0.27212  0.60331  0.29659  1.0000
  H   H179      1.0  0.38646  0.59784  0.27758  1.0000
  H   H180      1.0  0.29434  0.60644  0.22441  1.0000
  H   H181      1.0  0.32444  0.60822  0.31053  1.0000
  Fe  Fe18      1.0  0.28646  0.58320  0.68098  1.0000
  S   S40       1.0  0.29425  0.55471  0.65011  1.0000
  H   H182      1.0  0.11628  0.58776  0.67237  1.0000
  H   H183      1.0  0.33384  0.47163  0.69917  1.0000
  C   C118      1.0  0.36705  0.40314  0.60098  1.0000
  Fe  Fe19      1.0  0.34007  0.54426  0.68783  1.0000
  S   S41       1.0  0.39980  0.52794  0.67193  1.0000
  Fe  Fe20      1.0  0.24566  0.54075  0.68260  1.0000
  S   S42       1.0  0.19286  0.52106  0.66496  1.0000
  H   H184      1.0  0.24946  0.46015  0.66951  1.0000
  H   H185      1.0  0.36129  0.48897  0.63388  1.0000
  Fe  Fe21      1.0  0.37598  0.39770  0.68369  1.0000
  S   S43       1.0  0.42871  0.42013  0.67887  1.0000
  H   H186      1.0  0.36804  0.37885  0.03419  1.0000
  Fe  Fe22      1.0  0.41608  0.37414  0.73888  1.0000
  H   H187      1.0  0.52684  0.47171  0.72566  1.0000
  H   H188      1.0  0.24559  0.48247  0.64296  1.0000
  H   H189      1.0  0.29190  0.46384  0.60267  1.0000
  Fe  Fe23      1.0  0.47071  0.39174  0.68563  1.0000
  H   H190      1.0  0.54749  0.37063  0.71587  1.0000
  C   C119      1.0  0.33328  0.46130  0.67768  1.0000
  C   C120      1.0  0.32788  0.49115  0.64185  1.0000
  C   C121      1.0  0.11869  0.37906  0.91092  1.0000
  C   C122      1.0  0.29579  0.39166  0.59315  1.0000
  C   C123      1.0  0.11348  0.57096  0.67024  1.0000
  H   H191      1.0  0.31399  0.58230  0.90921  1.0000
  C   C124      1.0  0.14946  0.55845  0.66455  1.0000
  C   C125      1.0  0.14663  0.53665  0.66380  1.0000
  H   H192      1.0  0.29420  0.44168  0.62946  1.0000
  H   H193      1.0  0.17955  0.56571  0.66106  1.0000
  H   H194      1.0  0.55935  0.46300  0.75833  1.0000
  N   N12       1.0  0.30884  0.47105  0.65127  1.0000
  H   H195      1.0  0.36658  0.45822  0.67017  1.0000
  H   H196      1.0  0.34199  0.45303  0.61497  1.0000
  H   H197      1.0  0.31997  0.44599  0.68525  1.0000
  S   S44       1.0  0.31695  0.40037  0.65491  1.0000
  H   H198      1.0  0.31037  0.49901  0.62196  1.0000
  H   H199      1.0  0.32774  0.50226  0.66235  1.0000
  H   H200      1.0  0.32685  0.36415  0.75968  1.0000
  H   H201      1.0  0.26484  0.38830  0.60282  1.0000
  S   S45       1.0  0.35706  0.60118  0.01176  1.0000
  N   N13       1.0  0.09996  0.36083  0.89518  1.0000
  H   H202      1.0  0.26059  0.36662  0.79189  1.0000
  C   C126      1.0  0.43398  0.48969  0.68695  1.0000
  C   C127      1.0  0.30926  0.45682  0.62333  1.0000
  H   H203      1.0  0.14423  0.37410  0.92759  1.0000
  H   H204      1.0  0.44614  0.48953  0.66249  1.0000
  C   C128      1.0  0.38533  0.39352  0.02900  1.0000
  C   C129      1.0  0.32728  0.39850  0.61357  1.0000
  H   H205      1.0  0.39144  0.40856  0.61657  1.0000
  H   H206      1.0  0.55111  0.59334  0.97514  1.0000
  H   H207      1.0  0.51722  0.44705  0.74510  1.0000
  H   H208      1.0  0.26338  0.48572  0.68323  1.0000
  C   C130      1.0  0.26491  0.47497  0.66224  1.0000
  C   C131      1.0  0.54252  0.45767  0.73665  1.0000
  H   H209      1.0  0.13280  0.39001  0.89305  1.0000
  H   H210      1.0  0.32086  0.42120  0.03574  1.0000
  C   C132      1.0  0.44000  0.47218  0.70696  1.0000
  C   C133      1.0  0.41118  0.50717  0.69825  1.0000
  H   H211      1.0  0.45757  0.45875  0.69813  1.0000
  H   H212      1.0  0.09487  0.38807  0.92543  1.0000
  H   H213      1.0  0.14203  0.52603  0.81335  1.0000
  S   S46       1.0  0.29194  0.52738  0.71765  1.0000
  S   S47       1.0  0.23425  0.57010  0.71088  1.0000
  C   C134      1.0  0.34478  0.39256  0.54793  1.0000
  H   H214      1.0  0.53167  0.45353  0.67293  1.0000
  S   S48       1.0  0.33665  0.57407  0.71632  1.0000
  C   C135      1.0  0.10699  0.52746  0.66565  1.0000
  S   S49       1.0  0.26908  0.55806  0.79655  1.0000
  H   H215      1.0  0.36856  0.57789  0.91826  1.0000
  Fe  Fe24      1.0  0.42287  0.54777  0.93806  1.0000
  S   S50       1.0  0.45843  0.52366  0.96733  1.0000
  S   S51       1.0  0.42965  0.54998  0.88410  1.0000
  Fe  Fe25      1.0  0.39061  0.57131  0.99702  1.0000
  S   S52       1.0  0.42305  0.54925  0.03121  1.0000
  S   S53       1.0  0.47287  0.39449  0.73930  1.0000
  Fe  Fe26      1.0  0.47774  0.55105  0.99697  1.0000
  S   S54       1.0  0.54206  0.55704  0.01628  1.0000
  Fe  Fe27      1.0  0.40015  0.52409  0.99877  1.0000
  S   S55       1.0  0.36629  0.49680  0.02074  1.0000
  S   S56       1.0  0.44726  0.57509  0.96525  1.0000
  S   S57       1.0  0.36298  0.54611  0.96714  1.0000
  H   H216      1.0  0.16730  0.51636  0.75833  1.0000
  S   S58       1.0  0.28267  0.38537  0.99293  1.0000
  S   S59       1.0  0.42895  0.44985  0.76270  1.0000
  C   C136      1.0  0.40813  0.40226  0.82108  1.0000
  S   S60       1.0  0.24957  0.39778  0.92047  1.0000
  Fe  Fe28      1.0  0.28463  0.55798  0.74346  1.0000
  Fe  Fe29      1.0  0.31133  0.39398  0.94529  1.0000
  S   S61       1.0  0.36618  0.41502  0.93722  1.0000
  Fe  Fe30      1.0  0.22142  0.38570  0.96659  1.0000
  S   S62       1.0  0.16196  0.40100  0.98565  1.0000
  C   C137      1.0  0.15095  0.56902  0.76525  1.0000
  H   H217      1.0  0.39037  0.49029  0.77463  1.0000
  C   C138      1.0  0.39585  0.50748  0.72996  1.0000
  C   C139      1.0  0.12164  0.38341  0.99467  1.0000
  H   H218      1.0  0.39003  0.59348  0.86599  1.0000
  C   C140      1.0  0.34214  0.58956  0.91977  1.0000
  H   H219      1.0  0.56822  0.43192  0.66747  1.0000
  C   C141      1.0  0.17301  0.53329  0.75416  1.0000
  H   H220      1.0  0.48073  0.60571  0.02177  1.0000
  H   H221      1.0  0.31697  0.43071  0.82940  1.0000
  C   C142      1.0  0.13067  0.36217  0.00041  1.0000
  N   N14       1.0  0.37394  0.41320  0.83915  1.0000
  C   C143      1.0  0.14768  0.54273  0.80716  1.0000
  H   H222      1.0  0.40762  0.44197  0.84258  1.0000
  C   C144      1.0  0.40246  0.49005  0.75014  1.0000
  H   H223      1.0  0.41530  0.42401  0.87575  1.0000
  C   C145      1.0  0.39178  0.43023  0.85829  1.0000
  C   C146      1.0  0.36390  0.47534  0.99485  1.0000
  C   C147      1.0  0.32989  0.46175  0.99720  1.0000
  C   C148      1.0  0.32925  0.44364  0.97824  1.0000
  C   C149      1.0  0.36325  0.43885  0.95769  1.0000
  C   C150      1.0  0.39678  0.45263  0.95486  1.0000
  C   C151      1.0  0.39695  0.47095  0.97324  1.0000
  H   H224      1.0  0.30410  0.46525  0.01373  1.0000
  H   H225      1.0  0.30291  0.43322  0.98000  1.0000
  H   H226      1.0  0.42309  0.44897  0.93891  1.0000
  H   H227      1.0  0.42338  0.48129  0.97151  1.0000
  C   C152      1.0  0.09939  0.54193  0.76261  1.0000
  H   H228      1.0  0.32726  0.40583  0.87516  1.0000
  H   H229      1.0  0.12872  0.57961  0.77859  1.0000
  C   C153      1.0  0.30474  0.38835  0.56043  1.0000
  H   H230      1.0  0.43167  0.39495  0.83754  1.0000
  H   H231      1.0  0.10459  0.51059  0.66473  1.0000
  H   H232      1.0  0.35775  0.43333  0.79933  1.0000
  H   H233      1.0  0.37542  0.39073  0.87797  1.0000
  S   S63       1.0  0.41782  0.36892  0.68546  1.0000
  H   H234      1.0  0.33865  0.38529  0.84699  1.0000
  C   C154      1.0  0.31375  0.55387  0.82043  1.0000
  C   C155      1.0  0.35414  0.55548  0.80705  1.0000
  C   C156      1.0  0.38955  0.55350  0.82672  1.0000
  C   C157      1.0  0.38482  0.54961  0.85977  1.0000
  C   C158      1.0  0.34448  0.54707  0.87293  1.0000
  C   C159      1.0  0.30893  0.54950  0.85337  1.0000
  H   H235      1.0  0.39568  0.38948  0.80611  1.0000
  H   H236      1.0  0.37922  0.52121  0.73908  1.0000
  H   H237      1.0  0.34061  0.54345  0.89821  1.0000
  H   H238      1.0  0.27774  0.54791  0.86374  1.0000
  H   H239      1.0  0.14737  0.57260  0.73912  1.0000
  H   H240      1.0  0.52264  0.42887  0.69263  1.0000
  H   H241      1.0  0.56760  0.41682  0.73669  1.0000
  H   H242      1.0  0.20606  0.53627  0.76111  1.0000
  C   C160      1.0  0.37561  0.40042  0.56807  1.0000
  H   H243      1.0  0.36691  0.43865  0.87264  1.0000
  C   C161      1.0  0.54744  0.44009  0.68543  1.0000
  S   S64       1.0  0.52859  0.38981  0.65401  1.0000
  H   H244      1.0  0.09498  0.54486  0.73639  1.0000
  C   C162      1.0  0.35290  0.39811  0.86076  1.0000
  Fe  Fe31      1.0  0.42662  0.42094  0.73268  1.0000
  S   S65       1.0  0.36990  0.40104  0.73706  1.0000
  H   H245      1.0  0.12542  0.55261  0.82171  1.0000
  C   C163      1.0  0.34285  0.42212  0.81643  1.0000
  C   C164      1.0  0.42377  0.47223  0.73840  1.0000
  H   H246      1.0  0.18352  0.57319  0.77211  1.0000
  H   H247      1.0  0.37387  0.39980  0.00551  1.0000
  H   H248      1.0  0.32828  0.40960  0.80202  1.0000
  H   H249      1.0  0.09202  0.52523  0.76736  1.0000
  Fe  Fe32      1.0  0.25822  0.36389  0.90802  1.0000
  H   H250      1.0  0.42072  0.55528  0.81635  1.0000
  H   H251      1.0  0.35819  0.55862  0.78163  1.0000
  H   H252      1.0  0.42506  0.41317  0.80471  1.0000
  H   H253      1.0  0.33510  0.59231  0.94575  1.0000
  N   N15       1.0  0.14272  0.54674  0.77232  1.0000
  H   H254      1.0  0.17077  0.53622  0.72787  1.0000
  H   H255      1.0  0.18024  0.54628  0.81499  1.0000
  C   C165      1.0  0.31401  0.60520  0.56714  1.0000
  H   H256      1.0  0.07799  0.37877  0.85452  1.0000
  C   C166      1.0  0.46010  0.60681  0.04358  1.0000
  H   H257      1.0  0.41846  0.60692  0.91563  1.0000
  H   H258      1.0  0.40656  0.40379  0.55838  1.0000
  C   C167      1.0  0.07969  0.39055  0.99404  1.0000
  H   H259      1.0  0.14714  0.35972  0.85748  1.0000
  H   H260      1.0  0.11143  0.59815  0.57178  1.0000
  H   H261      1.0  0.39293  0.43480  0.02332  1.0000
  H   H262      1.0  0.41918  0.38917  0.02561  1.0000
  H   H263      1.0  0.33674  0.59750  0.61463  1.0000
  H   H264      1.0  0.38468  0.36143  0.60707  1.0000
  H   H265      1.0  0.34237  0.59959  0.55498  1.0000
  C   C168      1.0  0.31085  0.60403  0.60086  1.0000
  S   S66       1.0  0.32238  0.36091  0.92936  1.0000
  H   H266      1.0  0.07560  0.55188  0.77560  1.0000
  N   N16       1.0  0.57142  0.44700  0.71355  1.0000
  H   H267      1.0  0.33541  0.59690  0.85683  1.0000
  C   C169      1.0  0.07411  0.56178  0.67353  1.0000
  C   C170      1.0  0.36246  0.60448  0.86859  1.0000
  C   C171      1.0  0.28847  0.35938  0.80218  1.0000
  C   C172      1.0  0.55285  0.80901  0.40781  1.0000
  S   S67       1.0  0.29454  0.79307  0.34381  1.0000
  Fe  Fe33      1.0  0.42704  0.67103  0.18877  1.0000
  S   S68       1.0  0.42238  0.63950  0.21222  1.0000
  S   S69       1.0  0.48781  0.68310  0.16800  1.0000
  Fe  Fe34      1.0  0.33436  0.68096  0.19806  1.0000
  S   S70       1.0  0.32179  0.65008  0.22154  1.0000
  S   S71       1.0  0.27724  0.70197  0.19529  1.0000
  Fe  Fe35      1.0  0.38075  0.65568  0.24848  1.0000
  S   S72       1.0  0.38449  0.64624  0.30054  1.0000
  Fe  Fe36      1.0  0.36394  0.63659  0.18320  1.0000
  H   H268      1.0  0.47325  0.61433  0.12367  1.0000
  S   S73       1.0  0.39058  0.68783  0.22807  1.0000
  S   S74       1.0  0.37143  0.66707  0.15676  1.0000
  C   C173      1.0  0.28514  0.84406  0.28572  1.0000
  S   S75       1.0  0.18632  0.81286  0.10545  1.0000
  H   H269      1.0  0.53682  0.70632  0.23564  1.0000
  H   H270      1.0  0.31875  0.83551  0.32871  1.0000
  S   S76       1.0  0.21311  0.80326  0.18052  1.0000
  H   H271      1.0  0.34089  0.76161  0.37762  1.0000
  Fe  Fe37      1.0  0.24573  0.80694  0.13266  1.0000
  S   S77       1.0  0.29849  0.78526  0.11653  1.0000
  Fe  Fe38      1.0  0.15429  0.81238  0.15386  1.0000
  S   S78       1.0  0.25925  0.84096  0.13901  1.0000
  Fe  Fe39      1.0  0.22202  0.83788  0.18503  1.0000
  H   H272      1.0  0.37135  0.73820  0.36933  1.0000
  S   S79       1.0  0.24739  0.85378  0.22871  1.0000
  H   H273      1.0  0.34004  0.63725  0.11472  1.0000
  C   C174      1.0  0.11614  0.67604  0.34119  1.0000
  H   H274      1.0  0.33811  0.71263  0.42547  1.0000
  H   H275      1.0  0.47827  0.64493  0.06595  1.0000
  C   C175      1.0  0.28237  0.72343  0.16924  1.0000
  C   C176      1.0  0.32109  0.72789  0.15459  1.0000
  C   C177      1.0  0.32527  0.74624  0.13609  1.0000
  C   C178      1.0  0.29090  0.76018  0.13269  1.0000
  C   C179      1.0  0.25170  0.75507  0.14585  1.0000
  C   C180      1.0  0.24753  0.73679  0.16431  1.0000
  H   H276      1.0  0.34797  0.71747  0.15812  1.0000
  H   H277      1.0  0.35550  0.75003  0.12555  1.0000
  H   H278      1.0  0.22479  0.76548  0.14256  1.0000
  H   H279      1.0  0.21744  0.73322  0.17532  1.0000
  C   C181      1.0  0.52029  0.64282  0.16162  1.0000
  C   C182      1.0  0.52412  0.66405  0.15366  1.0000
  C   C183      1.0  0.34841  0.74551  0.38655  1.0000
  H   H280      1.0  0.49348  0.63762  0.17525  1.0000
  C   C184      1.0  0.34502  0.62138  0.06924  1.0000
  C   C185      1.0  0.27838  0.81080  0.31375  1.0000
  C   C186      1.0  0.29596  0.83066  0.31136  1.0000
  Fe  Fe40      1.0  0.19679  0.84666  0.11591  1.0000
  S   S80       1.0  0.20852  0.66547  0.52336  1.0000
  C   C187      1.0  0.23858  0.81796  0.26518  1.0000
  C   C188      1.0  0.24946  0.80452  0.29077  1.0000
  H   H281      1.0  0.31088  0.72317  0.34047  1.0000
  S   S81       1.0  0.16039  0.84687  0.16249  1.0000
  H   H282      1.0  0.21597  0.81310  0.24771  1.0000
  H   H283      1.0  0.23557  0.78922  0.29266  1.0000
  H   H284      1.0  0.14561  0.70096  0.38714  1.0000
  C   C189      1.0  0.07894  0.84890  0.10713  1.0000
  Fe  Fe41      1.0  0.39385  0.83737  0.41033  1.0000
  C   C190      1.0  0.33566  0.65047  0.35503  1.0000
  C   C191      1.0  0.34114  0.65619  0.32265  1.0000
  C   C192      1.0  0.31137  0.66939  0.30789  1.0000
  C   C193      1.0  0.27596  0.67665  0.32531  1.0000
  C   C194      1.0  0.25688  0.83763  0.26235  1.0000
  C   C195      1.0  0.45595  0.61146  0.10112  1.0000
  H   H285      1.0  0.31555  0.67406  0.28300  1.0000
  H   H286      1.0  0.25296  0.68680  0.31367  1.0000
  H   H287      1.0  0.36260  0.77735  0.17021  1.0000
  N   N17       1.0  0.34125  0.79031  0.21520  1.0000
  H   H288      1.0  0.40265  0.78967  0.19275  1.0000
  C   C196      1.0  0.30488  0.77638  0.21878  1.0000
  H   H289      1.0  0.29031  0.77342  0.19521  1.0000
  H   H290      1.0  0.27984  0.78343  0.23448  1.0000
  H   H291      1.0  0.31408  0.76087  0.22921  1.0000
  H   H292      1.0  0.35384  0.82130  0.19712  1.0000
  H   H293      1.0  0.31520  0.80738  0.17508  1.0000
  H   H294      1.0  0.33440  0.80301  0.26268  1.0000
  C   C197      1.0  0.32758  0.81015  0.19958  1.0000
  C   C198      1.0  0.35829  0.79477  0.24729  1.0000
  H   H295      1.0  0.30196  0.81812  0.21356  1.0000
  H   H296      1.0  0.52456  0.63309  0.04761  1.0000
  C   C199      1.0  0.34368  0.62229  0.10301  1.0000
  H   H297      1.0  0.36786  0.78010  0.26012  1.0000
  H   H298      1.0  0.52962  0.80426  0.38958  1.0000
  C   C200      1.0  0.37412  0.77995  0.19502  1.0000
  H   H299      1.0  0.38609  0.80504  0.24558  1.0000
  H   H300      1.0  0.09959  0.66525  0.42059  1.0000
  H   H301      1.0  0.38369  0.76437  0.20504  1.0000
  H   H302      1.0  0.09774  0.70325  0.41016  1.0000
  C   C201      1.0  0.32147  0.71184  0.40217  1.0000
  H   H303      1.0  0.35864  0.64024  0.36653  1.0000
  H   H304      1.0  0.26042  0.72194  0.36014  1.0000
  H   H305      1.0  0.30346  0.62309  0.27772  1.0000
  C   C202      1.0  0.27029  0.67082  0.35758  1.0000
  S   S82       1.0  0.09373  0.79460  0.15581  1.0000
  S   S83       1.0  0.28863  0.61930  0.50795  1.0000
  H   H306      1.0  0.28098  0.74690  0.34824  1.0000
  H   H307      1.0  0.08000  0.83424  0.18844  1.0000
  H   H308      1.0  0.49796  0.81708  0.45642  1.0000
  H   H309      1.0  0.36445  0.74718  0.41003  1.0000
  Fe  Fe42      1.0  0.32778  0.80847  0.38450  1.0000
  H   H310      1.0  0.29599  0.65320  0.39746  1.0000
  H   H311      1.0  0.56696  0.70393  0.18169  1.0000
  H   H312      1.0  0.54815  0.82613  0.41177  1.0000
  C   C203      1.0  0.11072  0.70017  0.38563  1.0000
  C   C204      1.0  0.30024  0.65780  0.37254  1.0000
  C   C205      1.0  0.55558  0.77451  0.43200  1.0000
  H   H313      1.0  0.48064  0.79514  0.43380  1.0000
  S   S84       1.0  0.22582  0.68033  0.37876  1.0000
  N   N18       1.0  0.54793  0.79707  0.43819  1.0000
  C   C206      1.0  0.11229  0.66285  0.39576  1.0000
  H   H314      1.0  0.15120  0.67619  0.34173  1.0000
  H   H315      1.0  0.27031  0.75919  0.40381  1.0000
  H   H316      1.0  0.14722  0.66239  0.39736  1.0000
  C   C207      1.0  0.28970  0.73118  0.35830  1.0000
  H   H317      1.0  0.36571  0.61285  0.24489  1.0000
  H   H318      1.0  0.53282  0.76846  0.41437  1.0000
  S   S85       1.0  0.39728  0.80451  0.39149  1.0000
  Fe  Fe43      1.0  0.24852  0.64613  0.48960  1.0000
  H   H319      1.0  0.27567  0.76411  0.52183  1.0000
  C   C208      1.0  0.55932  0.67051  0.13594  1.0000
  S   S86       1.0  0.18159  0.69377  0.46073  1.0000
  Fe  Fe44      1.0  0.23414  0.69278  0.49622  1.0000
  S   S87       1.0  0.25304  0.72109  0.52376  1.0000
  Fe  Fe45      1.0  0.16027  0.66426  0.48481  1.0000
  S   S88       1.0  0.27831  0.67375  0.46517  1.0000
  S   S89       1.0  0.19834  0.64285  0.45263  1.0000
  H   H320      1.0  0.09980  0.71322  0.36971  1.0000
  S   S90       1.0  0.38270  0.82811  0.46188  1.0000
  N   N19       1.0  0.31000  0.73298  0.38996  1.0000
  C   C209      1.0  0.50470  0.80030  0.45113  1.0000
  H   H321      1.0  0.25150  0.73408  0.41667  1.0000
  Fe  Fe46      1.0  0.38002  0.79560  0.44203  1.0000
  S   S91       1.0  0.40967  0.76660  0.46324  1.0000
  H   H322      1.0  0.10579  0.68843  0.32385  1.0000
  S   S92       1.0  0.31056  0.79698  0.43372  1.0000
  H   H323      1.0  0.55144  0.67126  0.21542  1.0000
  H   H324      1.0  0.34229  0.70314  0.38485  1.0000
  S   S93       1.0  0.09375  0.65514  0.49616  1.0000
  H   H325      1.0  0.09349  0.83491  0.11900  1.0000
  S   S94       1.0  0.32563  0.84231  0.39855  1.0000
  H   H326      1.0  0.49959  0.79129  0.47384  1.0000
  C   C210      1.0  0.29836  0.73323  0.50881  1.0000
  C   C211      1.0  0.33165  0.72153  0.49496  1.0000
  C   C212      1.0  0.36719  0.73170  0.48257  1.0000
  C   C213      1.0  0.36892  0.75359  0.48332  1.0000
  C   C214      1.0  0.33612  0.76519  0.49785  1.0000
  C   C215      1.0  0.30115  0.75501  0.51091  1.0000
  H   H327      1.0  0.33023  0.70469  0.49384  1.0000
  H   H328      1.0  0.33756  0.78210  0.49889  1.0000
  H   H329      1.0  0.45343  0.85524  0.46224  1.0000
  Fe  Fe47      1.0  0.31443  0.83048  0.44872  1.0000
  H   H330      1.0  0.34318  0.63569  0.05518  1.0000
  H   H331      1.0  0.54935  0.61194  0.15960  1.0000
  H   H332      1.0  0.29307  0.70229  0.40630  1.0000
  H   H333      1.0  0.10713  0.66061  0.33140  1.0000
  H   H334      1.0  0.29499  0.74556  0.43676  1.0000
  H   H335      1.0  0.39265  0.72269  0.47147  1.0000
  H   H336      1.0  0.10807  0.81954  0.06588  1.0000
  C   C216      1.0  0.55202  0.62825  0.15272  1.0000
  C   C217      1.0  0.28039  0.74339  0.41282  1.0000
  Fe  Fe48      1.0  0.22387  0.67247  0.43153  1.0000
  H   H337      1.0  0.55239  0.76507  0.45448  1.0000
  N   N20       1.0  0.48434  0.61156  0.07264  1.0000
  H   H338      1.0  0.56219  0.68681  0.12908  1.0000
  H   H339      1.0  0.12035  0.84511  0.05087  1.0000
  C   C218      1.0  0.50303  0.63246  0.06892  1.0000
  H   H340      1.0  0.33958  0.85513  0.50946  1.0000
  H   H341      1.0  0.56805  0.69992  0.27023  1.0000
  H   H342      1.0  0.09432  0.69949  0.48101  1.0000
  N   N21       1.0  0.09758  0.67960  0.37357  1.0000
  H   H343      1.0  0.10239  0.64713  0.38780  1.0000
  S   S95       1.0  0.26169  0.84573  0.47709  1.0000
  C   C219      1.0  0.09413  0.83404  0.05494  1.0000
  H   H344      1.0  0.30156  0.68226  0.53634  1.0000
  H   H345      1.0  0.52153  0.63660  0.09036  1.0000
  H   H346      1.0  0.43087  0.62383  0.09922  1.0000
  H   H347      1.0  0.23783  0.83674  0.05817  1.0000
  C   C220      1.0  0.56944  0.70636  0.24529  1.0000
  H   H348      1.0  0.51738  0.85782  0.49534  1.0000
  H   H349      1.0  0.10389  0.61970  0.54413  1.0000
  N   N22       1.0  0.20285  0.85185  0.60077  1.0000
  H   H350      1.0  0.35186  0.67066  0.54619  1.0000
  C   C221      1.0  0.24742  0.85795  0.59826  1.0000
  C   C222      1.0  0.31803  0.67154  0.55343  1.0000
  H   H351      1.0  0.32969  0.66839  0.63456  1.0000
  H   H352      1.0  0.28871  0.61798  0.89430  1.0000
  H   H353      1.0  0.38537  0.62081  0.94403  1.0000
  C   C223      1.0  0.19919  0.82964  0.59151  1.0000
  H   H354      1.0  0.30976  0.62784  0.93104  1.0000
  C   C224      1.0  0.25655  0.84392  0.00939  1.0000
  H   H355      1.0  0.31422  0.71135  0.57408  1.0000
  H   H356      1.0  0.26017  0.85556  0.57345  1.0000
  H   H357      1.0  0.39969  0.63298  0.90626  1.0000
  N   N23       1.0  0.31232  0.67871  0.58698  1.0000
  H   H358      1.0  0.21391  0.62683  0.61110  1.0000
  N   N24       1.0  0.35322  0.60910  0.90283  1.0000
  H   H359      1.0  0.25231  0.66412  0.59248  1.0000
  S   S96       1.0  0.28536  0.85462  0.94942  1.0000
  H   H360      1.0  0.32478  0.63930  0.89300  1.0000
  C   C225      1.0  0.33405  0.66382  0.60891  1.0000
  H   H361      1.0  0.36843  0.66271  0.60356  1.0000
  H   H362      1.0  0.24959  0.69095  0.57930  1.0000
  H   H363      1.0  0.43516  0.61896  0.03903  1.0000
  H   H364      1.0  0.26136  0.68470  0.62053  1.0000
  H   H365      1.0  0.16588  0.82459  0.59295  1.0000
  C   C226      1.0  0.31753  0.62427  0.90537  1.0000
  S   S97       1.0  0.27439  0.61480  0.65872  1.0000
  C   C227      1.0  0.26690  0.67969  0.59521  1.0000
  C   C228      1.0  0.24449  0.62132  0.56518  1.0000
  C   C229      1.0  0.09736  0.61421  0.56921  1.0000
  H   H366      1.0  0.32651  0.70566  0.61531  1.0000
  H   H367      1.0  0.32153  0.64777  0.60662  1.0000
  H   H368      1.0  0.27646  0.83002  0.00697  1.0000
  H   H369      1.0  0.36987  0.61892  0.85470  1.0000
  C   C230      1.0  0.33020  0.69977  0.59026  1.0000
  C   C231      1.0  0.24181  0.62074  0.59886  1.0000
  H   H370      1.0  0.30505  0.65568  0.55008  1.0000
  C   C232      1.0  0.27529  0.61244  0.61674  1.0000
  H   H371      1.0  0.21813  0.81913  0.60747  1.0000
  H   H372      1.0  0.08177  0.82983  0.03097  1.0000
  C   C233      1.0  0.28129  0.61441  0.54932  1.0000
  C   C234      1.0  0.39083  0.61792  0.91783  1.0000
  H   H373      1.0  0.36433  0.69968  0.58386  1.0000
  H   H374      1.0  0.21808  0.62708  0.55151  1.0000
  H   H375      1.0  0.26766  0.84862  0.61493  1.0000
  H   H376      1.0  0.20599  0.84485  0.65149  1.0000
  C   C235      1.0  0.23459  0.84769  0.03836  1.0000
  C   C236      1.0  0.18757  0.85467  0.63426  1.0000
  C   C237      1.0  0.25385  0.85838  0.98397  1.0000
  H   H377      1.0  0.21059  0.82702  0.56631  1.0000
  H   H378      1.0  0.11447  0.62465  0.58566  1.0000
  H   H379      1.0  0.15377  0.85060  0.63694  1.0000
  H   H380      1.0  0.35830  0.86898  0.06913  1.0000
  H   H381      1.0  0.42157  0.07523  0.17334  1.0000
  C   C238      1.0  0.24432  0.88039  0.51277  1.0000
  H   H382      1.0  0.39912  0.93118  0.44171  1.0000
  H   H383      1.0  0.34545  0.91341  0.38842  1.0000
  C   C239      1.0  0.25331  0.89577  0.53538  1.0000
  H   H384      1.0  0.27322  0.07749  0.08779  1.0000
  H   H385      1.0  0.37011  0.89524  0.08078  1.0000
  C   C240      1.0  0.32473  0.88210  0.53885  1.0000
  H   H386      1.0  0.39896  0.90541  0.39679  1.0000
  H   H387      1.0  0.35880  0.88630  0.39548  1.0000
  H   H388      1.0  0.24791  0.05281  0.08318  1.0000
  C   C241      1.0  0.27521  0.86559  0.50360  1.0000
  H   H389      1.0  0.36006  0.92976  0.47330  1.0000
  C   C242      1.0  0.31262  0.90076  0.44546  1.0000
  H   H390      1.0  0.37796  0.09123  0.11176  1.0000
  H   H391      1.0  0.10384  0.86078  0.10422  1.0000
  C   C243      1.0  0.31567  0.86661  0.51627  1.0000
  H   H392      1.0  0.52591  0.08192  0.54085  1.0000
  N   N25       1.0  0.42830  0.10170  0.14137  1.0000
  H   H393      1.0  0.25713  0.10676  0.05036  1.0000
  C   C244      1.0  0.36577  0.92720  0.44707  1.0000
  H   H394      1.0  0.29069  0.91092  0.43130  1.0000
  N   N26       1.0  0.35712  0.90537  0.43799  1.0000
  H   H395      1.0  0.30530  0.88415  0.44000  1.0000
  C   C245      1.0  0.48498  0.86343  0.41785  1.0000
  C   C246      1.0  0.36535  0.90258  0.40315  1.0000
  H   H396      1.0  0.30290  0.90855  0.05736  1.0000
  H   H397      1.0  0.37907  0.87431  0.45010  1.0000
  H   H398      1.0  0.30509  0.90334  0.47140  1.0000
  C   C247      1.0  0.37292  0.88380  0.06071  1.0000
  H   H399      1.0  0.21323  0.87988  0.50247  1.0000
  C   C248      1.0  0.38486  0.89091  0.45635  1.0000
  H   H400      1.0  0.41871  0.89379  0.45100  1.0000
  H   H401      1.0  0.34526  0.93857  0.43379  1.0000
  H   H402      1.0  0.37976  0.89260  0.48277  1.0000
  H   H403      1.0  0.52485  0.87273  0.37813  1.0000
  H   H404      1.0  0.40703  0.88043  0.05629  1.0000
  H   H405      1.0  0.29110  0.10646  0.52939  1.0000
  C   C249      1.0  0.55956  0.87043  0.42230  1.0000
  C   C250      1.0  0.52316  0.86935  0.40368  1.0000
  H   H406      1.0  0.42106  0.09610  0.48104  1.0000
  H   H407      1.0  0.21785  0.07550  0.09605  1.0000
  H   H408      1.0  0.20159  0.10418  0.05729  1.0000
  H   H409      1.0  0.42103  0.10036  0.19292  1.0000
  C   C251      1.0  0.24389  0.07004  0.07974  1.0000
  C   C252      1.0  0.51903  0.86099  0.46973  1.0000
  H   H410      1.0  0.37601  0.09244  0.17129  1.0000
  C   C253      1.0  0.55757  0.86614  0.45532  1.0000
  H   H411      1.0  0.42319  0.07379  0.11297  1.0000
  C   C254      1.0  0.41300  0.09057  0.11284  1.0000
  H   H412      1.0  0.08042  0.10166  0.11215  1.0000
  H   H413      1.0  0.48681  0.08417  0.14284  1.0000
  C   C255      1.0  0.48287  0.85941  0.45096  1.0000
  H   H414      1.0  0.42475  0.09782  0.09003  1.0000
  S   S98       1.0  0.18383  0.87141  0.07845  1.0000
  N   N27       1.0  0.23497  0.07540  0.04583  1.0000
  H   H415      1.0  0.41565  0.09534  0.54061  1.0000
  H   H416      1.0  0.16877  0.06969  0.05102  1.0000
  H   H417      1.0  0.22928  0.90708  0.54227  1.0000
  C   C256      1.0  0.41114  0.09190  0.17097  1.0000
  C   C257      1.0  0.47481  0.10067  0.14179  1.0000
  S   S99       1.0  0.44036  0.86123  0.39376  1.0000
  H   H418      1.0  0.29115  0.88208  0.04723  1.0000
  H   H419      1.0  0.48719  0.10899  0.16305  1.0000
  H   H420      1.0  0.48856  0.10812  0.11984  1.0000
  H   H421      1.0  0.29940  0.85926  0.28358  1.0000
  Fe  Fe49      1.0  0.38555  0.05576  0.62566  1.0000
  C   C258      1.0  0.34522  0.96968  0.67707  1.0000
  Fe  Fe50      1.0  0.30213  0.07804  0.61459  1.0000
  H   H422      1.0  0.26586  0.07285  0.99961  1.0000
  S   S100      1.0  0.23943  0.07804  0.59035  1.0000
  C   C259      1.0  0.52521  0.04314  0.66951  1.0000
  H   H423      1.0  0.50644  0.01982  0.58510  1.0000
  S   S101      1.0  0.36041  0.07445  0.58410  1.0000
  C   C260      1.0  0.34162  0.99591  0.63492  1.0000
  Fe  Fe51      1.0  0.18014  0.96309  0.60895  1.0000
  S   S102      1.0  0.24709  0.96047  0.62469  1.0000
  S   S103      1.0  0.14807  0.99071  0.58526  1.0000
  Fe  Fe52      1.0  0.16023  0.91929  0.63245  1.0000
  S   S104      1.0  0.22531  0.91305  0.65119  1.0000
  H   H424      1.0  0.31598  0.98776  0.62257  1.0000
  Fe  Fe53      1.0  0.24666  0.92795  0.60487  1.0000
  S   S105      1.0  0.15273  0.95090  0.65509  1.0000
  S   S106      1.0  0.18187  0.93185  0.58476  1.0000
  C   C261      1.0  0.51165  0.02641  0.60861  1.0000
  H   H425      1.0  0.43960  0.90057  0.79758  1.0000
  H   H426      1.0  0.37085  0.92374  0.03961  1.0000
  C   C262      1.0  0.47725  0.03128  0.62885  1.0000
  S   S107      1.0  0.41276  0.08321  0.65033  1.0000
  H   H427      1.0  0.53035  0.04957  0.69314  1.0000
  H   H428      1.0  0.31705  0.09736  0.94310  1.0000
  H   H429      1.0  0.37557  0.96324  0.66729  1.0000
  N   N28       1.0  0.53619  0.09682  0.58622  1.0000
  H   H430      1.0  0.34012  0.86141  0.01237  1.0000
  C   C263      1.0  0.21500  0.05352  0.58941  1.0000
  C   C264      1.0  0.23390  0.03560  0.60311  1.0000
  C   C265      1.0  0.21350  0.01627  0.60221  1.0000
  C   C266      1.0  0.17440  0.01472  0.58727  1.0000
  C   C267      1.0  0.15570  0.03265  0.57350  1.0000
  C   C268      1.0  0.17586  0.05197  0.57465  1.0000
  H   H431      1.0  0.34409  0.96643  0.70343  1.0000
  H   H432      1.0  0.22809  0.00264  0.61302  1.0000
  H   H433      1.0  0.41240  0.91794  0.84674  1.0000
  Fe  Fe54      1.0  0.22876  0.10241  0.90935  1.0000
  C   C269      1.0  0.48406  0.03975  0.65924  1.0000
  C   C270      1.0  0.55958  0.03858  0.64912  1.0000
  S   S108      1.0  0.32499  0.05660  0.65404  1.0000
  H   H434      1.0  0.49192  0.88929  0.79661  1.0000
  H   H435      1.0  0.31949  0.96064  0.66628  1.0000
  S   S109      1.0  0.42581  0.02717  0.61588  1.0000
  H   H436      1.0  0.51678  0.90314  0.88084  1.0000
  C   C271      1.0  0.29948  0.00012  0.68341  1.0000
  Fe  Fe55      1.0  0.22018  0.94603  0.66942  1.0000
  H   H437      1.0  0.35573  0.88257  0.54931  1.0000
  H   H438      1.0  0.37202  0.99025  0.62409  1.0000
  H   H439      1.0  0.45763  0.04346  0.67503  1.0000
  Fe  Fe56      1.0  0.35026  0.08581  0.67551  1.0000
  H   H440      1.0  0.33824  0.01286  0.62879  1.0000
  N   N29       1.0  0.34030  0.99235  0.67012  1.0000
  H   H441      1.0  0.29713  0.99738  0.70984  1.0000
  H   H442      1.0  0.48440  0.91728  0.79759  1.0000
  S   S110      1.0  0.11070  0.89491  0.62841  1.0000
  H   H443      1.0  0.18612  0.86247  0.55332  1.0000
  C   C272      1.0  0.37506  0.00367  0.68511  1.0000
  S   S111      1.0  0.30390  0.91445  0.57925  1.0000
  C   C273      1.0  0.56796  0.09662  0.61190  1.0000
  H   H444      1.0  0.09828  0.91674  0.68900  1.0000
  H   H445      1.0  0.26421  0.03661  0.61429  1.0000
  S   S112      1.0  0.24018  0.95805  0.71743  1.0000
  H   H446      1.0  0.08429  0.95172  0.58164  1.0000
  C   C274      1.0  0.55281  0.03033  0.61857  1.0000
  H   H447      1.0  0.25126  0.87481  0.60420  1.0000
  H   H448      1.0  0.30409  0.92606  0.70246  1.0000
  H   H449      1.0  0.38974  0.87205  0.00006  1.0000
  H   H450      1.0  0.48073  0.86774  0.95079  1.0000
  H   H451      1.0  0.22502  0.88726  0.96736  1.0000
  H   H452      1.0  0.18097  0.88208  0.58405  1.0000
  C   C275      1.0  0.52455  0.89296  0.94690  1.0000
  H   H453      1.0  0.14299  0.86186  0.58164  1.0000
  H   H454      1.0  0.53687  0.89089  0.84500  1.0000
  H   H455      1.0  0.20085  0.01971  0.84638  1.0000
  H   H456      1.0  0.18600  0.89393  0.01850  1.0000
  H   H457      1.0  0.40656  0.90872  0.01441  1.0000
  H   H458      1.0  0.37253  0.02081  0.68031  1.0000
  C   C276      1.0  0.45529  0.88139  0.85393  1.0000
  Fe  Fe57      1.0  0.20078  0.06941  0.86300  1.0000
  S   S113      1.0  0.15905  0.05399  0.89967  1.0000
  S   S114      1.0  0.20167  0.05748  0.81225  1.0000
  S   S115      1.0  0.56847  0.87604  0.94368  1.0000
  C   C277      1.0  0.29849  0.92626  0.72819  1.0000
  C   C278      1.0  0.33383  0.10676  0.99094  1.0000
  Fe  Fe58      1.0  0.21248  0.05868  0.93331  1.0000
  S   S116      1.0  0.23543  0.03430  0.96828  1.0000
  Fe  Fe59      1.0  0.13987  0.08680  0.91311  1.0000
  C   C279      1.0  0.20563  0.87995  0.01600  1.0000
  S   S117      1.0  0.25647  0.07112  0.89548  1.0000
  S   S118      1.0  0.18963  0.09019  0.95012  1.0000
  Fe  Fe60      1.0  0.29580  0.88453  0.92206  1.0000
  S   S119      1.0  0.29251  0.91553  0.94716  1.0000
  C   C280      1.0  0.30727  0.89638  0.03850  1.0000
  Fe  Fe61      1.0  0.32541  0.90362  0.85877  1.0000
  S   S120      1.0  0.32492  0.93614  0.87869  1.0000
  S   S121      1.0  0.34772  0.89847  0.80782  1.0000
  Fe  Fe62      1.0  0.35406  0.92125  0.92219  1.0000
  S   S122      1.0  0.40856  0.93622  0.94618  1.0000
  Fe  Fe63      1.0  0.26344  0.92712  0.90137  1.0000
  S   S123      1.0  0.20620  0.94829  0.90017  1.0000
  S   S124      1.0  0.35988  0.88938  0.90040  1.0000
  S   S125      1.0  0.26147  0.89555  0.87806  1.0000
  H   H459      1.0  0.21780  0.01232  0.78956  1.0000
  H   H460      1.0  0.22948  0.00671  0.87777  1.0000
  S   S126      1.0  0.35247  0.09165  0.72867  1.0000
  C   C281      1.0  0.45309  0.91956  0.94810  1.0000
  C   C282      1.0  0.44862  0.89785  0.95001  1.0000
  C   C283      1.0  0.49338  0.92800  0.94637  1.0000
  C   C284      1.0  0.22882  0.09834  0.04249  1.0000
  H   H461      1.0  0.27742  0.97664  0.86425  1.0000
  H   H462      1.0  0.30795  0.00788  0.81167  1.0000
  H   H463      1.0  0.41768  0.89128  0.95183  1.0000
  H   H464      1.0  0.12553  0.03162  0.56191  1.0000
  C   C285      1.0  0.51566  0.90372  0.85411  1.0000
  H   H465      1.0  0.19029  0.99287  0.85608  1.0000
  H   H466      1.0  0.34445  0.08329  0.79578  1.0000
  N   N30       1.0  0.47213  0.90158  0.84257  1.0000
  H   H467      1.0  0.52936  0.91886  0.84630  1.0000
  C   C286      1.0  0.22604  0.00950  0.95255  1.0000
  C   C287      1.0  0.18669  0.00514  0.93979  1.0000
  C   C288      1.0  0.18018  0.98585  0.92495  1.0000
  C   C289      1.0  0.21324  0.97107  0.92241  1.0000
  C   C290      1.0  0.25231  0.97522  0.93584  1.0000
  C   C291      1.0  0.25860  0.99440  0.95116  1.0000
  H   H468      1.0  0.16125  0.01662  0.94145  1.0000
  H   H469      1.0  0.14989  0.98256  0.91476  1.0000
  H   H470      1.0  0.27792  0.96383  0.93396  1.0000
  H   H471      1.0  0.28907  0.99776  0.96102  1.0000
  C   C292      1.0  0.26769  0.93980  0.74138  1.0000
  C   C293      1.0  0.35624  0.87616  0.00562  1.0000
  C   C294      1.0  0.32295  0.91333  0.74856  1.0000
  C   C295      1.0  0.31600  0.91371  0.78196  1.0000
  C   C296      1.0  0.28417  0.92673  0.79483  1.0000
  C   C297      1.0  0.26037  0.93986  0.77460  1.0000
  N   N31       1.0  0.24824  0.99752  0.83000  1.0000
  H   H472      1.0  0.37527  0.00135  0.71165  1.0000
  H   H473      1.0  0.25285  0.99078  0.77931  1.0000
  H   H474      1.0  0.23567  0.94980  0.78464  1.0000
  C   C298      1.0  0.31187  0.08024  0.75107  1.0000
  C   C299      1.0  0.27513  0.07370  0.73633  1.0000
  C   C300      1.0  0.24161  0.06627  0.75524  1.0000
  C   C301      1.0  0.24457  0.06575  0.78884  1.0000
  C   C302      1.0  0.28174  0.07178  0.80345  1.0000
  C   C303      1.0  0.31554  0.07876  0.78452  1.0000
  H   H475      1.0  0.20245  0.98581  0.79733  1.0000
  C   C304      1.0  0.47207  0.90222  0.80700  1.0000
  H   H476      1.0  0.28463  0.07099  0.82927  1.0000
  C   C305      1.0  0.44538  0.91898  0.85524  1.0000
  H   H477      1.0  0.49792  0.07449  0.61129  1.0000
  H   H478      1.0  0.40626  0.99836  0.67522  1.0000
  H   H479      1.0  0.27773  0.92668  0.82040  1.0000
  H   H480      1.0  0.09640  0.07898  0.86164  1.0000
  H   H481      1.0  0.27205  0.07491  0.71048  1.0000
  S   S127      1.0  0.32242  0.10755  0.63849  1.0000
  H   H482      1.0  0.28986  0.97084  0.82279  1.0000
  H   H483      1.0  0.27175  0.02852  0.82320  1.0000
  H   H484      1.0  0.45739  0.93450  0.84759  1.0000
  C   C306      1.0  0.48432  0.88456  0.94968  1.0000
  H   H485      1.0  0.47076  0.08980  0.58136  1.0000
  H   H486      1.0  0.23913  0.96476  0.83954  1.0000
  H   H487      1.0  0.21290  0.06152  0.74385  1.0000
  H   H488      1.0  0.55275  0.06579  0.57000  1.0000
  H   H489      1.0  0.49695  0.94481  0.94494  1.0000
  H   H490      1.0  0.48412  0.10153  0.61881  1.0000
  C   C307      1.0  0.22957  0.99657  0.79763  1.0000
  C   C308      1.0  0.26450  0.97654  0.83947  1.0000
  H   H491      1.0  0.29462  0.01717  0.67891  1.0000
  C   C309      1.0  0.52914  0.91469  0.94548  1.0000
  C   C310      1.0  0.28315  0.01246  0.82958  1.0000
  H   H492      1.0  0.34729  0.90312  0.73849  1.0000
  C   C311      1.0  0.22795  0.87627  0.98715  1.0000
  H   H493      1.0  0.45450  0.88046  0.88071  1.0000
  C   C312      1.0  0.21575  0.00451  0.85357  1.0000
  C   C313      1.0  0.49546  0.09033  0.60002  1.0000
  N   N32       1.0  0.35231  0.89197  0.03138  1.0000
  H   H494      1.0  0.44414  0.91880  0.88199  1.0000
  H   H495      1.0  0.42255  0.87920  0.84536  1.0000
  H   H496      1.0  0.29816  0.01338  0.85359  1.0000
  H   H497      1.0  0.27257  0.99203  0.67243  1.0000
  H   H498      1.0  0.18885  0.06833  0.01042  1.0000
  C   C314      1.0  0.54934  0.08209  0.56053  1.0000
  S   S128      1.0  0.17682  0.10198  0.87349  1.0000
  H   H499      1.0  0.16108  0.06574  0.56401  1.0000
  H   H500      1.0  0.22307  0.10305  0.01705  1.0000
  H   H501      1.0  0.34172  0.88193  0.98292  1.0000
  H   H502      1.0  0.56020  0.92127  0.94349  1.0000
  Fe  Fe64      1.0  0.38285  0.10217  0.61101  1.0000
  H   H503      1.0  0.55832  0.10715  0.63205  1.0000
  H   H504      1.0  0.35188  0.09255  0.99578  1.0000
  C   C315      1.0  0.17717  0.86512  0.57895  1.0000
  C   C316      1.0  0.27091  0.06848  0.02530  1.0000
  H   H505      1.0  0.27569  0.05116  0.02624  1.0000
  H   H506      1.0  0.35745  0.91820  0.99888  1.0000
  H   H507      1.0  0.30066  0.07576  0.03291  1.0000
  C   C317      1.0  0.19642  0.06476  0.03591  1.0000
  H   H508      1.0  0.07701  0.93837  0.61931  1.0000
  H   H509      1.0  0.29032  0.90202  0.01672  1.0000
  C   C318      1.0  0.37271  0.91148  0.02071  1.0000
  H   H510      1.0  0.47487  0.86790  0.84507  1.0000
  H   H511      1.0  0.18994  0.87127  0.64193  1.0000
  H   H512      1.0  0.20022  0.04741  0.03778  1.0000
  C   C319      1.0  0.29329  0.89646  0.54887  1.0000
  C   C320      1.0  0.20934  0.86580  0.04175  1.0000
  S   S129      1.0  0.72041  0.17474  0.27015  1.0000
  H   H513      1.0  0.79582  0.12273  0.42265  1.0000
  Fe  Fe65      1.0  0.85886  0.16951  0.09786  1.0000
  S   S130      1.0  0.83741  0.13867  0.11826  1.0000
  S   S131      1.0  0.81384  0.19552  0.08352  1.0000
  Fe  Fe66      1.0  0.95110  0.15774  0.10269  1.0000
  S   S132      1.0  0.67074  0.12074  0.40048  1.0000
  S   S133      1.0  0.01498  0.17102  0.09397  1.0000
  H   H514      1.0  0.98315  0.34862  0.50785  1.0000
  H   H515      1.0  0.84833  0.11257  0.46426  1.0000
  Fe  Fe67      1.0  0.88919  0.14289  0.15392  1.0000
  S   S134      1.0  0.88980  0.13953  0.20780  1.0000
  S   S135      1.0  0.90513  0.15524  0.06276  1.0000
  S   S136      1.0  0.90648  0.17462  0.13600  1.0000
  Fe  Fe68      1.0  0.74059  0.33439  0.15717  1.0000
  S   S137      1.0  0.74171  0.30070  0.14313  1.0000
  H   H516      1.0  0.68548  0.35007  0.05662  1.0000
  Fe  Fe69      1.0  0.76921  0.32476  0.22491  1.0000
  S   S138      1.0  0.77449  0.29012  0.21652  1.0000
  H   H517      1.0  0.97909  0.18330  0.18155  1.0000
  Fe  Fe70      1.0  0.80317  0.29903  0.16872  1.0000
  S   S139      1.0  0.85900  0.28156  0.14696  1.0000
  Fe  Fe71      1.0  0.71285  0.29455  0.19154  1.0000
  S   S140      1.0  0.66094  0.27120  0.19544  1.0000
  S   S141      1.0  0.80441  0.33352  0.17957  1.0000
  S   S142      1.0  0.70516  0.32861  0.20308  1.0000
  H   H518      1.0  0.83729  0.23799  0.37635  1.0000
  H   H519      1.0  0.84335  0.27243  0.40306  1.0000
  Fe  Fe72      1.0  0.71902  0.17638  0.32410  1.0000
  H   H520      1.0  0.73547  0.14591  0.49142  1.0000
  C   C321      1.0  0.61673  0.28197  0.21548  1.0000
  C   C322      1.0  0.77983  0.20512  0.16826  1.0000
  C   C323      1.0  0.77227  0.12452  0.44258  1.0000
  H   H521      1.0  0.65219  0.30347  0.24358  1.0000
  C   C324      1.0  0.82827  0.22030  0.09713  1.0000
  C   C325      1.0  0.79762  0.23630  0.09955  1.0000
  C   C326      1.0  0.80708  0.25530  0.11424  1.0000
  C   C327      1.0  0.84718  0.25842  0.12659  1.0000
  C   C328      1.0  0.87850  0.24287  0.12253  1.0000
  C   C329      1.0  0.86913  0.22391  0.10760  1.0000
  H   H522      1.0  0.76613  0.23374  0.09094  1.0000
  H   H523      1.0  0.78313  0.26739  0.11613  1.0000
  H   H524      1.0  0.90989  0.24534  0.13138  1.0000
  H   H525      1.0  0.89356  0.21212  0.10423  1.0000
  S   S143      1.0  0.93565  0.31349  0.35422  1.0000
  C   C330      1.0  0.61677  0.30853  0.14095  1.0000
  H   H526      1.0  0.76583  0.22579  0.24289  1.0000
  H   H527      1.0  0.90995  0.31682  0.06328  1.0000
  H   H528      1.0  0.02039  0.12563  0.09985  1.0000
  H   H529      1.0  0.75611  0.10930  0.44559  1.0000
  C   C331      1.0  0.85382  0.32143  0.28118  1.0000
  H   H530      1.0  0.78768  0.24661  0.17804  1.0000
  H   H531      1.0  0.82636  0.29590  0.38255  1.0000
  S   S144      1.0  0.77415  0.33846  0.27436  1.0000
  C   C332      1.0  0.77148  0.26507  0.37224  1.0000
  H   H532      1.0  0.60539  0.15812  0.40986  1.0000
  C   C333      1.0  0.81988  0.33212  0.29583  1.0000
  C   C334      1.0  0.88969  0.31616  0.29917  1.0000
  H   H533      1.0  0.84716  0.32905  0.51691  1.0000
  C   C335      1.0  0.76647  0.16278  0.25433  1.0000
  C   C336      1.0  0.76746  0.15650  0.22210  1.0000
  C   C337      1.0  0.80520  0.14922  0.20782  1.0000
  C   C338      1.0  0.84199  0.14780  0.22586  1.0000
  C   C339      1.0  0.84082  0.15353  0.25836  1.0000
  C   C340      1.0  0.80319  0.16120  0.27252  1.0000
  H   H534      1.0  0.73908  0.15742  0.20802  1.0000
  H   H535      1.0  0.80567  0.14452  0.18293  1.0000
  C   C341      1.0  0.81362  0.33439  0.51779  1.0000
  H   H536      1.0  0.80293  0.16636  0.29723  1.0000
  H   H537      1.0  0.73920  0.25010  0.20010  1.0000
  H   H538      1.0  0.74816  0.13619  0.43443  1.0000
  N   N33       1.0  0.81378  0.26735  0.35754  1.0000
  C   C342      1.0  0.75580  0.24011  0.18199  1.0000
  H   H539      1.0  0.58485  0.33156  0.18926  1.0000
  N   N34       1.0  0.75826  0.21811  0.19304  1.0000
  H   H540      1.0  0.71563  0.19389  0.20707  1.0000
  S   S145      1.0  0.63584  0.22342  0.40200  1.0000
  H   H541      1.0  0.91606  0.30799  0.28777  1.0000
  H   H542      1.0  0.69618  0.21139  0.17641  1.0000
  H   H543      1.0  0.69809  0.21986  0.21746  1.0000
  H   H544      1.0  0.84808  0.29603  0.07788  1.0000
  H   H545      1.0  0.99821  0.18923  0.22088  1.0000
  C   C343      1.0  0.62118  0.29852  0.23695  1.0000
  H   H546      1.0  0.79911  0.32952  0.49485  1.0000
  C   C344      1.0  0.85740  0.33192  0.34650  1.0000
  C   C345      1.0  0.83372  0.24641  0.35300  1.0000
  C   C346      1.0  0.06007  0.17091  0.18495  1.0000
  C   C347      1.0  0.78698  0.34742  0.08172  1.0000
  H   H547      1.0  0.99961  0.14999  0.15579  1.0000
  N   N35       1.0  0.02360  0.16068  0.20041  1.0000
  C   C348      1.0  0.00928  0.14368  0.17959  1.0000
  H   H548      1.0  0.81433  0.22331  0.22002  1.0000
  C   C349      1.0  0.57526  0.21662  0.35724  1.0000
  H   H549      1.0  0.60085  0.21442  0.34005  1.0000
  H   H550      1.0  0.05373  0.31516  0.42409  1.0000
  H   H551      1.0  0.87242  0.28172  0.36873  1.0000
  H   H552      1.0  0.59934  0.29387  0.14580  1.0000
  H   H553      1.0  0.86921  0.15245  0.27242  1.0000
  C   C350      1.0  0.78222  0.21692  0.22327  1.0000
  C   C351      1.0  0.71932  0.34786  0.05553  1.0000
  H   H554      1.0  0.75561  0.28060  0.37604  1.0000
  H   H555      1.0  0.05136  0.17808  0.16135  1.0000
  S   S146      1.0  0.75473  0.15348  0.35504  1.0000
  H   H556      1.0  0.76268  0.20566  0.14506  1.0000
  S   S147      1.0  0.93821  0.12624  0.12390  1.0000
  H   H557      1.0  0.96047  0.16890  0.21589  1.0000
  C   C352      1.0  0.89136  0.32124  0.33191  1.0000
  H   H558      1.0  0.07242  0.18358  0.20021  1.0000
  H   H559      1.0  0.02165  0.34433  0.53858  1.0000
  H   H560      1.0  0.81241  0.21050  0.16338  1.0000
  C   C353      1.0  0.58389  0.22095  0.38941  1.0000
  H   H561      1.0  0.77326  0.25709  0.39609  1.0000
  C   C354      1.0  0.58543  0.30891  0.24965  1.0000
  H   H562      1.0  0.73816  0.24174  0.15910  1.0000
  C   C355      1.0  0.71517  0.21046  0.19871  1.0000
  S   S148      1.0  0.65746  0.17239  0.35033  1.0000
  H   H563      1.0  0.83563  0.27329  0.05497  1.0000
  H   H564      1.0  0.58906  0.32215  0.26545  1.0000
  C   C356      1.0  0.61266  0.34583  0.13157  1.0000
  H   H565      1.0  0.77541  0.29720  0.52184  1.0000
  H   H566      1.0  0.85255  0.31737  0.25597  1.0000
  H   H567      1.0  0.78230  0.18840  0.17577  1.0000
  H   H568      1.0  0.78615  0.20048  0.23172  1.0000
  S   S149      1.0  0.73706  0.20488  0.35174  1.0000
  C   C357      1.0  0.05118  0.13194  0.10317  1.0000
  H   H569      1.0  0.90753  0.25838  0.06200  1.0000
  C   C358      1.0  0.05732  0.15353  0.10047  1.0000
  C   C359      1.0  0.84009  0.27989  0.37891  1.0000
  H   H570      1.0  0.82444  0.29588  0.54247  1.0000
  H   H571      1.0  0.63903  0.31045  0.16109  1.0000
  H   H572      1.0  0.75079  0.25559  0.35686  1.0000
  H   H573      1.0  0.63611  0.30612  0.11869  1.0000
  H   H574      1.0  0.81464  0.23638  0.33725  1.0000
  H   H575      1.0  0.86574  0.24757  0.34199  1.0000
  Fe  Fe73      1.0  0.67891  0.19865  0.38115  1.0000
  Fe  Fe74      1.0  0.69474  0.15186  0.38379  1.0000
  H   H576      1.0  0.73043  0.32944  0.52474  1.0000
  H   H577      1.0  0.84133  0.28017  0.31438  1.0000
  C   C360      1.0  0.98888  0.17624  0.20496  1.0000
  H   H578      1.0  0.82856  0.15684  0.48956  1.0000
  H   H579      1.0  0.03463  0.13167  0.17519  1.0000
  H   H580      1.0  0.63159  0.34428  0.10892  1.0000
  H   H581      1.0  0.91908  0.28059  0.08634  1.0000
  C   C361      1.0  0.75941  0.13373  0.49820  1.0000
  S   S150      1.0  0.71142  0.17775  0.41697  1.0000
  C   C362      1.0  0.65472  0.13673  0.46054  1.0000
  H   H582      1.0  0.57292  0.26223  0.19150  1.0000
  H   H583      1.0  0.79039  0.26905  0.30916  1.0000
  S   S151      1.0  0.04574  0.29250  0.48443  1.0000
  C   C363      1.0  0.82327  0.11497  0.48294  1.0000
  H   H584      1.0  0.83796  0.14998  0.44816  1.0000
  C   C364      1.0  0.03594  0.15182  0.23193  1.0000
  Fe  Fe75      1.0  0.88853  0.29205  0.46476  1.0000
  S   S152      1.0  0.87190  0.32166  0.43820  1.0000
  S   S153      1.0  0.83293  0.27284  0.47895  1.0000
  Fe  Fe76      1.0  0.98171  0.30188  0.46585  1.0000
  Fe  Fe77      1.0  0.91616  0.33671  0.47233  1.0000
  S   S154      1.0  0.83205  0.18699  0.40468  1.0000
  H   H585      1.0  0.95253  0.27398  0.05247  1.0000
  N   N36       1.0  0.79206  0.13113  0.47277  1.0000
  H   H586      1.0  0.64302  0.14896  0.50805  1.0000
  S   S155      1.0  0.92858  0.30755  0.50110  1.0000
  Fe  Fe78      1.0  0.92931  0.31404  0.40819  1.0000
  Fe  Fe79      1.0  0.88847  0.12477  0.08642  1.0000
  H   H587      1.0  0.65271  0.15195  0.44930  1.0000
  S   S156      1.0  0.94286  0.28312  0.43233  1.0000
  Fe  Fe80      1.0  0.76790  0.18159  0.38501  1.0000
  H   H588      1.0  0.79499  0.29391  0.32853  1.0000
  H   H589      1.0  0.79055  0.16381  0.45956  1.0000
  C   C365      1.0  0.64920  0.13503  0.49388  1.0000
  C   C366      1.0  0.83242  0.20999  0.42750  1.0000
  C   C367      1.0  0.79459  0.21967  0.43751  1.0000
  C   C368      1.0  0.79510  0.23855  0.45454  1.0000
  C   C369      1.0  0.83332  0.24817  0.46061  1.0000
  C   C370      1.0  0.87118  0.23847  0.45071  1.0000
  C   C371      1.0  0.87074  0.21926  0.43450  1.0000
  H   H590      1.0  0.76485  0.21271  0.43205  1.0000
  C   C372      1.0  0.81324  0.15128  0.46736  1.0000
  H   H591      1.0  0.90083  0.24562  0.45586  1.0000
  C   C373      1.0  0.65340  0.11551  0.50907  1.0000
  H   H592      1.0  0.90008  0.21182  0.42677  1.0000
  H   H593      1.0  0.79565  0.34584  0.33973  1.0000
  H   H594      1.0  0.98164  0.13559  0.19035  1.0000
  H   H595      1.0  0.77316  0.13854  0.52144  1.0000
  H   H596      1.0  0.00895  0.14393  0.24400  1.0000
  H   H597      1.0  0.76573  0.24600  0.46217  1.0000
  S   S157      1.0  0.97215  0.33229  0.43942  1.0000
  C   C374      1.0  0.66284  0.11879  0.44216  1.0000
  C   C375      1.0  0.80993  0.27804  0.32601  1.0000
  C   C376      1.0  0.82181  0.33745  0.32843  1.0000
  H   H598      1.0  0.57578  0.32144  0.08805  1.0000
  H   H599      1.0  0.85877  0.33623  0.37154  1.0000
  N   N37       1.0  0.58788  0.32690  0.13805  1.0000
  H   H600      1.0  0.80549  0.34934  0.10315  1.0000
  H   H601      1.0  0.81342  0.35185  0.51822  1.0000
  C   C377      1.0  0.01732  0.34905  0.51299  1.0000
  H   H602      1.0  0.03309  0.33688  0.49782  1.0000
  H   H603      1.0  0.63529  0.34868  0.15127  1.0000
  C   C378      1.0  0.91922  0.27470  0.06112  1.0000
  H   H604      1.0  0.83883  0.11945  0.50567  1.0000
  H   H605      1.0  0.59125  0.13189  0.36892  1.0000
  C   C379      1.0  0.74317  0.35021  0.08325  1.0000
  H   H606      1.0  0.06198  0.13996  0.22923  1.0000
  C   C380      1.0  0.84930  0.28917  0.05328  1.0000
  S   S158      1.0  0.71819  0.35717  0.11953  1.0000
  C   C381      1.0  0.57647  0.27513  0.20798  1.0000
  C   C382      1.0  0.79168  0.30248  0.54385  1.0000
  H   H607      1.0  0.57997  0.28089  0.34466  1.0000
  H   H608      1.0  0.04687  0.16421  0.24838  1.0000
  H   H609      1.0  0.98033  0.12556  0.04530  1.0000
  H   H610      1.0  0.57542  0.17784  0.38924  1.0000
  C   C383      1.0  0.57314  0.16486  0.40703  1.0000
  H   H611      1.0  0.74251  0.11886  0.50275  1.0000
  H   H612      1.0  0.84075  0.34054  0.05123  1.0000
  C   C384      1.0  0.80694  0.34245  0.05232  1.0000
  C   C385      1.0  0.91145  0.35328  0.59087  1.0000
  H   H613      1.0  0.02395  0.15203  0.97258  1.0000
  H   H614      1.0  0.92521  0.12895  0.00408  1.0000
  Fe  Fe81      1.0  0.95829  0.35124  0.97715  1.0000
  H   H615      1.0  0.94329  0.30938  0.02980  1.0000
  H   H616      1.0  0.89150  0.31992  0.02271  1.0000
  H   H617      1.0  0.82818  0.29888  0.03778  1.0000
  H   H618      1.0  0.01472  0.13066  0.94578  1.0000
  H   H619      1.0  0.79709  0.33289  0.84106  1.0000
  H   H620      1.0  0.92619  0.34107  0.60532  1.0000
  C   C386      1.0  0.89250  0.27954  0.00731  1.0000
  H   H621      1.0  0.05478  0.12816  0.97552  1.0000
  H   H622      1.0  0.77578  0.29519  0.56501  1.0000
  H   H623      1.0  0.00216  0.14946  0.03019  1.0000
  H   H624      1.0  0.87977  0.26341  0.00728  1.0000
  Fe  Fe82      1.0  0.86402  0.34775  0.97334  1.0000
  S   S159      1.0  0.80645  0.33058  0.98882  1.0000
  H   H625      1.0  0.71373  0.35737  0.83419  1.0000
  H   H626      1.0  0.94801  0.15213  0.98765  1.0000
  S   S160      1.0  0.91709  0.33115  0.94746  1.0000
  C   C387      1.0  0.79084  0.34574  0.77929  1.0000
  H   H627      1.0  0.79648  0.32587  0.59776  1.0000
  S   S161      1.0  0.01534  0.33673  0.00023  1.0000
  C   C388      1.0  0.78287  0.33918  0.02489  1.0000
  C   C389      1.0  0.05586  0.35496  0.00154  1.0000
  C   C390      1.0  0.72853  0.34975  0.81272  1.0000
  C   C391      1.0  0.91478  0.35251  0.55723  1.0000
  C   C392      1.0  0.02255  0.13466  0.97102  1.0000
  H   H628      1.0  0.81428  0.34916  0.57786  1.0000
  S   S162      1.0  0.92262  0.35416  0.86017  1.0000
  C   C393      1.0  0.00271  0.13212  0.02718  1.0000
  C   C394      1.0  0.94910  0.13471  0.98660  1.0000
  C   C395      1.0  0.79752  0.35010  0.83665  1.0000
  N   N38       1.0  0.99145  0.12614  0.99413  1.0000
  H   H629      1.0  0.79086  0.32838  0.78191  1.0000
  N   N39       1.0  0.89281  0.28823  0.04019  1.0000
  C   C396      1.0  0.84499  0.11471  0.01155  1.0000
  H   H630      1.0  0.81183  0.13062  0.97326  1.0000
  H   H631      1.0  0.87245  0.28940  0.99107  1.0000
  C   C397      1.0  0.81287  0.33180  0.57580  1.0000
  H   H632      1.0  0.84582  0.32551  0.57630  1.0000
  H   H633      1.0  0.72037  0.33928  0.00544  1.0000
  C   C398      1.0  0.83063  0.11696  0.97994  1.0000
  C   C399      1.0  0.91014  0.30953  0.03900  1.0000
  H   H634      1.0  0.83740  0.12666  0.02919  1.0000
  H   H635      1.0  0.93892  0.13000  0.96217  1.0000
  H   H636      1.0  0.72644  0.33248  0.81603  1.0000
  H   H637      1.0  0.03487  0.12629  0.03344  1.0000
  S   S163      1.0  0.65044  0.11427  0.55095  1.0000
  H   H638      1.0  0.82404  0.35042  0.77486  1.0000
  C   C400      1.0  0.73906  0.34185  0.02659  1.0000
  H   H639      1.0  0.72965  0.32732  0.56792  1.0000
  H   H640      1.0  0.92478  0.27879  0.99654  1.0000
  H   H641      1.0  0.77258  0.34987  0.75731  1.0000
  H   H642      1.0  0.83112  0.35441  0.83360  1.0000
  H   H643      1.0  0.06819  0.33264  0.90909  1.0000
  N   N40       1.0  0.77264  0.35618  0.80809  1.0000
  H   H644      1.0  0.70905  0.35416  0.79146  1.0000
  H   H645      1.0  0.78535  0.35800  0.85880  1.0000
  H   H646      1.0  0.05723  0.35470  0.93449  1.0000
  H   H647      1.0  0.05077  0.35472  0.86158  1.0000
  H   H648      1.0  0.74628  0.35114  0.54881  1.0000
  C   C401      1.0  0.74746  0.33372  0.54692  1.0000
  Fe  Fe83      1.0  0.91485  0.35858  0.91350  1.0000
  H   H649      1.0  0.93215  0.33976  0.54619  1.0000
  N   N41       1.0  0.79139  0.32559  0.54610  1.0000
  H   H650      1.0  0.82004  0.57247  0.36572  1.0000
  H   H651      1.0  0.73735  0.41504  0.05765  1.0000
  H   H652      1.0  0.76051  0.39078  0.07121  1.0000
  S   S164      1.0  0.89984  0.36764  0.49599  1.0000
  H   H653      1.0  0.83793  0.38426  0.06460  1.0000
  H   H654      1.0  0.62964  0.58973  0.06873  1.0000
  C   C402      1.0  0.87996  0.60096  0.52994  1.0000
  C   C403      1.0  0.79975  0.58118  0.34826  1.0000
  C   C404      1.0  0.82931  0.58468  0.06053  1.0000
  H   H655      1.0  0.83320  0.57147  0.07679  1.0000
  N   N42       1.0  0.03416  0.37003  0.50619  1.0000
  H   H656      1.0  0.74368  0.59866  0.39020  1.0000
  N   N43       1.0  0.79513  0.60355  0.35691  1.0000
  H   H657      1.0  0.69848  0.55575  0.07322  1.0000
  H   H658      1.0  0.84763  0.40824  0.08536  1.0000
  C   C405      1.0  0.76642  0.40774  0.06786  1.0000
  H   H659      1.0  0.85835  0.60517  0.37458  1.0000
  H   H660      1.0  0.76869  0.57343  0.34799  1.0000
  H   H661      1.0  0.81442  0.57925  0.32391  1.0000
  C   C406      1.0  0.64299  0.58270  0.04625  1.0000
  H   H662      1.0  0.99167  0.37621  0.46721  1.0000
  H   H663      1.0  0.73565  0.60823  0.33334  1.0000
  C   C407      1.0  0.89592  0.36822  0.53837  1.0000
  H   H664      1.0  0.84405  0.59083  0.48931  1.0000
  H   H665      1.0  0.02510  0.40157  0.52340  1.0000
  C   C408      1.0  0.86607  0.60213  0.49795  1.0000
  H   H666      1.0  0.03849  0.39149  0.46618  1.0000
  H   H667      1.0  0.77090  0.41440  0.09224  1.0000
  H   H668      1.0  0.74230  0.57305  0.07297  1.0000
  H   H669      1.0  0.69576  0.57955  0.09627  1.0000
  C   C409      1.0  0.77569  0.60539  0.38933  1.0000
  C   C410      1.0  0.01301  0.38554  0.52758  1.0000
  C   C411      1.0  0.02610  0.37576  0.47225  1.0000
  H   H670      1.0  0.82618  0.60742  0.09857  1.0000
  H   H671      1.0  0.81295  0.44184  0.06618  1.0000
  C   C412      1.0  0.84135  0.40146  0.06133  1.0000
  C   C413      1.0  0.70725  0.57255  0.07317  1.0000
  H   H672      1.0  0.79504  0.59701  0.40775  1.0000
  C   C414      1.0  0.82501  0.60501  0.07288  1.0000
  H   H673      1.0  0.97838  0.38628  0.52348  1.0000
  H   H674      1.0  0.85918  0.39704  0.53907  1.0000
  H   H675      1.0  0.03519  0.60556  0.52849  1.0000
  H   H676      1.0  0.04127  0.36424  0.45544  1.0000
  C   C415      1.0  0.70180  0.60606  0.04624  1.0000
  H   H677      1.0  0.73666  0.60745  0.04568  1.0000
  H   H678      1.0  0.86988  0.40391  0.04594  1.0000
  H   H679      1.0  0.59213  0.36008  0.12930  1.0000
  N   N44       1.0  0.80343  0.41117  0.04669  1.0000
  H   H680      1.0  0.63246  0.56617  0.04527  1.0000
  Fe  Fe84      1.0  0.97030  0.56912  0.66211  1.0000
  S   S165      1.0  0.91890  0.59354  0.66570  1.0000
  Fe  Fe85      1.0  0.91921  0.54161  0.61882  1.0000
  S   S166      1.0  0.86424  0.56434  0.61766  1.0000
  S   S167      1.0  0.92087  0.51014  0.59494  1.0000
  Fe  Fe86      1.0  0.91344  0.58891  0.61255  1.0000
  C   C416      1.0  0.03036  0.60046  0.55394  1.0000
  Fe  Fe87      1.0  0.87543  0.56657  0.67084  1.0000
  S   S168      1.0  0.96754  0.56597  0.60867  1.0000
  S   S169      1.0  0.92759  0.54238  0.67232  1.0000
  Fe  Fe88      1.0  0.83843  0.39232  0.67151  1.0000
  S   S170      1.0  0.77253  0.39881  0.65460  1.0000
  Fe  Fe89      1.0  0.78564  0.43178  0.66964  1.0000
  S   S171      1.0  0.76332  0.46078  0.64361  1.0000
  H   H681      1.0  0.86862  0.58879  0.54589  1.0000
  H   H682      1.0  0.80636  0.38449  0.79945  1.0000
  S   S172      1.0  0.85324  0.42579  0.68280  1.0000
  H   H683      1.0  0.99577  0.60035  0.55863  1.0000
  C   C417      1.0  0.86953  0.38528  0.58722  1.0000
  H   H684      1.0  0.88696  0.49997  0.67473  1.0000
  H   H685      1.0  0.76842  0.40867  0.00289  1.0000
  H   H686      1.0  0.80711  0.59901  0.81306  1.0000
  H   H687      1.0  0.90011  0.47905  0.70233  1.0000
  H   H688      1.0  0.59033  0.47568  0.69068  1.0000
  H   H689      1.0  0.85193  0.39793  0.59873  1.0000
  C   C418      1.0  0.87508  0.49601  0.60301  1.0000
  C   C419      1.0  0.83682  0.50654  0.60928  1.0000
  C   C420      1.0  0.80133  0.49530  0.61887  1.0000
  C   C421      1.0  0.80443  0.47359  0.62352  1.0000
  C   C422      1.0  0.84203  0.46288  0.61560  1.0000
  C   C423      1.0  0.87728  0.47409  0.60510  1.0000
  H   H690      1.0  0.83454  0.52335  0.60687  1.0000
  H   H691      1.0  0.77206  0.50360  0.62433  1.0000
  H   H692      1.0  0.84433  0.44604  0.61837  1.0000
  H   H693      1.0  0.90671  0.46586  0.59990  1.0000
  H   H694      1.0  0.78297  0.44164  0.02968  1.0000
  H   H695      1.0  0.93837  0.47522  0.83215  1.0000
  C   C424      1.0  0.87350  0.48763  0.69065  1.0000
  S   S173      1.0  0.03087  0.57752  0.68520  1.0000
  H   H696      1.0  0.89203  0.50174  0.74883  1.0000
  H   H697      1.0  0.78990  0.49858  0.68335  1.0000
  H   H698      1.0  0.87924  0.52384  0.72360  1.0000
  S   S174      1.0  0.76095  0.42763  0.71999  1.0000
  S   S175      1.0  0.82085  0.56432  0.70582  1.0000
  H   H699      1.0  0.76079  0.38761  0.82498  1.0000
  H   H700      1.0  0.69438  0.59113  0.83696  1.0000
  C   C425      1.0  0.57614  0.38485  0.67411  1.0000
  C   C426      1.0  0.06589  0.36811  0.87364  1.0000
  H   H701      1.0  0.82396  0.59610  0.98071  1.0000
  C   C427      1.0  0.60688  0.58713  0.94614  1.0000
  H   H702      1.0  0.61397  0.39783  0.63577  1.0000
  C   C428      1.0  0.86572  0.51027  0.73672  1.0000
  H   H703      1.0  0.04004  0.53295  0.67242  1.0000
  H   H704      1.0  0.78912  0.51745  0.71512  1.0000
  C   C429      1.0  0.65225  0.38817  0.67594  1.0000
  Fe  Fe90      1.0  0.75382  0.39409  0.70644  1.0000
  H   H705      1.0  0.84803  0.46955  0.74552  1.0000
  H   H706      1.0  0.82800  0.45712  0.84844  1.0000
  H   H707      1.0  0.90078  0.56970  0.73694  1.0000
  S   S176      1.0  0.85196  0.43083  0.77901  1.0000
  Fe  Fe91      1.0  0.82507  0.55073  0.88973  1.0000
  S   S177      1.0  0.76240  0.53706  0.87962  1.0000
  C   C430      1.0  0.88845  0.36949  0.60595  1.0000
  Fe  Fe92      1.0  0.81051  0.55007  0.96229  1.0000
  S   S178      1.0  0.74708  0.53583  0.95823  1.0000
  S   S179      1.0  0.83183  0.55555  0.01283  1.0000
  Fe  Fe93      1.0  0.77736  0.51537  0.92066  1.0000
  S   S180      1.0  0.76436  0.48140  0.91317  1.0000
  Fe  Fe94      1.0  0.73770  0.55885  0.91789  1.0000
  S   S181      1.0  0.68035  0.57981  0.91223  1.0000
  S   S182      1.0  0.84221  0.52738  0.92818  1.0000
  S   S183      1.0  0.79929  0.57466  0.92450  1.0000
  Fe  Fe95      1.0  0.90415  0.39006  0.96694  1.0000
  S   S184      1.0  0.85760  0.37340  0.93669  1.0000
  S   S185      1.0  0.90028  0.42384  0.98161  1.0000
  H   H708      1.0  0.62321  0.46705  0.72332  1.0000
  H   H709      1.0  0.86040  0.48638  0.89767  1.0000
  H   H710      1.0  0.60616  0.60236  0.93455  1.0000
  H   H711      1.0  0.62660  0.45395  0.68521  1.0000
  S   S186      1.0  0.87372  0.55821  0.85167  1.0000
  H   H712      1.0  0.90597  0.45257  0.83346  1.0000
  H   H713      1.0  0.60879  0.43303  0.75123  1.0000
  S   S187      1.0  0.96115  0.37726  0.94073  1.0000
  H   H714      1.0  0.61026  0.53282  0.98861  1.0000
  C   C431      1.0  0.57653  0.37570  0.70478  1.0000
  C   C432      1.0  0.83573  0.56262  0.74622  1.0000
  C   C433      1.0  0.72923  0.58895  0.83510  1.0000
  N   N45       1.0  0.84331  0.49653  0.71453  1.0000
  S   S188      1.0  0.69982  0.37632  0.72808  1.0000
  H   H715      1.0  0.05602  0.59069  0.61348  1.0000
  C   C434      1.0  0.80046  0.46515  0.93334  1.0000
  C   C435      1.0  0.82549  0.47321  0.95753  1.0000
  C   C436      1.0  0.85659  0.46048  0.97181  1.0000
  C   C437      1.0  0.86251  0.43965  0.96212  1.0000
  C   C438      1.0  0.83741  0.43162  0.93793  1.0000
  C   C439      1.0  0.80624  0.44433  0.92365  1.0000
  H   H716      1.0  0.82092  0.48924  0.96530  1.0000
  H   H717      1.0  0.87598  0.46678  0.99051  1.0000
  H   H718      1.0  0.84218  0.41575  0.92990  1.0000
  H   H719      1.0  0.78712  0.43813  0.90472  1.0000
  C   C440      1.0  0.81010  0.50883  0.69786  1.0000
  C   C441      1.0  0.07054  0.54008  0.67008  1.0000
  C   C442      1.0  0.63966  0.55291  0.95339  1.0000
  H   H720      1.0  0.86964  0.50722  0.81451  1.0000
  H   H721      1.0  0.66297  0.54123  0.94646  1.0000
  C   C443      1.0  0.87475  0.41023  0.80151  1.0000
  C   C444      1.0  0.87365  0.41091  0.83521  1.0000
  C   C445      1.0  0.88952  0.39398  0.85334  1.0000
  C   C446      1.0  0.90612  0.37620  0.83786  1.0000
  C   C447      1.0  0.04438  0.60713  0.60991  1.0000
  C   C448      1.0  0.89217  0.39262  0.78604  1.0000
  H   H722      1.0  0.85954  0.42419  0.84748  1.0000
  H   H723      1.0  0.88848  0.39462  0.87930  1.0000
  C   C449      1.0  0.90765  0.37559  0.80419  1.0000
  C   C450      1.0  0.61412  0.39083  0.65956  1.0000
  H   H724      1.0  0.89945  0.47131  0.80173  1.0000
  C   C451      1.0  0.87740  0.56576  0.75506  1.0000
  C   C452      1.0  0.88879  0.56415  0.78751  1.0000
  C   C453      1.0  0.85870  0.55922  0.81115  1.0000
  C   C454      1.0  0.81724  0.55558  0.80218  1.0000
  C   C455      1.0  0.80567  0.55747  0.76980  1.0000
  H   H725      1.0  0.74072  0.57444  0.01374  1.0000
  H   H726      1.0  0.68128  0.39311  0.66472  1.0000
  H   H727      1.0  0.79393  0.55164  0.82015  1.0000
  H   H728      1.0  0.77347  0.55483  0.76293  1.0000
  C   C456      1.0  0.65264  0.37912  0.70669  1.0000
  H   H729      1.0  0.01455  0.38195  0.99627  1.0000
  C   C457      1.0  0.79635  0.40154  0.01498  1.0000
  H   H730      1.0  0.73687  0.58158  0.81147  1.0000
  S   S189      1.0  0.90528  0.36563  0.00604  1.0000
  C   C458      1.0  0.60928  0.54801  0.97684  1.0000
  H   H731      1.0  0.84409  0.51679  0.75556  1.0000
  C   C459      1.0  0.60433  0.46159  0.70274  1.0000
  H   H732      1.0  0.80785  0.59348  0.85539  1.0000
  N   N46       1.0  0.87440  0.48123  0.84769  1.0000
  H   H733      1.0  0.73822  0.57757  0.85429  1.0000
  C   C460      1.0  0.61477  0.37272  0.72096  1.0000
  C   C461      1.0  0.90599  0.46965  0.82787  1.0000
  H   H734      1.0  0.79121  0.38439  0.01725  1.0000
  H   H735      1.0  0.01758  0.38149  0.55342  1.0000
  C   C462      1.0  0.77368  0.37916  0.80357  1.0000
  C   C463      1.0  0.82385  0.47927  0.73289  1.0000
  C   C464      1.0  0.83181  0.47368  0.84067  1.0000
  C   C465      1.0  0.70570  0.57422  0.01512  1.0000
  H   H736      1.0  0.82377  0.52072  0.68120  1.0000
  H   H737      1.0  0.04230  0.58399  0.55621  1.0000
  H   H738      1.0  0.85800  0.47626  0.67488  1.0000
  C   C466      1.0  0.82836  0.58134  0.02728  1.0000
  S   S190      1.0  0.81858  0.38471  0.72222  1.0000
  C   C467      1.0  0.80966  0.43393  0.04260  1.0000
  H   H739      1.0  0.80062  0.48527  0.75103  1.0000
  H   H740      1.0  0.80683  0.46862  0.71662  1.0000
  H   H741      1.0  0.88202  0.46087  0.88888  1.0000
  H   H742      1.0  0.69631  0.55756  0.01333  1.0000
  H   H743      1.0  0.90754  0.51035  0.84578  1.0000
  H   H744      1.0  0.80701  0.48307  0.85354  1.0000
  H   H745      1.0  0.82498  0.47448  0.81452  1.0000
  H   H746      1.0  0.69346  0.58256  0.99344  1.0000
  H   H747      1.0  0.89385  0.39210  0.76004  1.0000
  C   C468      1.0  0.87618  0.50388  0.84025  1.0000
  Fe  Fe96      1.0  0.82738  0.41871  0.73206  1.0000
  H   H748      1.0  0.92095  0.56698  0.79431  1.0000
  C   C469      1.0  0.87365  0.38473  0.55347  1.0000
  H   H749      1.0  0.85252  0.51299  0.85479  1.0000
  H   H750      1.0  0.82388  0.40360  0.99854  1.0000
  H   H751      1.0  0.75495  0.38432  0.78236  1.0000
  N   N47       1.0  0.75108  0.60897  0.83895  1.0000
  C   C470      1.0  0.63925  0.57265  0.93860  1.0000
  C   C471      1.0  0.88354  0.47777  0.88212  1.0000
  H   H752      1.0  0.07255  0.40703  0.99007  1.0000
  C   C472      1.0  0.04684  0.37634  0.99728  1.0000
  H   H753      1.0  0.91538  0.48327  0.88843  1.0000
  S   S191      1.0  0.88322  0.36907  0.64808  1.0000
  H   H754      1.0  0.83880  0.43706  0.02846  1.0000
  C   C473      1.0  0.59139  0.42857  0.72935  1.0000
  C   C474      1.0  0.82396  0.59850  0.00636  1.0000
  H   H755      1.0  0.92065  0.36188  0.79212  1.0000
  C   C475      1.0  0.57579  0.58205  0.96909  1.0000
  C   C476      1.0  0.79715  0.60517  0.83705  1.0000
  H   H756      1.0  0.62853  0.59113  0.02548  1.0000
  H   H757      1.0  0.61434  0.42055  0.71290  1.0000
  H   H758      1.0  0.61492  0.36558  0.74465  1.0000
  H   H759      1.0  0.04060  0.37677  0.88723  1.0000
  H   H760      1.0  0.74949  0.60750  0.89065  1.0000
  C   C477      1.0  0.57736  0.56256  0.98474  1.0000
  H   H761      1.0  0.01022  0.60758  0.61643  1.0000
  N   N48       1.0  0.68942  0.58388  0.04518  1.0000
  S   S192      1.0  0.79597  0.69730  0.33140  1.0000
  H   H762      1.0  0.84900  0.63202  0.28196  1.0000
  Fe  Fe97      1.0  0.76233  0.63649  0.18299  1.0000
  S   S193      1.0  0.69603  0.64914  0.18495  1.0000
  H   H763      1.0  0.61933  0.69344  0.17516  1.0000
  Fe  Fe98      1.0  0.77320  0.64717  0.11227  1.0000
  S   S194      1.0  0.70848  0.66156  0.10843  1.0000
  H   H764      1.0  0.61190  0.71912  0.19152  1.0000
  Fe  Fe99      1.0  0.72173  0.67580  0.15620  1.0000
  S   S195      1.0  0.70566  0.70854  0.17176  1.0000
  Fe  Fe100     1.0  0.68876  0.63362  0.13728  1.0000
  C   C478      1.0  0.76808  0.61449  0.33314  1.0000
  S   S196      1.0  0.78868  0.66435  0.15732  1.0000
  H   H765      1.0  0.80474  0.84442  0.05322  1.0000
  N   N49       1.0  0.06077  0.84331  0.07591  1.0000
  S   S197      1.0  0.85518  0.83144  0.11086  1.0000
  S   S198      1.0  0.62892  0.61713  0.12674  1.0000
  Fe  Fe101     1.0  0.78483  0.81972  0.18628  1.0000
  S   S199      1.0  0.84718  0.80357  0.17771  1.0000
  S   S200      1.0  0.75008  0.80778  0.23001  1.0000
  Fe  Fe102     1.0  0.87004  0.83516  0.16313  1.0000
  C   C479      1.0  0.85830  0.69149  0.10095  1.0000
  Fe  Fe103     1.0  0.82582  0.80122  0.12675  1.0000
  S   S201      1.0  0.83113  0.76989  0.10233  1.0000
  H   H766      1.0  0.82848  0.69145  0.08713  1.0000
  S   S202      1.0  0.76163  0.81543  0.13609  1.0000
  C   C480      1.0  0.97422  0.83343  0.17618  1.0000
  C   C481      1.0  0.97187  0.81390  0.16134  1.0000
  C   C482      1.0  0.01324  0.84069  0.18604  1.0000
  H   H767      1.0  0.94179  0.80821  0.15370  1.0000
  H   H768      1.0  0.93403  0.85868  0.28762  1.0000
  S   S203      1.0  0.79592  0.62550  0.22758  1.0000
  C   C483      1.0  0.00866  0.80175  0.15613  1.0000
  H   H769      1.0  0.80369  0.70952  0.24367  1.0000
  H   H770      1.0  0.77381  0.72531  0.21616  1.0000
  S   S204      1.0  0.80947  0.85173  0.17627  1.0000
  C   C484      1.0  0.73774  0.72605  0.15074  1.0000
  C   C485      1.0  0.75964  0.71970  0.12292  1.0000
  C   C486      1.0  0.78712  0.73353  0.10736  1.0000
  C   C487      1.0  0.79410  0.75330  0.12032  1.0000
  C   C488      1.0  0.77195  0.75958  0.14805  1.0000
  C   C489      1.0  0.74304  0.74619  0.16277  1.0000
  H   H771      1.0  0.75493  0.70428  0.11316  1.0000
  H   H772      1.0  0.80270  0.72898  0.08522  1.0000
  H   H773      1.0  0.77719  0.77472  0.15840  1.0000
  H   H774      1.0  0.72560  0.75127  0.18397  1.0000
  H   H775      1.0  0.78081  0.61259  0.30818  1.0000
  C   C490      1.0  0.72814  0.83284  0.31768  1.0000
  C   C491      1.0  0.73239  0.81871  0.29209  1.0000
  C   C492      1.0  0.74131  0.82599  0.26094  1.0000
  S   S205      1.0  0.85535  0.62275  0.44023  1.0000
  N   N50       1.0  0.59875  0.69393  0.22469  1.0000
  C   C493      1.0  0.04786  0.80923  0.16530  1.0000
  H   H776      1.0  0.72929  0.80209  0.29657  1.0000
  H   H777      1.0  0.87704  0.80752  0.46579  1.0000
  C   C494      1.0  0.05003  0.82860  0.18062  1.0000
  C   C495      1.0  0.79656  0.67712  0.30301  1.0000
  C   C496      1.0  0.82580  0.66045  0.30465  1.0000
  C   C497      1.0  0.82607  0.64477  0.28107  1.0000
  C   C498      1.0  0.79699  0.64570  0.25601  1.0000
  C   C499      1.0  0.76828  0.66257  0.25423  1.0000
  C   C500      1.0  0.76781  0.67813  0.27782  1.0000
  H   H778      1.0  0.84866  0.65987  0.32367  1.0000
  H   H779      1.0  0.87733  0.83894  0.23735  1.0000
  H   H780      1.0  0.74612  0.66357  0.23485  1.0000
  H   H781      1.0  0.74511  0.69098  0.27648  1.0000
  N   N51       1.0  0.80660  0.74268  0.25189  1.0000
  H   H782      1.0  0.64252  0.68802  0.26303  1.0000
  H   H783      1.0  0.76940  0.75801  0.28882  1.0000
  H   H784      1.0  0.81428  0.77605  0.24829  1.0000
  H   H785      1.0  0.83009  0.72384  0.21246  1.0000
  N   N52       1.0  0.89464  0.69660  0.07997  1.0000
  Fe  Fe104     1.0  0.75163  0.84250  0.45573  1.0000
  C   C501      1.0  0.05115  0.67935  0.37172  1.0000
  H   H786      1.0  0.83012  0.83985  0.26134  1.0000
  H   H787      1.0  0.77288  0.62207  0.39698  1.0000
  S   S206      1.0  0.81329  0.64753  0.06733  1.0000
  C   C502      1.0  0.83710  0.61313  0.35697  1.0000
  H   H788      1.0  0.88376  0.72992  0.08470  1.0000
  H   H789      1.0  0.76548  0.63162  0.33803  1.0000
  H   H790      1.0  0.86378  0.66463  0.53826  1.0000
  C   C503      1.0  0.81272  0.77283  0.43036  1.0000
  C   C504      1.0  0.82047  0.62214  0.05200  1.0000
  H   H791      1.0  0.81595  0.64471  0.50467  1.0000
  H   H792      1.0  0.70605  0.74153  0.38944  1.0000
  Fe  Fe105     1.0  0.79252  0.84591  0.12484  1.0000
  Fe  Fe106     1.0  0.82658  0.68946  0.37854  1.0000
  H   H793      1.0  0.58621  0.66426  0.24748  1.0000
  H   H794      1.0  0.93906  0.68049  0.11047  1.0000
  H   H795      1.0  0.78295  0.76518  0.21754  1.0000
  H   H796      1.0  0.83900  0.76126  0.21625  1.0000
  Fe  Fe107     1.0  0.71640  0.85586  0.39133  1.0000
  C   C505      1.0  0.80345  0.72457  0.23009  1.0000
  H   H797      1.0  0.04006  0.81331  0.09280  1.0000
  H   H798      1.0  0.87332  0.73833  0.25801  1.0000
  H   H799      1.0  0.68993  0.61382  0.06863  1.0000
  H   H800      1.0  0.72154  0.82707  0.34166  1.0000
  H   H801      1.0  0.84696  0.75302  0.28946  1.0000
  C   C506      1.0  0.76814  0.74441  0.27222  1.0000
  H   H802      1.0  0.84132  0.72517  0.28752  1.0000
  H   H803      1.0  0.76382  0.73007  0.28721  1.0000
  C   C507      1.0  0.84376  0.73969  0.27260  1.0000
  H   H804      1.0  0.73951  0.74675  0.25731  1.0000
  C   C508      1.0  0.81106  0.76209  0.23267  1.0000
  H   H805      1.0  0.86210  0.67559  0.11187  1.0000
  N   N53       1.0  0.83601  0.78179  0.45739  1.0000
  H   H806      1.0  0.00687  0.78672  0.14439  1.0000
  C   C509      1.0  0.93342  0.69619  0.09925  1.0000
  H   H807      1.0  0.66194  0.84534  0.06371  1.0000
  H   H808      1.0  0.78887  0.78415  0.42064  1.0000
  H   H809      1.0  0.91548  0.72232  0.05043  1.0000
  C   C510      1.0  0.87895  0.61857  0.47780  1.0000
  H   H810      1.0  0.87923  0.83229  0.27936  1.0000
  S   S207      1.0  0.96159  0.71396  0.42602  1.0000
  H   H811      1.0  0.85266  0.61222  0.33287  1.0000
  H   H812      1.0  0.90295  0.66475  0.06391  1.0000
  C   C511      1.0  0.74444  0.84752  0.25518  1.0000
  C   C512      1.0  0.58462  0.67202  0.22347  1.0000
  H   H813      1.0  0.04215  0.72254  0.45325  1.0000
  H   H814      1.0  0.61853  0.66130  0.11412  1.0000
  H   H815      1.0  0.76060  0.64451  0.51369  1.0000
  C   C513      1.0  0.89858  0.68092  0.05399  1.0000
  C   C514      1.0  0.88818  0.71772  0.06575  1.0000
  H   H816      1.0  0.57420  0.82148  0.46672  1.0000
  S   S208      1.0  0.75260  0.61796  0.13786  1.0000
  H   H817      1.0  0.66425  0.68488  0.22322  1.0000
  S   S209      1.0  0.81111  0.84404  0.48432  1.0000
  H   H818      1.0  0.01512  0.85574  0.19773  1.0000
  C   C515      1.0  0.59134  0.65606  0.12751  1.0000
  H   H819      1.0  0.83490  0.62995  0.36392  1.0000
  H   H820      1.0  0.74400  0.71438  0.42108  1.0000
  C   C516      1.0  0.59918  0.70300  0.19187  1.0000
  H   H821      1.0  0.91932  0.64499  0.47320  1.0000
  S   S210      1.0  0.88778  0.67198  0.38645  1.0000
  Fe  Fe108     1.0  0.85366  0.65719  0.42823  1.0000
  S   S211      1.0  0.87113  0.68154  0.46406  1.0000
  H   H822      1.0  0.01016  0.64793  0.47455  1.0000
  C   C517      1.0  0.03516  0.70627  0.45791  1.0000
  H   H823      1.0  0.95872  0.67084  0.44602  1.0000
  H   H824      1.0  0.88361  0.79542  0.42696  1.0000
  Fe  Fe109     1.0  0.81173  0.69787  0.44939  1.0000
  S   S212      1.0  0.77097  0.71357  0.48673  1.0000
  H   H825      1.0  0.88343  0.77186  0.49103  1.0000
  H   H826      1.0  0.83256  0.68809  0.53181  1.0000
  Fe  Fe110     1.0  0.69228  0.81423  0.42039  1.0000
  H   H827      1.0  0.03871  0.69213  0.35591  1.0000
  H   H828      1.0  0.94182  0.64383  0.52980  1.0000
  H   H829      1.0  0.78214  0.80010  0.47341  1.0000
  S   S213      1.0  0.79103  0.67225  0.41712  1.0000
  H   H830      1.0  0.83426  0.76811  0.41023  1.0000
  H   H831      1.0  0.04005  0.66418  0.36232  1.0000
  S   S214      1.0  0.92886  0.84908  0.18240  1.0000
  H   H832      1.0  0.01231  0.82345  0.05840  1.0000
  S   S215      1.0  0.69293  0.82600  0.47091  1.0000
  C   C518      1.0  0.98776  0.67724  0.45434  1.0000
  C   C519      1.0  0.01708  0.66425  0.47021  1.0000
  C   C520      1.0  0.05589  0.67214  0.47928  1.0000
  H   H833      1.0  0.82220  0.79655  0.50291  1.0000
  S   S216      1.0  0.67341  0.78205  0.40605  1.0000
  C   C521      1.0  0.73843  0.73125  0.46578  1.0000
  C   C522      1.0  0.72247  0.74932  0.48091  1.0000
  C   C523      1.0  0.70223  0.76507  0.46269  1.0000
  C   C524      1.0  0.69661  0.76231  0.42965  1.0000
  H   H834      1.0  0.78871  0.77521  0.49334  1.0000
  C   C525      1.0  0.73194  0.72834  0.43291  1.0000
  H   H835      1.0  0.72724  0.75153  0.50639  1.0000
  H   H836      1.0  0.69092  0.77928  0.47422  1.0000
  C   C526      1.0  0.06479  0.69320  0.47338  1.0000
  H   H837      1.0  0.84804  0.75169  0.47948  1.0000
  C   C527      1.0  0.71051  0.74372  0.41497  1.0000
  H   H838      1.0  0.65380  0.71060  0.23836  1.0000
  C   C528      1.0  0.64163  0.69437  0.23805  1.0000
  H   H839      1.0  0.96160  0.69984  0.08416  1.0000
  S   S217      1.0  0.84214  0.71649  0.41009  1.0000
  H   H840      1.0  0.85406  0.70296  0.12086  1.0000
  C   C529      1.0  0.80594  0.78865  0.48288  1.0000
  C   C530      1.0  0.86002  0.80000  0.44579  1.0000
  C   C531      1.0  0.90769  0.63295  0.48904  1.0000
  H   H841      1.0  0.03631  0.68159  0.39584  1.0000
  H   H842      1.0  0.83876  0.81231  0.43538  1.0000
  C   C532      1.0  0.99677  0.69824  0.44815  1.0000
  S   S218      1.0  0.75459  0.82779  0.40689  1.0000
  H   H843      1.0  0.00201  0.83424  0.09770  1.0000
  S   S219      1.0  0.65408  0.84106  0.40080  1.0000
  C   C533      1.0  0.86531  0.76566  0.47055  1.0000
  C   C534      1.0  0.02725  0.82791  0.08134  1.0000
  H   H844      1.0  0.79560  0.75863  0.43807  1.0000
  C   C535      1.0  0.78912  0.65428  0.51451  1.0000
  C   C536      1.0  0.90630  0.61638  0.54169  1.0000
  H   H845      1.0  0.88841  0.76002  0.45194  1.0000
  Fe  Fe111     1.0  0.90022  0.69767  0.42156  1.0000
  H   H846      1.0  0.85973  0.71845  0.05039  1.0000
  C   C537      1.0  0.92098  0.63203  0.52097  1.0000
  H   H847      1.0  0.78410  0.66782  0.49784  1.0000
  C   C538      1.0  0.58788  0.63494  0.13605  1.0000
  H   H848      1.0  0.57913  0.72299  0.24664  1.0000
  H   H849      1.0  0.93144  0.70793  0.11897  1.0000
  Fe  Fe112     1.0  0.65939  0.85423  0.45035  1.0000
  H   H850      1.0  0.60418  0.66248  0.20632  1.0000
  H   H851      1.0  0.61161  0.80208  0.45269  1.0000
  C   C539      1.0  0.80221  0.85238  0.52408  1.0000
  C   C540      1.0  0.57870  0.80444  0.46175  1.0000
  H   H852      1.0  0.75638  0.68847  0.54378  1.0000
  C   C541      1.0  0.76275  0.85008  0.53880  1.0000
  C   C542      1.0  0.73274  0.85432  0.31218  1.0000
  C   C543      1.0  0.86437  0.84311  0.26156  1.0000
  H   H853      1.0  0.73754  0.84294  0.52593  1.0000
  H   H854      1.0  0.75002  0.85326  0.23103  1.0000
  H   H855      1.0  0.58498  0.80661  0.39714  1.0000
  H   H856      1.0  0.58789  0.77150  0.42209  1.0000
  H   H857      1.0  0.05458  0.85549  0.12394  1.0000
  H   H858      1.0  0.57587  0.79594  0.48511  1.0000
  C   C544      1.0  0.80329  0.64295  0.56895  1.0000
  H   H859      1.0  0.76683  0.68004  0.58424  1.0000
  H   H860      1.0  0.81073  0.64764  0.59396  1.0000
  H   H861      1.0  0.77469  0.63319  0.56995  1.0000
  H   H862      1.0  0.60994  0.82397  0.01054  1.0000
  N   N54       1.0  0.05164  0.61445  0.57647  1.0000
  H   H863      1.0  0.67331  0.83191  0.97688  1.0000
  H   H864      1.0  0.75489  0.63340  0.87427  1.0000
  C   C545      1.0  0.83610  0.67391  0.54743  1.0000
  H   H865      1.0  0.00002  0.63678  0.57848  1.0000
  H   H866      1.0  0.81070  0.84541  0.99356  1.0000
  H   H867      1.0  0.06069  0.61701  0.62762  1.0000
  C   C546      1.0  0.67479  0.84266  0.03898  1.0000
  H   H868      1.0  0.72549  0.85468  0.58201  1.0000
  H   H869      1.0  0.81712  0.63214  0.00246  1.0000
  H   H870      1.0  0.05020  0.64712  0.58890  1.0000
  H   H871      1.0  0.64586  0.85496  0.96262  1.0000
  H   H872      1.0  0.81478  0.61977  0.84111  1.0000
  C   C547      1.0  0.76152  0.67439  0.55937  1.0000
  C   C548      1.0  0.75596  0.85673  0.57057  1.0000
  C   C549      1.0  0.60594  0.84103  0.01532  1.0000
  H   H873      1.0  0.75420  0.63890  0.81512  1.0000
  H   H874      1.0  0.74615  0.61713  0.78885  1.0000
  C   C550      1.0  0.73817  0.62364  0.81306  1.0000
  H   H875      1.0  0.84384  0.67926  0.57204  1.0000
  C   C551      1.0  0.79170  0.85762  0.03999  1.0000
  H   H876      1.0  0.70356  0.62686  0.81389  1.0000
  S   S220      1.0  0.91666  0.61842  0.58284  1.0000
  C   C552      1.0  0.82048  0.61891  0.01870  1.0000
  H   H877      1.0  0.92570  0.68413  0.03762  1.0000
  H   H878      1.0  0.70495  0.62051  0.87329  1.0000
  H   H879      1.0  0.67999  0.82550  0.03577  1.0000
  C   C553      1.0  0.79488  0.85814  0.00622  1.0000
  C   C554      1.0  0.73967  0.61808  0.87060  1.0000
  H   H880      1.0  0.58401  0.84759  0.99692  1.0000
  C   C555      1.0  0.03436  0.63601  0.57275  1.0000
  H   H881      1.0  0.73179  0.66548  0.55959  1.0000
  C   C556      1.0  0.66656  0.84874  0.98199  1.0000
  H   H882      1.0  0.69692  0.85706  0.97989  1.0000
  N   N55       1.0  0.64679  0.85168  0.01410  1.0000
  H   H883      1.0  0.82979  0.63268  0.56046  1.0000
  H   H884      1.0  0.86961  0.68071  0.03916  1.0000
  H   H885      1.0  0.03850  0.64186  0.54762  1.0000
  H   H886      1.0  0.68920  0.61510  0.02538  1.0000
  N   N56       1.0  0.79750  0.66137  0.54757  1.0000
  H   H887      1.0  0.59028  0.84289  0.03927  1.0000
  H   H888      1.0  0.70620  0.84990  0.03790  1.0000
  H   H889      1.0  0.02890  0.85880  0.03680  1.0000
  H   H890      1.0  0.68400  0.93741  0.52792  1.0000
  H   H891      1.0  0.71193  0.93317  0.49059  1.0000
  C   C557      1.0  0.85223  0.87897  0.24469  1.0000
  S   S221      1.0  0.60324  0.86612  0.47853  1.0000
  H   H892      1.0  0.74271  0.87833  0.27637  1.0000
  H   H893      1.0  0.77528  0.94955  0.51356  1.0000
  H   H894      1.0  0.58906  0.87484  0.41115  1.0000
  C   C558      1.0  0.70541  0.92626  0.51478  1.0000
  H   H895      1.0  0.01786  0.86981  0.07583  1.0000
  S   S222      1.0  0.75949  0.87201  0.09786  1.0000
  S   S223      1.0  0.88965  0.09457  0.05888  1.0000
  H   H896      1.0  0.75629  0.89219  0.51057  1.0000
  H   H897      1.0  0.86601  0.87590  0.22031  1.0000
  H   H898      1.0  0.68788  0.91153  0.51107  1.0000
  H   H899      1.0  0.85854  0.88690  0.30783  1.0000
  C   C559      1.0  0.66158  0.09752  0.49084  1.0000
  H   H900      1.0  0.81773  0.87641  0.24335  1.0000
  H   H901      1.0  0.81927  0.86767  0.30219  1.0000
  H   H902      1.0  0.66489  0.08239  0.50258  1.0000
  C   C560      1.0  0.76995  0.87371  0.05634  1.0000
  H   H903      1.0  0.85670  0.89584  0.24996  1.0000
  C   C561      1.0  0.04296  0.86239  0.06047  1.0000
  C   C562      1.0  0.83469  0.86164  0.54110  1.0000
  H   H904      1.0  0.81231  0.00097  0.50436  1.0000
  H   H905      1.0  0.67191  0.08522  0.44309  1.0000
  H   H906      1.0  0.93271  0.86521  0.24563  1.0000
  H   H907      1.0  0.73617  0.90316  0.05152  1.0000
  S   S224      1.0  0.73201  0.87192  0.34449  1.0000
  H   H908      1.0  0.06773  0.87425  0.05621  1.0000
  C   C563      1.0  0.85378  0.87023  0.30134  1.0000
  S   S225      1.0  0.71825  0.87190  0.43932  1.0000
  H   H909      1.0  0.80813  0.09960  0.48730  1.0000
  H   H910      1.0  0.80196  0.90386  0.52719  1.0000
  C   C564      1.0  0.76695  0.94211  0.53704  1.0000
  H   H911      1.0  0.78052  0.91374  0.49013  1.0000
  C   C565      1.0  0.84527  0.98379  0.54156  1.0000
  H   H912      1.0  0.87238  0.98013  0.52642  1.0000
  C   C566      1.0  0.66561  0.09914  0.45726  1.0000
  N   N57       1.0  0.74475  0.92221  0.53264  1.0000
  C   C567      1.0  0.91791  0.86881  0.26948  1.0000
  N   N58       1.0  0.87205  0.86528  0.26928  1.0000
  C   C568      1.0  0.74006  0.86168  0.28079  1.0000
  S   S226      1.0  0.73433  0.01534  0.53290  1.0000
  H   H913      1.0  0.92486  0.88541  0.27499  1.0000
  H   H914      1.0  0.86529  0.86345  0.52979  1.0000
  C   C569      1.0  0.81129  0.99549  0.52906  1.0000
  C   C570      1.0  0.77209  0.90738  0.51431  1.0000
  H   H915      1.0  0.86801  0.86022  0.32052  1.0000
  Fe  Fe113     1.0  0.71295  0.04055  0.56720  1.0000
  S   S227      1.0  0.74241  0.07222  0.56412  1.0000
  H   H916      1.0  0.79425  0.90146  0.77047  1.0000
  Fe  Fe114     1.0  0.65659  0.05220  0.62363  1.0000
  S   S228      1.0  0.68099  0.08474  0.62566  1.0000
  H   H917      1.0  0.90541  0.99531  0.67869  1.0000
  Fe  Fe115     1.0  0.67645  0.08442  0.57212  1.0000
  Fe  Fe116     1.0  0.80851  0.93834  0.68912  1.0000
  Fe  Fe117     1.0  0.74439  0.06975  0.61784  1.0000
  S   S229      1.0  0.64623  0.05299  0.57034  1.0000
  S   S230      1.0  0.72064  0.03699  0.62048  1.0000
  Fe  Fe118     1.0  0.89222  0.91476  0.68487  1.0000
  S   S231      1.0  0.82720  0.90489  0.69880  1.0000
  H   H918      1.0  0.84054  0.98883  0.71144  1.0000
  Fe  Fe119     1.0  0.86213  0.94064  0.62842  1.0000
  S   S232      1.0  0.79420  0.93347  0.63718  1.0000
  S   S233      1.0  0.88552  0.96118  0.58849  1.0000
  H   H919      1.0  0.64473  0.03538  0.73765  1.0000
  Fe  Fe120     1.0  0.81836  0.90065  0.64561  1.0000
  N   N59       1.0  0.84881  0.01439  0.67806  1.0000
  S   S234      1.0  0.87435  0.94864  0.67954  1.0000
  S   S235      1.0  0.88555  0.90741  0.63240  1.0000
  H   H920      1.0  0.97863  0.00456  0.93288  1.0000
  H   H921      1.0  0.02606  0.88141  0.62245  1.0000
  C   C571      1.0  0.02792  0.89040  0.64435  1.0000
  H   H922      1.0  0.02129  0.03077  0.84346  1.0000
  C   C572      1.0  0.99176  0.89363  0.66353  1.0000
  C   C573      1.0  0.99404  0.90491  0.69215  1.0000
  S   S236      1.0  0.77774  0.87521  0.62672  1.0000
  H   H923      1.0  0.96234  0.88690  0.65659  1.0000
  H   H924      1.0  0.88040  0.04225  0.69263  1.0000
  H   H925      1.0  0.87576  0.99373  0.64226  1.0000
  S   S237      1.0  0.79941  0.07901  0.64735  1.0000
  H   H926      1.0  0.83615  0.03534  0.71736  1.0000
  H   H927      1.0  0.84190  0.03898  0.64273  1.0000
  H   H928      1.0  0.03449  0.92182  0.72360  1.0000
  H   H929      1.0  0.01189  0.98699  0.62790  1.0000
  H   H930      1.0  0.57929  0.02651  0.60290  1.0000
  C   C574      1.0  0.63987  0.87432  0.02008  1.0000
  C   C575      1.0  0.84384  0.97658  0.57340  1.0000
  C   C576      1.0  0.80862  0.98126  0.59282  1.0000
  H   H931      1.0  0.74763  0.99666  0.59545  1.0000
  H   H932      1.0  0.99092  0.94997  0.56157  1.0000
  H   H933      1.0  0.98506  0.10311  0.90973  1.0000
  H   H934      1.0  0.80739  0.97580  0.61742  1.0000
  H   H935      1.0  0.59887  0.10203  0.60269  1.0000
  H   H936      1.0  0.78845  0.93080  0.82735  1.0000
  H   H937      1.0  0.72863  0.06673  0.97336  1.0000
  C   C577      1.0  0.82266  0.99806  0.69313  1.0000
  S   S238      1.0  0.94864  0.90929  0.71590  1.0000
  C   C578      1.0  0.86323  0.02875  0.70321  1.0000
  H   H938      1.0  0.58008  0.08652  0.54957  1.0000
  S   S239      1.0  0.82153  0.10465  0.91783  1.0000
  H   H939      1.0  0.74528  0.03173  0.92569  1.0000
  S   S240      1.0  0.77565  0.87381  0.94650  1.0000
  H   H940      1.0  0.00863  0.94148  0.64894  1.0000
  C   C579      1.0  0.82347  0.02627  0.65433  1.0000
  C   C580      1.0  0.03259  0.91312  0.70142  1.0000
  C   C581      1.0  0.86920  0.09707  0.02018  1.0000
  S   S241      1.0  0.61065  0.04313  0.66253  1.0000
  H   H941      1.0  0.72264  0.06546  0.67720  1.0000
  N   N60       1.0  0.02404  0.95740  0.60468  1.0000
  C   C582      1.0  0.00295  0.96377  0.57455  1.0000
  H   H942      1.0  0.96542  0.95584  0.63113  1.0000
  H   H943      1.0  0.88446  0.02062  0.72058  1.0000
  C   C583      1.0  0.03863  0.97622  0.62145  1.0000
  C   C584      1.0  0.06861  0.91035  0.68177  1.0000
  C   C585      1.0  0.78557  0.07497  0.68782  1.0000
  H   H944      1.0  0.90586  0.01658  0.65005  1.0000
  C   C586      1.0  0.75271  0.89061  0.03894  1.0000
  H   H945      1.0  0.81107  0.98689  0.67499  1.0000
  H   H946      1.0  0.74374  0.01030  0.95363  1.0000
  H   H947      1.0  0.83463  0.04065  0.98100  1.0000
  C   C587      1.0  0.74566  0.06749  0.69562  1.0000
  C   C588      1.0  0.88563  0.00455  0.66157  1.0000
  H   H948      1.0  0.02485  0.97215  0.55800  1.0000
  H   H949      1.0  0.81117  0.93723  0.78881  1.0000
  H   H950      1.0  0.69823  0.02410  0.69796  1.0000
  H   H951      1.0  0.98333  0.93146  0.61410  1.0000
  H   H952      1.0  0.88678  0.89226  0.78609  1.0000
  H   H953      1.0  0.98974  0.04984  0.90471  1.0000
  H   H954      1.0  0.98242  0.09793  0.96731  1.0000
  H   H955      1.0  0.84597  0.08342  0.70621  1.0000
  H   H956      1.0  0.79454  0.00503  0.70565  1.0000
  H   H957      1.0  0.96697  0.03277  0.85506  1.0000
  H   H958      1.0  0.86864  0.90955  0.85424  1.0000
  H   H959      1.0  0.78203  0.07065  0.98509  1.0000
  C   C589      1.0  0.77639  0.00052  0.54866  1.0000
  H   H960      1.0  0.73677  0.91602  0.70835  1.0000
  C   C590      1.0  0.04439  0.00423  0.89169  1.0000
  S   S242      1.0  0.76735  0.95687  0.72348  1.0000
  Fe  Fe121     1.0  0.80691  0.05778  0.82349  1.0000
  S   S243      1.0  0.86099  0.03470  0.82099  1.0000
  S   S244      1.0  0.75273  0.05505  0.79018  1.0000
  Fe  Fe122     1.0  0.83888  0.07916  0.88287  1.0000
  S   S245      1.0  0.89555  0.05779  0.88600  1.0000
  H   H961      1.0  0.60784  0.01772  0.72141  1.0000
  Fe  Fe123     1.0  0.89980  0.06249  0.83250  1.0000
  S   S246      1.0  0.96308  0.06649  0.80926  1.0000
  Fe  Fe124     1.0  0.85165  0.03219  0.87424  1.0000
  S   S247      1.0  0.85683  0.00145  0.90052  1.0000
  S   S248      1.0  0.84655  0.08603  0.83011  1.0000
  S   S249      1.0  0.79415  0.05313  0.87604  1.0000
  Fe  Fe125     1.0  0.67521  0.89699  0.86058  1.0000
  S   S250      1.0  0.62214  0.91571  0.88263  1.0000
  S   S251      1.0  0.67540  0.88925  0.80808  1.0000
  Fe  Fe126     1.0  0.72025  0.89088  0.92439  1.0000
  S   S252      1.0  0.67106  0.90937  0.95202  1.0000
  C   C591      1.0  0.86453  0.08391  0.96569  1.0000
  Fe  Fe127     1.0  0.62490  0.89198  0.92254  1.0000
  C   C592      1.0  0.99407  0.94608  0.62565  1.0000
  Fe  Fe128     1.0  0.67347  0.93125  0.90956  1.0000
  S   S253      1.0  0.67360  0.96619  0.91142  1.0000
  H   H962      1.0  0.89847  0.91806  0.79998  1.0000
  S   S254      1.0  0.72677  0.91433  0.88426  1.0000
  C   C593      1.0  0.82748  0.86891  0.57259  1.0000
  H   H963      1.0  0.81777  0.01562  0.96678  1.0000
  C   C594      1.0  0.81507  0.07758  0.71213  1.0000
  C   C595      1.0  0.77504  0.99333  0.58053  1.0000
  H   H964      1.0  0.06106  0.98522  0.60613  1.0000
  H   H965      1.0  0.87199  0.07199  0.94816  1.0000
  C   C596      1.0  0.73457  0.91304  0.56448  1.0000
  C   C597      1.0  0.06068  0.94356  0.59706  1.0000
  H   H966      1.0  0.04448  0.04575  0.89538  1.0000
  C   C598      1.0  0.03833  0.07550  0.83646  1.0000
  H   H967      1.0  0.85737  0.88360  0.84063  1.0000
  C   C599      1.0  0.81221  0.03288  0.96481  1.0000
  C   C600      1.0  0.80716  0.98998  0.90104  1.0000
  C   C601      1.0  0.79903  0.97295  0.92142  1.0000
  C   C602      1.0  0.75815  0.96508  0.92388  1.0000
  C   C603      1.0  0.72533  0.97462  0.90657  1.0000
  C   C604      1.0  0.73374  0.99128  0.88566  1.0000
  C   C605      1.0  0.77479  0.99862  0.88237  1.0000
  H   H968      1.0  0.82406  0.96607  0.93569  1.0000
  H   H969      1.0  0.75172  0.95206  0.93991  1.0000
  H   H970      1.0  0.70856  0.99841  0.87179  1.0000
  H   H971      1.0  0.78120  0.01102  0.86536  1.0000
  H   H972      1.0  0.68906  0.00289  0.78145  1.0000
  C   C606      1.0  0.99462  0.07853  0.83760  1.0000
  C   C607      1.0  0.97578  0.08923  0.86347  1.0000
  H   H973      1.0  0.62589  0.98036  0.71591  1.0000
  C   C608      1.0  0.76186  0.06172  0.96855  1.0000
  C   C609      1.0  0.73682  0.93924  0.74578  1.0000
  C   C610      1.0  0.72755  0.91975  0.73284  1.0000
  C   C611      1.0  0.70681  0.90481  0.75171  1.0000
  C   C612      1.0  0.69566  0.90924  0.78367  1.0000
  C   C613      1.0  0.70334  0.92907  0.79625  1.0000
  C   C614      1.0  0.72356  0.94416  0.77717  1.0000
  H   H974      1.0  0.69434  0.93265  0.82085  1.0000
  H   H975      1.0  0.73052  0.95926  0.78728  1.0000
  H   H976      1.0  0.79673  0.93961  0.55056  1.0000
  H   H977      1.0  0.05307  0.06748  0.81625  1.0000
  C   C615      1.0  0.73532  0.06239  0.72741  1.0000
  C   C616      1.0  0.76516  0.06415  0.75152  1.0000
  C   C617      1.0  0.80497  0.07198  0.74403  1.0000
  H   H978      1.0  0.66998  0.88287  0.01891  1.0000
  H   H979      1.0  0.03823  0.98892  0.88012  1.0000
  N   N61       1.0  0.00693  0.01837  0.89062  1.0000
  H   H980      1.0  0.82816  0.07344  0.76263  1.0000
  H   H981      1.0  0.98919  0.00788  0.84361  1.0000
  H   H982      1.0  0.76999  0.06686  0.94359  1.0000
  H   H983      1.0  0.71433  0.92383  0.57922  1.0000
  C   C618      1.0  0.04351  0.09131  0.88920  1.0000
  C   C619      1.0  0.06282  0.08196  0.86224  1.0000
  C   C620      1.0  0.06629  0.89884  0.65334  1.0000
  C   C621      1.0  0.87870  0.08159  0.99734  1.0000
  H   H984      1.0  0.76360  0.90958  0.57844  1.0000
  H   H985      1.0  0.74263  0.90425  0.99206  1.0000
  H   H986      1.0  0.72793  0.99431  0.75239  1.0000
  H   H987      1.0  0.94224  0.09249  0.86368  1.0000
  H   H988      1.0  0.97538  0.97443  0.57940  1.0000
  C   C622      1.0  0.84478  0.89999  0.84202  1.0000
  N   N62       1.0  0.66828  0.00370  0.73229  1.0000
  C   C623      1.0  0.68623  0.00787  0.69992  1.0000
  C   C624      1.0  0.70146  0.00569  0.75665  1.0000
  C   C625      1.0  0.78815  0.86630  0.58745  1.0000
  C   C626      1.0  0.81819  0.93020  0.81281  1.0000
  H   H989      1.0  0.79526  0.03378  0.66586  1.0000
  H   H990      1.0  0.71268  0.99674  0.69411  1.0000
  H   H991      1.0  0.61860  0.88159  0.00184  1.0000
  H   H992      1.0  0.70583  0.03150  0.95686  1.0000
  H   H993      1.0  0.71486  0.02164  0.75630  1.0000
  H   H994      1.0  0.67675  0.97039  0.72731  1.0000
  C   C627      1.0  0.65174  0.98224  0.73342  1.0000
  C   C628      1.0  0.73947  0.02763  0.95138  1.0000
  C   C629      1.0  0.97114  0.00842  0.90742  1.0000
  H   H995      1.0  0.77346  0.89487  0.80954  1.0000
  H   H996      1.0  0.02329  0.03598  0.93255  1.0000
  C   C630      1.0  0.01647  0.03832  0.90657  1.0000
  H   H997      1.0  0.81621  0.89980  0.85790  1.0000
  C   C631      1.0  0.87347  0.90840  0.78938  1.0000
  H   H998      1.0  0.89754  0.06796  0.00405  1.0000
  C   C632      1.0  0.63367  0.01897  0.73913  1.0000
  C   C633      1.0  0.75587  0.89111  0.00525  1.0000
  H   H999      1.0  0.94267  0.01891  0.90766  1.0000
  H   H1000     1.0  0.77995  0.04119  0.02347  1.0000
  H   H1001     1.0  0.82064  0.03744  0.93971  1.0000
  H   H1002     1.0  0.70417  0.05699  0.73329  1.0000
  N   N63       1.0  0.83488  0.90849  0.80973  1.0000
  H   H1003     1.0  0.85254  0.87614  0.58555  1.0000
  C   C634      1.0  0.99136  0.10303  0.99180  1.0000
  H   H1004     1.0  0.05411  0.00095  0.91692  1.0000
  H   H1005     1.0  0.63928  0.97825  0.75781  1.0000
  H   H1006     1.0  0.84102  0.94050  0.82476  1.0000
  H   H1007     1.0  0.86713  0.91485  0.76488  1.0000
  H   H1008     1.0  0.70068  0.88952  0.74185  1.0000
  H   H1009     1.0  0.81229  0.01607  0.63478  1.0000
  H   H1010     1.0  0.66206  0.00632  0.68094  1.0000
  H   H1011     1.0  0.74719  0.95370  0.55072  1.0000
  N   N64       1.0  0.76808  0.03883  0.97281  1.0000
  C   C635      1.0  0.77617  0.87468  0.98878  1.0000
  C   C636      1.0  0.80292  0.89535  0.79469  1.0000
  H   H1012     1.0  0.61995  0.01660  0.76362  1.0000
  C   C637      1.0  0.84050  0.10161  0.95697  1.0000
  S   S255      1.0  0.67373  0.87167  0.89806  1.0000
  C   C638      1.0  0.75884  0.03303  0.00663  1.0000
  H   H1013     1.0  0.96851  0.09613  0.00929  1.0000
  H   H1014     1.0  0.81447  0.87890  0.79160  1.0000
  H   H1015     1.0  0.72580  0.03731  0.01353  1.0000
  H   H1016     1.0  0.96202  0.99367  0.89542  1.0000
  C   C639      1.0  0.99571  0.02256  0.85673  1.0000
  H   H1017     1.0  0.05546  0.97195  0.64400  1.0000
  H   H1018     1.0  0.76325  0.01585  0.01065  1.0000
  C   C640      1.0  0.00013  0.09547  0.88940  1.0000
  H   H1019     1.0  0.05117  0.92914  0.58436  1.0000
  H   H1020     1.0  0.71769  0.89802  0.56221  1.0000
  H   H1021     1.0  0.02307  0.09605  0.99671  1.0000
  S   S256      1.0  0.07274  0.09598  0.92373  1.0000
  H   H1022     1.0  0.07178  0.01125  0.87888  1.0000
  H   H1023     1.0  0.57298  0.08061  0.62215  1.0000
  H   H1024     1.0  0.62558  0.87720  0.04427  1.0000
