data_image0
_chemical_formula_structural       CH3C2H3FeSHCHC2SFeS2FeS2FeCFeS3C2SH6C2HSC6H2SHC6H7CNH3C4H2SNHSHNFeH2C2HCHCHCH2CH2CSH2C2H4CSHFeH3C2H4NH5CHC2H3NSCHCHCHCFeH3CH4CSHC2HFeS2CH3CNSFeS2FeH4C2SFeSFeHSH2C2NHC4H3C6HFeH2SH2FeH2CHCHCNCHSHC2SHSH7SHC2HCH3CH2CH3FeNSHFeCHFeHCH3CH7CHFeC2SH2SH3NH5CS2H4CH3FeCSHSHNC2HCFeC4HSC2HSHCH2C2HCH2CHCSH3SHCHFe2SCH2C2SH4SH2SC2H4SHFe2CHSCHSHC3H3CH4CH3SHNH2CH3CSHFe2H2S2CHSH3Fe2NC3H3CHC2SC2HCH2C2SCH2C2H3SCH2CHCHC3SCSFeC3SH3FeHN2FeH2SCSH2CHSH5CH2CH2CHSH2CHCHCHSCH2C3HCHCSFeH2CH5S2CH5FeNH2CH2C2HCSHNH2SCHSHSC2SCHCH3CHSH2CH2FeH3C4HSHCSHFeHFeH2SH2SC4HCH2CH2C2SC3HFeHCH2NH3CHCNHNH3CHCHCH3C3H2C3HFeCHC2HCH7C2H3SH3CH4CH3CSHCH5CS2CHCNH5CHFeHC2SH3CH5C2HNCH5FeS2CH2SCH5FeSCSHC3SCSHSHCHFe2CFeH2CSHCSHC2H2FeHCNCH2CHCSCNCHC2H2C2HCHC2H3FeCHCH3SH4C2H4CHSFeS2FeS2FeSFeS2C2FeS2CHSHCH5C2SFeH3C6H4C2HC2H5CHNH3CHCH5NH2SC2HCH2CHC2N2CH2CFeH2SC2FeHCH2C2H2CH3SH2SH4S2H2CNC5H2CHCSHCHCH5CH3CH2CHCNFeS2FeS2FeHCS2H2FeSNHCH5SH2SHC2HCH2C5H2C6FeC2NFeH2FeH3C2H2SHC2H2NFeH5CFeS3H3C2HSHSCHCH5CHCH3CH2CHCH2CHCHSHCFeS2HSFeSFeS3C3HS3H3CHCH2CFeHCH2SC6H4C2HC4HCH2FeHCHCSCH4SH2CHNC3HC2HFeH4FeHSCH2C2FeNH3C2FeNS2H2C4H10SH5SHSCNH7FeSHSFeSFeS5HFeSH3CH2FeH2SCSCFeC6HCH2C6H2SCH2CH2CH5CSH2SNHCHCHCHSHFeH2FeSH6NHNCH2C2H3C2H2CHC3SH2C5SH2CH2CHNHCH3CH5CH5FeHCHSH6CH2CH2C4HCHCH4C2H2SHNCFeHFeHSH3CH2C2SCH2CH2C2SCH4NCHCSC2FeSHCHCH3C2HC2HNC3SCSH2SH3C2HFeH2CHCFeHCH3CFeHSHCHC3NH4NSCSH6C2H2SFeHSC2HCSHCFeSHS2C4H3C2HFeHCHSH2CHFeCSCH2SHFeHSC2HCFeSHCH2SCHCSH2FeHCH8CHCNHCHCH2CHCHFeHCH2SH2SCSH7CHNHFeHCFeCH2CNCSH3CFeH3SCFeS2H2CNC2H7CH6CHFeCHFeH2S2C2H2CHC2SHFeCH2SCHC3SCHSC2SC3HFeCH2C2HSHCH2CSCHCHCHNH2FeHC2H3CH2CHCH2SHFeHC2SH3CHCHCSH2SFeCSH2FeSCH3CSHFeHC2SHCHCHC2S2HCH3CFeCSCNCHFeSHCHFeHCHCHFeHCH3SCHSN2SH2CHSHC2SCHCHSCHCHC2NHC2H2SFeS2FeSFeS3HSHSCFeHSHSH2CH3CH2C4NH5C6H4CNH2FeHCHC3H6CH3C2HC2HC4SNCNC2H5CH2C2H3NH2SHNC2HCHCH3FeCHCHCH4CH5CHSHS2HSCFe2SH3SHFeS2H3SHCH4CH2C6H4NC4S2CHCH2CH2CNHFeHFeH2CFeSHC2H5C2SHC2H2NH2FeC2H3SHCH5CSH3FeH2CH2CHCH2C2H2CHFe
_chemical_formula_sum              "C640 H1024 Fe128 S256 N64"
_cell_length_a       38.684
_cell_length_b       42.6754
_cell_length_c       42.7043
_cell_angle_alpha    90.2362
_cell_angle_beta     90.3397
_cell_angle_gamma    88.6316

_space_group_name_H-M_alt    "P 1"
_space_group_IT_number       1

loop_
  _space_group_symop_operation_xyz
  'x, y, z'

loop_
  _atom_site_type_symbol
  _atom_site_label
  _atom_site_symmetry_multiplicity
  _atom_site_fract_x
  _atom_site_fract_y
  _atom_site_fract_z
  _atom_site_occupancy
  C   C1        1.0  0.45640  0.34032  0.26301  1.0000
  H   H1        1.0  0.46724  0.17442  0.54331  1.0000
  H   H2        1.0  0.64704  0.14880  0.23692  1.0000
  H   H3        1.0  0.40320  0.32901  0.25396  1.0000
  C   C2        1.0  0.42085  0.34732  0.26030  1.0000
  C   C3        1.0  0.60012  0.33782  0.22318  1.0000
  H   H4        1.0  0.50994  0.20474  0.33167  1.0000
  H   H5        1.0  0.62593  0.25055  0.42544  1.0000
  H   H6        1.0  0.55988  0.14841  0.54787  1.0000
  Fe  Fe1       1.0  0.52794  0.33546  0.51060  1.0000
  S   S1        1.0  0.50391  0.33833  0.46291  1.0000
  H   H7        1.0  0.51420  0.15202  0.30820  1.0000
  C   C4        1.0  0.59335  0.32080  0.16963  1.0000
  H   H8        1.0  0.46600  0.31668  0.25875  1.0000
  C   C5        1.0  0.54886  0.35307  0.19390  1.0000
  C   C6        1.0  0.66457  0.34882  0.10448  1.0000
  S   S2        1.0  0.56615  0.37194  0.52330  1.0000
  Fe  Fe2       1.0  0.56206  0.25352  0.32342  1.0000
  S   S3        1.0  0.50874  0.27154  0.31182  1.0000
  S   S4        1.0  0.57310  0.23795  0.37255  1.0000
  Fe  Fe3       1.0  0.58597  0.25553  0.25580  1.0000
  S   S5        1.0  0.53372  0.27185  0.23821  1.0000
  S   S6        1.0  0.63132  0.25234  0.22285  1.0000
  Fe  Fe4       1.0  0.53525  0.30432  0.27950  1.0000
  C   C7        1.0  0.49269  0.19529  0.34985  1.0000
  Fe  Fe5       1.0  0.51248  0.23735  0.27225  1.0000
  S   S7        1.0  0.46979  0.20313  0.26723  1.0000
  S   S8        1.0  0.58864  0.28996  0.29543  1.0000
  S   S9        1.0  0.56471  0.21734  0.28547  1.0000
  C   C8        1.0  0.48635  0.17302  0.24363  1.0000
  C   C9        1.0  0.51422  0.17916  0.22427  1.0000
  S   S10       1.0  0.54459  0.31023  0.09002  1.0000
  H   H9        1.0  0.52222  0.20298  0.22169  1.0000
  H   H10       1.0  0.47985  0.16349  0.40261  1.0000
  H   H11       1.0  0.68500  0.33298  0.43811  1.0000
  H   H12       1.0  0.66308  0.32615  0.40152  1.0000
  H   H13       1.0  0.57949  0.29928  0.17637  1.0000
  H   H14       1.0  0.63148  0.17873  0.26324  1.0000
  C   C10       1.0  0.66733  0.31631  0.10752  1.0000
  C   C11       1.0  0.52713  0.20431  0.55057  1.0000
  H   H15       1.0  0.54109  0.17240  0.38947  1.0000
  S   S11       1.0  0.65230  0.32333  0.53178  1.0000
  C   C12       1.0  0.58546  0.22670  0.12811  1.0000
  C   C13       1.0  0.56971  0.21724  0.15577  1.0000
  C   C14       1.0  0.58494  0.22409  0.18475  1.0000
  C   C15       1.0  0.61590  0.24003  0.18628  1.0000
  C   C16       1.0  0.63268  0.24813  0.15862  1.0000
  C   C17       1.0  0.61722  0.24173  0.12951  1.0000
  H   H16       1.0  0.54505  0.20582  0.15492  1.0000
  H   H17       1.0  0.57269  0.21751  0.20618  1.0000
  S   S12       1.0  0.56043  0.29521  0.52837  1.0000
  H   H18       1.0  0.62981  0.24840  0.10810  1.0000
  C   C18       1.0  0.52228  0.30994  0.43784  1.0000
  C   C19       1.0  0.52742  0.31713  0.40632  1.0000
  C   C20       1.0  0.54330  0.29509  0.38634  1.0000
  C   C21       1.0  0.55355  0.26559  0.39768  1.0000
  C   C22       1.0  0.54826  0.25825  0.42916  1.0000
  C   C23       1.0  0.53252  0.28040  0.44920  1.0000
  H   H19       1.0  0.51950  0.33992  0.39740  1.0000
  H   H20       1.0  0.54781  0.30116  0.36218  1.0000
  H   H21       1.0  0.55593  0.23538  0.43796  1.0000
  H   H22       1.0  0.52752  0.27436  0.47322  1.0000
  H   H23       1.0  0.46571  0.19869  0.34097  1.0000
  H   H24       1.0  0.54703  0.21685  0.56443  1.0000
  H   H25       1.0  0.65497  0.26246  0.47794  1.0000
  C   C24       1.0  0.47735  0.15021  0.38025  1.0000
  N   N1        1.0  0.58654  0.34672  0.19197  1.0000
  H   H26       1.0  0.60714  0.32002  0.42963  1.0000
  H   H27       1.0  0.59407  0.35617  0.24110  1.0000
  H   H28       1.0  0.50472  0.22094  0.54754  1.0000
  C   C25       1.0  0.40802  0.37769  0.26644  1.0000
  C   C26       1.0  0.68074  0.31560  0.56307  1.0000
  C   C27       1.0  0.69452  0.36662  0.10413  1.0000
  C   C28       1.0  0.47443  0.14250  0.24627  1.0000
  H   H29       1.0  0.53506  0.33246  0.20310  1.0000
  H   H30       1.0  0.64427  0.30269  0.10890  1.0000
  S   S13       1.0  0.56454  0.22108  0.09207  1.0000
  N   N2        1.0  0.65359  0.29212  0.43725  1.0000
  H   H31       1.0  0.55560  0.16776  0.35004  1.0000
  S   S14       1.0  0.49705  0.34108  0.55443  1.0000
  H   H32       1.0  0.53054  0.16388  0.11605  1.0000
  N   N3        1.0  0.50105  0.16192  0.35617  1.0000
  Fe  Fe6       1.0  0.53800  0.37437  0.56902  1.0000
  H   H33       1.0  0.62141  0.31455  0.16855  1.0000
  H   H34       1.0  0.58495  0.32719  0.14553  1.0000
  C   C29       1.0  0.64323  0.26783  0.41454  1.0000
  C   C30       1.0  0.47933  0.36393  0.27104  1.0000
  H   H35       1.0  0.59370  0.15673  0.12408  1.0000
  C   C31       1.0  0.53165  0.15465  0.20873  1.0000
  H   H36       1.0  0.62861  0.33360  0.22284  1.0000
  C   C32       1.0  0.67643  0.31442  0.42161  1.0000
  H   H37       1.0  0.65933  0.14799  0.32328  1.0000
  C   C33       1.0  0.64681  0.15634  0.26190  1.0000
  H   H38       1.0  0.57964  0.14699  0.27341  1.0000
  H   H39       1.0  0.50112  0.15273  0.52355  1.0000
  C   C34       1.0  0.67232  0.27710  0.46371  1.0000
  H   H40       1.0  0.54279  0.37298  0.21007  1.0000
  H   H41       1.0  0.48957  0.36246  0.09158  1.0000
  C   C35       1.0  0.49071  0.15925  0.54700  1.0000
  S   S15       1.0  0.52392  0.35576  0.27399  1.0000
  H   H42       1.0  0.62948  0.32797  0.46584  1.0000
  H   H43       1.0  0.53808  0.19937  0.52698  1.0000
  C   C36       1.0  0.54748  0.15440  0.57065  1.0000
  C   C37       1.0  0.53713  0.15872  0.36752  1.0000
  H   H44       1.0  0.60507  0.29311  0.46163  1.0000
  H   H45       1.0  0.49581  0.21011  0.37117  1.0000
  H   H46       1.0  0.62906  0.27832  0.39422  1.0000
  H   H47       1.0  0.63213  0.37072  0.17792  1.0000
  C   C38       1.0  0.60389  0.37517  0.18118  1.0000
  S   S16       1.0  0.62366  0.36642  0.09857  1.0000
  H   H48       1.0  0.65681  0.26035  0.15964  1.0000
  Fe  Fe7       1.0  0.59662  0.33214  0.54477  1.0000
  H   H49       1.0  0.67391  0.16169  0.26871  1.0000
  H   H50       1.0  0.55400  0.15940  0.19458  1.0000
  H   H51       1.0  0.58852  0.31581  0.23137  1.0000
  C   C39       1.0  0.49701  0.14353  0.32701  1.0000
  C   C40       1.0  0.62249  0.30909  0.44904  1.0000
  H   H52       1.0  0.66612  0.25464  0.40511  1.0000
  H   H53       1.0  0.47007  0.14560  0.31774  1.0000
  H   H54       1.0  0.53750  0.35879  0.17056  1.0000
  H   H55       1.0  0.61683  0.16507  0.31797  1.0000
  N   N4        1.0  0.51679  0.17526  0.56637  1.0000
  H   H56       1.0  0.44990  0.15235  0.37243  1.0000
  H   H57       1.0  0.69404  0.26172  0.45548  1.0000
  H   H58       1.0  0.59326  0.38321  0.15825  1.0000
  H   H59       1.0  0.44382  0.37547  0.48539  1.0000
  H   H60       1.0  0.48220  0.13728  0.55833  1.0000
  C   C41       1.0  0.47225  0.38007  0.08166  1.0000
  H   H61       1.0  0.68361  0.29483  0.47965  1.0000
  C   C42       1.0  0.52834  0.13792  0.11695  1.0000
  C   C43       1.0  0.63255  0.14308  0.31513  1.0000
  H   H62       1.0  0.45238  0.13780  0.26083  1.0000
  H   H63       1.0  0.28781  0.37531  0.85455  1.0000
  H   H64       1.0  0.26417  0.32582  0.83256  1.0000
  N   N5        1.0  0.29199  0.36008  0.80660  1.0000
  S   S17       1.0  0.38672  0.37009  0.75283  1.0000
  C   C44       1.0  0.44636  0.16920  0.82299  1.0000
  H   H65       1.0  0.56733  0.16546  0.58579  1.0000
  C   C45       1.0  0.49201  0.35774  0.64810  1.0000
  H   H66       1.0  0.54571  0.16517  0.71470  1.0000
  C   C46       1.0  0.50185  0.18301  0.59732  1.0000
  H   H67       1.0  0.23844  0.34776  0.80481  1.0000
  C   C47       1.0  0.51521  0.21459  0.77135  1.0000
  Fe  Fe8       1.0  0.56526  0.26669  0.06612  1.0000
  H   H68       1.0  0.52475  0.22348  0.79429  1.0000
  H   H69       1.0  0.51215  0.36863  0.63346  1.0000
  H   H70       1.0  0.56954  0.15704  0.07054  1.0000
  C   C48       1.0  0.32613  0.34467  0.81202  1.0000
  H   H71       1.0  0.50097  0.33335  0.65322  1.0000
  H   H72       1.0  0.42327  0.16260  0.81040  1.0000
  H   H73       1.0  0.46810  0.35638  0.63360  1.0000
  H   H74       1.0  0.50926  0.23534  0.75645  1.0000
  C   C49       1.0  0.29107  0.37407  0.77498  1.0000
  S   S18       1.0  0.41876  0.22891  0.82239  1.0000
  H   H75       1.0  0.50350  0.23942  0.91418  1.0000
  C   C50       1.0  0.50569  0.18597  0.85607  1.0000
  C   C51       1.0  0.50173  0.15482  0.84658  1.0000
  H   H76       1.0  0.52051  0.20088  0.71012  1.0000
  Fe  Fe9       1.0  0.58444  0.30110  0.00710  1.0000
  S   S19       1.0  0.56742  0.34757  0.02690  1.0000
  S   S20       1.0  0.60133  0.29666  0.95703  1.0000
  C   C52       1.0  0.47210  0.14645  0.82988  1.0000
  H   H77       1.0  0.42722  0.30146  0.95445  1.0000
  H   H78       1.0  0.43107  0.24604  0.97093  1.0000
  H   H79       1.0  0.49365  0.16152  0.60975  1.0000
  C   C53       1.0  0.43662  0.25740  0.90929  1.0000
  N   N6        1.0  0.48591  0.37584  0.67721  1.0000
  S   S21       1.0  0.47918  0.35433  0.78442  1.0000
  Fe  Fe10      1.0  0.49564  0.30527  0.77156  1.0000
  S   S22       1.0  0.46921  0.34219  0.02985  1.0000
  S   S23       1.0  0.54296  0.29560  0.74258  1.0000
  Fe  Fe11      1.0  0.52123  0.32176  0.04311  1.0000
  H   H80       1.0  0.52080  0.19515  0.61257  1.0000
  H   H81       1.0  0.45364  0.37383  0.71798  1.0000
  H   H82       1.0  0.58373  0.22039  0.77240  1.0000
  H   H83       1.0  0.46365  0.22011  0.95454  1.0000
  C   C54       1.0  0.50319  0.27138  0.69521  1.0000
  C   C55       1.0  0.67326  0.32643  0.59326  1.0000
  S   S24       1.0  0.44213  0.29014  0.75925  1.0000
  Fe  Fe12      1.0  0.44023  0.27550  0.80959  1.0000
  S   S25       1.0  0.49488  0.28751  0.82079  1.0000
  Fe  Fe13      1.0  0.53328  0.30411  0.57371  1.0000
  H   H84       1.0  0.45542  0.31546  0.92462  1.0000
  S   S26       1.0  0.61480  0.28736  0.04994  1.0000
  H   H85       1.0  0.33216  0.32676  0.79369  1.0000
  H   H86       1.0  0.43423  0.35913  0.68289  1.0000
  C   C56       1.0  0.48042  0.20882  0.84846  1.0000
  C   C57       1.0  0.52128  0.26988  0.64100  1.0000
  N   N7        1.0  0.46121  0.26618  0.93431  1.0000
  H   H87       1.0  0.56752  0.14956  0.76690  1.0000
  C   C58       1.0  0.53477  0.28424  0.70387  1.0000
  C   C59       1.0  0.56022  0.28847  0.68127  1.0000
  C   C60       1.0  0.55342  0.28142  0.64982  1.0000
  C   C61       1.0  0.57298  0.21032  0.75041  1.0000
  H   H88       1.0  0.49044  0.20263  0.77571  1.0000
  H   H89       1.0  0.58493  0.29795  0.68793  1.0000
  H   H90       1.0  0.57309  0.28493  0.63240  1.0000
  C   C62       1.0  0.57006  0.31586  0.93354  1.0000
  C   C63       1.0  0.54266  0.33230  0.94771  1.0000
  C   C64       1.0  0.51777  0.34815  0.92965  1.0000
  C   C65       1.0  0.51863  0.34583  0.89711  1.0000
  C   C66       1.0  0.54546  0.32877  0.88253  1.0000
  C   C67       1.0  0.57156  0.31416  0.90079  1.0000
  H   H91       1.0  0.53986  0.33229  0.97261  1.0000
  Fe  Fe14      1.0  0.42528  0.33772  0.77671  1.0000
  H   H92       1.0  0.54631  0.32713  0.85727  1.0000
  H   H93       1.0  0.59253  0.30123  0.88964  1.0000
  S   S27       1.0  0.48413  0.36227  0.87576  1.0000
  H   H94       1.0  0.48383  0.26710  0.71252  1.0000
  H   H95       1.0  0.48373  0.23273  0.85587  1.0000
  Fe  Fe15      1.0  0.47271  0.33497  0.83251  1.0000
  H   H96       1.0  0.52497  0.15371  0.78312  1.0000
  H   H97       1.0  0.55980  0.17454  0.80035  1.0000
  C   C68       1.0  0.26451  0.33673  0.80895  1.0000
  H   H98       1.0  0.44096  0.23268  0.90152  1.0000
  C   C69       1.0  0.45783  0.37549  0.05195  1.0000
  H   H99       1.0  0.50277  0.16810  0.73035  1.0000
  C   C70       1.0  0.52685  0.18135  0.72656  1.0000
  N   N8        1.0  0.54095  0.19323  0.75647  1.0000
  C   C71       1.0  0.45773  0.24489  0.96127  1.0000
  H   H100      1.0  0.49687  0.36100  0.94103  1.0000
  S   S28       1.0  0.53690  0.27598  0.02107  1.0000
  H   H101      1.0  0.47168  0.25487  0.65702  1.0000
  C   C72       1.0  0.45064  0.20048  0.83200  1.0000
  C   C73       1.0  0.45365  0.29877  0.94451  1.0000
  S   S29       1.0  0.57221  0.33787  0.59211  1.0000
  H   H102      1.0  0.43929  0.27250  0.88824  1.0000
  S   S30       1.0  0.41757  0.32143  0.82592  1.0000
  H   H103      1.0  0.47883  0.19904  0.59506  1.0000
  H   H104      1.0  0.50059  0.27964  0.90204  1.0000
  H   H105      1.0  0.26808  0.31766  0.79133  1.0000
  H   H106      1.0  0.46731  0.33631  0.70267  1.0000
  H   H107      1.0  0.47211  0.30641  0.96304  1.0000
  H   H108      1.0  0.52803  0.35301  0.70193  1.0000
  H   H109      1.0  0.52857  0.19248  0.86904  1.0000
  S   S31       1.0  0.51090  0.26502  0.60147  1.0000
  H   H110      1.0  0.32747  0.33286  0.83518  1.0000
  C   C74       1.0  0.49651  0.26401  0.66380  1.0000
  C   C75       1.0  0.54875  0.16661  0.77758  1.0000
  H   H111      1.0  0.59318  0.19464  0.73982  1.0000
  C   C76       1.0  0.49691  0.26366  0.92222  1.0000
  H   H112      1.0  0.47577  0.25119  0.98062  1.0000
  H   H113      1.0  0.64942  0.33936  0.59770  1.0000
  H   H114      1.0  0.51621  0.26996  0.94053  1.0000
  C   C77       1.0  0.45912  0.36058  0.69597  1.0000
  H   H115      1.0  0.40936  0.25977  0.91727  1.0000
  H   H116      1.0  0.56815  0.23018  0.73401  1.0000
  C   C78       1.0  0.51841  0.37696  0.69554  1.0000
  H   H117      1.0  0.34720  0.36197  0.81147  1.0000
  H   H118      1.0  0.29679  0.35624  0.75652  1.0000
  H   H119      1.0  0.69163  0.33028  0.64084  1.0000
  Fe  Fe16      1.0  0.59256  0.33163  0.07129  1.0000
  N   N9        1.0  0.37520  0.45262  0.19025  1.0000
  S   S32       1.0  0.30784  0.42072  0.33281  1.0000
  H   H120      1.0  0.55355  0.39620  0.08554  1.0000
  Fe  Fe17      1.0  0.33761  0.46080  0.35276  1.0000
  C   C79       1.0  0.38402  0.46561  0.22133  1.0000
  H   H121      1.0  0.43676  0.47563  0.48587  1.0000
  Fe  Fe18      1.0  0.34226  0.42644  0.29108  1.0000
  H   H122      1.0  0.24212  0.56259  0.07496  1.0000
  C   C80       1.0  0.37655  0.47770  0.16659  1.0000
  H   H123      1.0  0.47448  0.41051  0.12198  1.0000
  H   H124      1.0  0.42161  0.42479  0.27895  1.0000
  H   H125      1.0  0.20631  0.48423  0.18524  1.0000
  C   C81       1.0  0.43104  0.40127  0.27446  1.0000
  H   H126      1.0  0.39977  0.40788  0.19968  1.0000
  H   H127      1.0  0.27110  0.52975  0.39585  1.0000
  H   H128      1.0  0.35776  0.49709  0.17189  1.0000
  H   H129      1.0  0.23607  0.52185  0.36939  1.0000
  H   H130      1.0  0.49748  0.42704  0.48962  1.0000
  H   H131      1.0  0.39172  0.42367  0.46020  1.0000
  H   H132      1.0  0.22016  0.50122  0.24057  1.0000
  C   C82       1.0  0.46370  0.40721  0.09881  1.0000
  H   H133      1.0  0.23391  0.41550  0.35459  1.0000
  Fe  Fe19      1.0  0.27429  0.45829  0.31098  1.0000
  C   C83       1.0  0.33994  0.44007  0.19094  1.0000
  C   C84       1.0  0.43460  0.45369  0.49967  1.0000
  S   S33       1.0  0.37463  0.46368  0.31279  1.0000
  H   H134      1.0  0.23109  0.51811  0.45628  1.0000
  H   H135      1.0  0.41065  0.47488  0.22185  1.0000
  S   S34       1.0  0.30568  0.46013  0.26720  1.0000
  H   H136      1.0  0.25094  0.46575  0.37266  1.0000
  H   H137      1.0  0.57638  0.42542  0.10704  1.0000
  H   H138      1.0  0.48590  0.40581  0.45494  1.0000
  N   N10       1.0  0.44279  0.42561  0.48041  1.0000
  H   H139      1.0  0.41167  0.39577  0.50864  1.0000
  H   H140      1.0  0.40777  0.45325  0.50900  1.0000
  H   H141      1.0  0.20633  0.54261  0.09144  1.0000
  H   H142      1.0  0.19716  0.38765  0.39237  1.0000
  H   H143      1.0  0.42708  0.43591  0.18127  1.0000
  C   C85       1.0  0.40022  0.42718  0.18214  1.0000
  S   S35       1.0  0.35491  0.45795  0.40308  1.0000
  S   S36       1.0  0.21625  0.46216  0.30693  1.0000
  H   H144      1.0  0.69251  0.39185  0.10192  1.0000
  H   H145      1.0  0.40271  0.48795  0.16552  1.0000
  H   H146      1.0  0.39445  0.41692  0.15872  1.0000
  H   H147      1.0  0.24166  0.47683  0.45856  1.0000
  C   C86       1.0  0.34720  0.52330  0.47122  1.0000
  H   H148      1.0  0.42163  0.44604  0.43819  1.0000
  H   H149      1.0  0.36950  0.57111  0.21022  1.0000
  H   H150      1.0  0.25191  0.44594  0.40969  1.0000
  Fe  Fe20      1.0  0.32899  0.53357  0.10047  1.0000
  C   C87       1.0  0.35104  0.49403  0.42253  1.0000
  S   S37       1.0  0.38459  0.54264  0.11150  1.0000
  H   H151      1.0  0.33787  0.42121  0.20876  1.0000
  S   S38       1.0  0.33760  0.58689  0.47449  1.0000
  H   H152      1.0  0.34235  0.57042  0.15744  1.0000
  N   N11       1.0  0.23626  0.49472  0.41174  1.0000
  C   C88       1.0  0.24608  0.49858  0.44502  1.0000
  C   C89       1.0  0.32938  0.54454  0.23155  1.0000
  H   H153      1.0  0.45653  0.39661  0.51976  1.0000
  C   C90       1.0  0.34508  0.55976  0.20663  1.0000
  Fe  Fe21      1.0  0.35244  0.57841  0.52452  1.0000
  C   C91       1.0  0.20620  0.41925  0.35407  1.0000
  C   C92       1.0  0.34184  0.55049  0.42172  1.0000
  C   C93       1.0  0.29758  0.53024  0.22697  1.0000
  C   C94       1.0  0.34240  0.55120  0.45446  1.0000
  H   H154      1.0  0.25890  0.51696  0.19320  1.0000
  S   S39       1.0  0.35121  0.54091  0.26741  1.0000
  C   C95       1.0  0.34641  0.52191  0.40575  1.0000
  C   C96       1.0  0.29959  0.54256  0.17167  1.0000
  H   H155      1.0  0.33850  0.57206  0.40870  1.0000
  S   S40       1.0  0.28429  0.53613  0.13360  1.0000
  H   H156      1.0  0.48328  0.44792  0.45513  1.0000
  C   C97       1.0  0.33007  0.55889  0.17670  1.0000
  H   H157      1.0  0.34730  0.52362  0.49651  1.0000
  H   H158      1.0  0.22828  0.54427  0.40453  1.0000
  C   C98       1.0  0.28273  0.52914  0.19699  1.0000
  C   C99       1.0  0.35149  0.49476  0.45526  1.0000
  H   H159      1.0  0.38254  0.44745  0.23983  1.0000
  C   C100      1.0  0.25688  0.46864  0.39798  1.0000
  H   H160      1.0  0.37032  0.46868  0.14279  1.0000
  H   H161      1.0  0.39987  0.61733  0.49264  1.0000
  C   C101      1.0  0.19912  0.48763  0.40911  1.0000
  H   H162      1.0  0.34703  0.62025  0.08754  1.0000
  C   C102      1.0  0.44165  0.43026  0.08588  1.0000
  S   S41       1.0  0.36154  0.61840  0.55726  1.0000
  H   H163      1.0  0.34709  0.52161  0.38048  1.0000
  H   H164      1.0  0.32042  0.45876  0.19679  1.0000
  H   H165      1.0  0.44281  0.62799  0.48231  1.0000
  S   S42       1.0  0.30128  0.49816  0.33408  1.0000
  H   H166      1.0  0.28461  0.51981  0.24650  1.0000
  C   C103      1.0  0.41927  0.42479  0.45301  1.0000
  H   H167      1.0  0.35470  0.47324  0.46835  1.0000
  Fe  Fe22      1.0  0.39599  0.49879  0.08411  1.0000
  Fe  Fe23      1.0  0.33536  0.49721  0.29208  1.0000
  S   S43       1.0  0.40235  0.55306  0.53553  1.0000
  C   C104      1.0  0.47896  0.42673  0.46955  1.0000
  H   H168      1.0  0.45243  0.45540  0.52015  1.0000
  H   H169      1.0  0.33260  0.42988  0.16788  1.0000
  C   C105      1.0  0.55411  0.42177  0.09091  1.0000
  C   C106      1.0  0.43843  0.39712  0.49941  1.0000
  S   S44       1.0  0.43491  0.46551  0.10626  1.0000
  H   H170      1.0  0.27403  0.50405  0.44752  1.0000
  H   H171      1.0  0.42489  0.40404  0.43779  1.0000
  H   H172      1.0  0.19865  0.44941  0.23213  1.0000
  H   H173      1.0  0.28498  0.47285  0.40004  1.0000
  S   S45       1.0  0.32098  0.55144  0.55845  1.0000
  H   H174      1.0  0.48434  0.41277  0.28264  1.0000
  H   H175      1.0  0.23595  0.49159  0.07929  1.0000
  S   S46       1.0  0.34025  0.48751  0.07696  1.0000
  C   C107      1.0  0.46665  0.39447  0.27640  1.0000
  C   C108      1.0  0.24318  0.52396  0.39464  1.0000
  H   H176      1.0  0.36602  0.48518  0.22798  1.0000
  H   H177      1.0  0.53011  0.42815  0.10383  1.0000
  H   H178      1.0  0.60052  0.39479  0.19823  1.0000
  H   H179      1.0  0.52941  0.48041  0.08112  1.0000
  S   S47       1.0  0.36337  0.38587  0.26263  1.0000
  H   H180      1.0  0.57549  0.48087  0.08681  1.0000
  Fe  Fe24      1.0  0.40897  0.59085  0.57153  1.0000
  Fe  Fe25      1.0  0.37181  0.52902  0.57236  1.0000
  C   C109      1.0  0.40153  0.43632  0.81910  1.0000
  H   H181      1.0  0.34686  0.47877  0.77222  1.0000
  S   S48       1.0  0.31606  0.50098  0.98982  1.0000
  C   C110      1.0  0.21078  0.44385  0.77576  1.0000
  H   H182      1.0  0.59408  0.44656  0.02512  1.0000
  S   S49       1.0  0.37995  0.49604  0.83130  1.0000
  H   H183      1.0  0.26335  0.44043  0.79274  1.0000
  C   C111      1.0  0.36474  0.43123  0.76286  1.0000
  C   C112      1.0  0.36264  0.45920  0.78042  1.0000
  C   C113      1.0  0.38125  0.46173  0.80853  1.0000
  H   H184      1.0  0.21693  0.55840  0.00655  1.0000
  H   H185      1.0  0.35054  0.42928  0.74107  1.0000
  H   H186      1.0  0.26743  0.62263  0.68602  1.0000
  C   C114      1.0  0.24405  0.45495  0.78113  1.0000
  H   H187      1.0  0.21128  0.52471  0.86699  1.0000
  H   H188      1.0  0.26803  0.55285  0.64830  1.0000
  H   H189      1.0  0.40962  0.44327  0.04636  1.0000
  H   H190      1.0  0.35423  0.51365  0.89782  1.0000
  C   C115      1.0  0.25182  0.48578  0.77323  1.0000
  H   H191      1.0  0.27723  0.49454  0.77833  1.0000
  H   H192      1.0  0.40036  0.41360  0.57952  1.0000
  H   H193      1.0  0.41601  0.43815  0.84078  1.0000
  S   S50       1.0  0.29534  0.61061  0.62491  1.0000
  H   H194      1.0  0.26027  0.55062  0.02016  1.0000
  N   N12       1.0  0.22105  0.52662  0.04544  1.0000
  H   H195      1.0  0.40994  0.53622  0.88234  1.0000
  H   H196      1.0  0.37848  0.53091  0.96461  1.0000
  C   C116      1.0  0.47794  0.46865  0.58942  1.0000
  H   H197      1.0  0.43997  0.50649  0.58772  1.0000
  H   H198      1.0  0.30582  0.40357  0.82850  1.0000
  H   H199      1.0  0.44818  0.52913  0.90569  1.0000
  C   C117      1.0  0.26769  0.53729  0.66916  1.0000
  S   S51       1.0  0.41358  0.61059  0.05751  1.0000
  H   H200      1.0  0.26599  0.54139  0.89265  1.0000
  Fe  Fe26      1.0  0.33497  0.58913  0.59260  1.0000
  Fe  Fe27      1.0  0.27988  0.55805  0.78306  1.0000
  H   H201      1.0  0.28754  0.48369  0.63998  1.0000
  H   H202      1.0  0.49406  0.42040  0.65540  1.0000
  S   S52       1.0  0.28991  0.53768  0.83057  1.0000
  S   S53       1.0  0.38331  0.56425  0.60976  1.0000
  C   C118      1.0  0.44424  0.48135  0.58674  1.0000
  H   H203      1.0  0.53922  0.38830  0.68203  1.0000
  S   S54       1.0  0.19904  0.40757  0.79079  1.0000
  H   H204      1.0  0.32337  0.48520  0.70407  1.0000
  H   H205      1.0  0.37463  0.47554  0.89652  1.0000
  H   H206      1.0  0.25010  0.48333  0.03982  1.0000
  Fe  Fe28      1.0  0.34529  0.53586  0.81574  1.0000
  Fe  Fe29      1.0  0.30062  0.58702  0.84473  1.0000
  N   N13       1.0  0.40177  0.50947  0.92409  1.0000
  C   C119      1.0  0.30524  0.58590  0.94784  1.0000
  C   C120      1.0  0.31325  0.56241  0.96983  1.0000
  C   C121      1.0  0.23466  0.53990  0.01620  1.0000
  H   H207      1.0  0.30965  0.51614  0.62337  1.0000
  H   H208      1.0  0.31279  0.60979  0.95226  1.0000
  H   H209      1.0  0.32724  0.56834  0.99086  1.0000
  C   C122      1.0  0.45579  0.41635  0.58425  1.0000
  H   H210      1.0  0.44490  0.49488  0.95293  1.0000
  C   C123      1.0  0.24553  0.50234  0.05737  1.0000
  C   C124      1.0  0.52884  0.43272  0.04014  1.0000
  S   S55       1.0  0.28231  0.60686  0.89059  1.0000
  C   C125      1.0  0.41622  0.46152  0.58322  1.0000
  C   C126      1.0  0.38508  0.40577  0.77364  1.0000
  H   H211      1.0  0.55712  0.48906  0.04885  1.0000
  C   C127      1.0  0.22649  0.50532  0.75954  1.0000
  H   H212      1.0  0.52874  0.40722  0.03453  1.0000
  H   H213      1.0  0.42344  0.39443  0.01655  1.0000
  C   C128      1.0  0.31511  0.62128  0.66017  1.0000
  C   C129      1.0  0.28687  0.52397  0.93612  1.0000
  S   S56       1.0  0.23467  0.54489  0.75348  1.0000
  C   C130      1.0  0.36936  0.49618  0.91196  1.0000
  H   H214      1.0  0.41901  0.38906  0.81047  1.0000
  H   H215      1.0  0.53099  0.44554  0.01763  1.0000
  C   C131      1.0  0.28892  0.57826  0.91959  1.0000
  C   C132      1.0  0.27937  0.54733  0.91398  1.0000
  H   H216      1.0  0.40437  0.47812  0.96334  1.0000
  H   H217      1.0  0.24562  0.52125  0.66637  1.0000
  H   H218      1.0  0.35254  0.48834  0.93130  1.0000
  S   S57       1.0  0.35712  0.58400  0.83354  1.0000
  C   C133      1.0  0.40337  0.40845  0.80179  1.0000
  H   H219      1.0  0.32377  0.55762  0.69854  1.0000
  H   H220      1.0  0.42700  0.46432  0.92911  1.0000
  C   C134      1.0  0.34751  0.63090  0.71816  1.0000
  H   H221      1.0  0.27752  0.48187  0.69764  1.0000
  C   C135      1.0  0.30808  0.50098  0.64447  1.0000
  H   H222      1.0  0.37803  0.55516  0.93035  1.0000
  C   C136      1.0  0.43474  0.39803  0.03949  1.0000
  C   C137      1.0  0.30435  0.53133  0.96384  1.0000
  C   C138      1.0  0.42040  0.48564  0.94321  1.0000
  S   S58       1.0  0.28515  0.60782  0.79858  1.0000
  C   C139      1.0  0.21695  0.55176  0.06916  1.0000
  S   S59       1.0  0.32799  0.56164  0.05646  1.0000
  Fe  Fe30      1.0  0.38486  0.56638  0.06492  1.0000
  C   C140      1.0  0.59092  0.43331  0.04727  1.0000
  C   C141      1.0  0.29879  0.49880  0.70036  1.0000
  C   C142      1.0  0.32895  0.54210  0.67801  1.0000
  S   S60       1.0  0.33432  0.55142  0.76667  1.0000
  H   H223      1.0  0.29348  0.51245  0.72211  1.0000
  H   H224      1.0  0.22026  0.58081  0.85753  1.0000
  H   H225      1.0  0.27967  0.50003  0.93144  1.0000
  Fe  Fe31      1.0  0.34360  0.51643  0.03339  1.0000
  H   H226      1.0  0.45006  0.40815  0.65491  1.0000
  N   N14       1.0  0.30087  0.51975  0.67299  1.0000
  N   N15       1.0  0.55716  0.44048  0.06206  1.0000
  Fe  Fe32      1.0  0.34072  0.60000  0.78566  1.0000
  H   H227      1.0  0.35434  0.52988  0.68188  1.0000
  H   H228      1.0  0.26023  0.39632  0.82771  1.0000
  S   S61       1.0  0.40080  0.52318  0.03792  1.0000
  C   C143      1.0  0.48383  0.43616  0.58788  1.0000
  S   S62       1.0  0.52623  0.42090  0.59207  1.0000
  H   H229      1.0  0.41745  0.54875  0.95219  1.0000
  H   H230      1.0  0.43042  0.49817  0.88236  1.0000
  C   C144      1.0  0.47420  0.40809  0.66924  1.0000
  H   H231      1.0  0.26208  0.55253  0.68986  1.0000
  S   S63       1.0  0.46073  0.61294  0.57669  1.0000
  H   H232      1.0  0.59394  0.40794  0.04162  1.0000
  H   H233      1.0  0.33324  0.48781  0.64630  1.0000
  H   H234      1.0  0.31053  0.39261  0.77273  1.0000
  H   H235      1.0  0.19882  0.57066  0.06095  1.0000
  H   H236      1.0  0.33162  0.55763  0.65744  1.0000
  C   C145      1.0  0.39361  0.53732  0.94362  1.0000
  H   H237      1.0  0.50309  0.43890  0.05023  1.0000
  H   H238      1.0  0.46893  0.42235  0.69065  1.0000
  C   C146      1.0  0.42363  0.51868  0.89755  1.0000
  H   H239      1.0  0.23826  0.52150  0.99785  1.0000
  H   H240      1.0  0.27100  0.51251  0.06297  1.0000
  C   C147      1.0  0.42684  0.42558  0.05634  1.0000
  H   H241      1.0  0.61285  0.43907  0.06315  1.0000
  S   S64       1.0  0.37387  0.47691  0.58002  1.0000
  H   H242      1.0  0.51478  0.39034  0.71777  1.0000
  H   H243      1.0  0.20800  0.51713  0.82562  1.0000
  C   C148      1.0  0.42203  0.42900  0.58210  1.0000
  H   H244      1.0  0.21748  0.57432  0.81594  1.0000
  C   C149      1.0  0.29523  0.62475  0.68724  1.0000
  H   H245      1.0  0.45994  0.39129  0.58378  1.0000
  C   C150      1.0  0.20201  0.57949  0.83732  1.0000
  H   H246      1.0  0.49951  0.48409  0.59249  1.0000
  S   S65       1.0  0.36803  0.63349  0.75469  1.0000
  C   C151      1.0  0.31144  0.62957  0.71623  1.0000
  H   H247      1.0  0.36645  0.62152  0.64098  1.0000
  H   H248      1.0  0.29602  0.63190  0.73712  1.0000
  C   C152      1.0  0.35104  0.62368  0.66192  1.0000
  C   C153      1.0  0.28626  0.38491  0.83039  1.0000
  C   C154      1.0  0.36724  0.62801  0.69096  1.0000
  H   H249      1.0  0.39508  0.62786  0.69244  1.0000
  C   C155      1.0  0.55474  0.47420  0.07006  1.0000
  H   H250      1.0  0.26529  0.38494  0.76959  1.0000
  C   C156      1.0  0.34149  0.67016  0.09465  1.0000
  S   S66       1.0  0.26828  0.86992  0.37359  1.0000
  Fe  Fe33      1.0  0.36978  0.77505  0.09939  1.0000
  H   H251      1.0  0.42085  0.68351  0.22274  1.0000
  H   H252      1.0  0.32982  0.70284  0.20092  1.0000
  C   C157      1.0  0.35439  0.76979  0.47002  1.0000
  H   H253      1.0  0.38309  0.83075  0.49483  1.0000
  H   H254      1.0  0.36614  0.77490  0.54839  1.0000
  H   H255      1.0  0.38135  0.70269  0.23515  1.0000
  H   H256      1.0  0.46557  0.81321  0.45367  1.0000
  H   H257      1.0  0.30347  0.81023  0.23712  1.0000
  S   S67       1.0  0.42183  0.85078  0.08940  1.0000
  S   S68       1.0  0.35188  0.77095  0.28246  1.0000
  C   C158      1.0  0.39336  0.79289  0.19947  1.0000
  H   H258      1.0  0.43734  0.69585  0.50733  1.0000
  H   H259      1.0  0.42856  0.83287  0.43675  1.0000
  H   H260      1.0  0.39301  0.75126  0.50195  1.0000
  H   H261      1.0  0.36185  0.69791  0.48621  1.0000
  H   H262      1.0  0.35467  0.76180  0.21639  1.0000
  Fe  Fe34      1.0  0.36419  0.78873  0.39784  1.0000
  N   N16       1.0  0.40492  0.66573  0.48004  1.0000
  H   H263      1.0  0.21593  0.78279  0.08369  1.0000
  H   H264      1.0  0.33261  0.68681  0.16197  1.0000
  C   C159      1.0  0.35390  0.77828  0.52601  1.0000
  H   H265      1.0  0.40755  0.69753  0.15109  1.0000
  H   H266      1.0  0.23793  0.79442  0.29763  1.0000
  C   C160      1.0  0.27960  0.80532  0.07480  1.0000
  C   C161      1.0  0.37782  0.78771  0.25402  1.0000
  H   H267      1.0  0.22437  0.85201  0.29408  1.0000
  C   C162      1.0  0.29470  0.83124  0.25071  1.0000
  S   S69       1.0  0.35683  0.81928  0.12568  1.0000
  H   H268      1.0  0.24163  0.79887  0.22694  1.0000
  N   N17       1.0  0.37857  0.68009  0.19000  1.0000
  H   H269      1.0  0.49678  0.86075  0.20861  1.0000
  H   H270      1.0  0.40715  0.72000  0.20535  1.0000
  S   S70       1.0  0.33677  0.73318  0.10658  1.0000
  C   C163      1.0  0.49073  0.66974  0.57134  1.0000
  H   H271      1.0  0.55665  0.86054  0.14025  1.0000
  S   S71       1.0  0.42663  0.77611  0.10983  1.0000
  H   H272      1.0  0.56017  0.78575  0.09482  1.0000
  S   S72       1.0  0.37550  0.75508  0.43684  1.0000
  C   C164      1.0  0.36916  0.76473  0.49952  1.0000
  C   C165      1.0  0.43842  0.82098  0.45830  1.0000
  S   S73       1.0  0.31874  0.78704  0.36533  1.0000
  C   C166      1.0  0.39629  0.66003  0.44675  1.0000
  H   H273      1.0  0.38856  0.86450  0.47086  1.0000
  C   C167      1.0  0.37361  0.77896  0.22271  1.0000
  H   H274      1.0  0.39014  0.78582  0.17537  1.0000
  H   H275      1.0  0.51435  0.65649  0.56661  1.0000
  H   H276      1.0  0.42531  0.63984  0.51938  1.0000
  C   C168      1.0  0.35871  0.64272  0.08430  1.0000
  H   H277      1.0  0.51471  0.71456  0.56693  1.0000
  S   S74       1.0  0.40353  0.79360  0.36016  1.0000
  H   H278      1.0  0.37876  0.68119  0.52188  1.0000
  H   H279      1.0  0.24805  0.75179  0.08729  1.0000
  C   C169      1.0  0.37330  0.67616  0.49675  1.0000
  H   H280      1.0  0.59097  0.85000  0.11398  1.0000
  H   H281      1.0  0.35312  0.65795  0.49570  1.0000
  Fe  Fe35      1.0  0.35753  0.79649  0.32810  1.0000
  H   H282      1.0  0.42203  0.71230  0.47090  1.0000
  H   H283      1.0  0.51352  0.80323  0.13138  1.0000
  H   H284      1.0  0.44936  0.84038  0.53493  1.0000
  C   C170      1.0  0.45670  0.87002  0.48044  1.0000
  C   C171      1.0  0.44963  0.82502  0.51383  1.0000
  C   C172      1.0  0.56675  0.84152  0.12468  1.0000
  C   C173      1.0  0.32408  0.78815  0.46708  1.0000
  H   H285      1.0  0.24859  0.87585  0.26804  1.0000
  S   S75       1.0  0.35216  0.84882  0.33103  1.0000
  H   H286      1.0  0.43391  0.80419  0.51930  1.0000
  C   C174      1.0  0.19782  0.80462  0.35220  1.0000
  S   S76       1.0  0.35837  0.84028  0.40736  1.0000
  H   H287      1.0  0.31646  0.66872  0.10565  1.0000
  Fe  Fe36      1.0  0.31644  0.83936  0.37088  1.0000
  H   H288      1.0  0.42300  0.79958  0.46158  1.0000
  Fe  Fe37      1.0  0.39455  0.84530  0.36711  1.0000
  H   H289      1.0  0.24959  0.80483  0.37059  1.0000
  H   H290      1.0  0.37649  0.64158  0.44429  1.0000
  S   S77       1.0  0.44075  0.87574  0.37471  1.0000
  H   H291      1.0  0.28487  0.81533  0.49160  1.0000
  H   H292      1.0  0.39672  0.86657  0.51240  1.0000
  S   S78       1.0  0.30528  0.81405  0.55676  1.0000
  C   C175      1.0  0.41702  0.81593  0.20745  1.0000
  C   C176      1.0  0.22966  0.85167  0.36324  1.0000
  C   C177      1.0  0.22791  0.81903  0.36267  1.0000
  C   C178      1.0  0.42178  0.82421  0.23891  1.0000
  H   H293      1.0  0.41944  0.65216  0.43327  1.0000
  C   C179      1.0  0.23460  0.82020  0.24081  1.0000
  H   H294      1.0  0.57387  0.82094  0.13949  1.0000
  H   H295      1.0  0.35453  0.72207  0.17151  1.0000
  C   C180      1.0  0.39957  0.85141  0.49123  1.0000
  H   H296      1.0  0.50541  0.86124  0.24986  1.0000
  H   H297      1.0  0.44028  0.84167  0.24529  1.0000
  C   C181      1.0  0.40205  0.81018  0.26222  1.0000
  C   C182      1.0  0.43117  0.69025  0.48241  1.0000
  S   S79       1.0  0.43951  0.83507  0.17792  1.0000
  C   C183      1.0  0.35689  0.69931  0.09116  1.0000
  C   C184      1.0  0.36799  0.64948  0.20243  1.0000
  C   C185      1.0  0.41883  0.63646  0.49420  1.0000
  H   H298      1.0  0.48975  0.81583  0.09743  1.0000
  Fe  Fe38      1.0  0.41416  0.82234  0.13245  1.0000
  H   H299      1.0  0.40556  0.81680  0.28648  1.0000
  C   C186      1.0  0.30833  0.80114  0.49384  1.0000
  H   H300      1.0  0.47677  0.81652  0.51046  1.0000
  H   H301      1.0  0.45572  0.68275  0.47086  1.0000
  N   N18       1.0  0.43609  0.84186  0.48596  1.0000
  H   H302      1.0  0.31502  0.83563  0.26869  1.0000
  H   H303      1.0  0.44802  0.88241  0.45878  1.0000
  H   H304      1.0  0.38789  0.66059  0.14420  1.0000
  C   C187      1.0  0.32337  0.79635  0.52336  1.0000
  H   H305      1.0  0.31263  0.79222  0.44423  1.0000
  C   C188      1.0  0.34749  0.69872  0.18077  1.0000
  N   N19       1.0  0.26071  0.82639  0.26535  1.0000
  H   H306      1.0  0.29390  0.85159  0.23449  1.0000
  N   N20       1.0  0.54116  0.83329  0.10035  1.0000
  H   H307      1.0  0.49653  0.84276  0.12913  1.0000
  H   H308      1.0  0.38557  0.68170  0.43540  1.0000
  H   H309      1.0  0.28203  0.80365  0.30612  1.0000
  C   C189      1.0  0.50888  0.82339  0.11533  1.0000
  H   H310      1.0  0.48465  0.86384  0.47768  1.0000
  C   C190      1.0  0.39783  0.69727  0.21439  1.0000
  H   H311      1.0  0.23189  0.84017  0.22419  1.0000
  C   C191      1.0  0.66927  0.83016  0.10373  1.0000
  H   H312      1.0  0.64728  0.81541  0.10719  1.0000
  H   H313      1.0  0.42549  0.66240  0.16866  1.0000
  H   H314      1.0  0.35139  0.65242  0.22351  1.0000
  C   C192      1.0  0.40091  0.67496  0.16237  1.0000
  C   C193      1.0  0.25020  0.85475  0.28323  1.0000
  C   C194      1.0  0.26330  0.79933  0.28679  1.0000
  H   H315      1.0  0.26274  0.82186  0.08839  1.0000
  H   H316      1.0  0.27243  0.77769  0.27442  1.0000
  C   C195      1.0  0.55519  0.80731  0.08082  1.0000
  C   C196      1.0  0.38906  0.70107  0.07665  1.0000
  C   C197      1.0  0.66793  0.85370  0.08105  1.0000
  H   H317      1.0  0.29398  0.79016  0.09182  1.0000
  Fe  Fe39      1.0  0.36572  0.84301  0.07989  1.0000
  C   C198      1.0  0.49090  0.70257  0.57141  1.0000
  H   H318      1.0  0.26883  0.85970  0.30256  1.0000
  C   C199      1.0  0.20070  0.86992  0.35417  1.0000
  C   C200      1.0  0.53373  0.86093  0.08046  1.0000
  H   H319      1.0  0.35298  0.63610  0.18469  1.0000
  C   C201      1.0  0.51020  0.87376  0.22752  1.0000
  H   H320      1.0  0.40085  0.72349  0.07333  1.0000
  H   H321      1.0  0.53846  0.87221  0.22280  1.0000
  H   H322      1.0  0.20862  0.81647  0.25117  1.0000
  H   H323      1.0  0.39079  0.63457  0.20926  1.0000
  H   H324      1.0  0.52555  0.88176  0.09455  1.0000
  H   H325      1.0  0.19673  0.77930  0.35169  1.0000
  H   H326      1.0  0.20495  0.74321  0.65796  1.0000
  C   C202      1.0  0.37545  0.79440  0.77594  1.0000
  C   C203      1.0  0.24662  0.68195  0.83939  1.0000
  H   H327      1.0  0.22458  0.79393  0.01371  1.0000
  H   H328      1.0  0.27969  0.72415  0.80482  1.0000
  H   H329      1.0  0.30831  0.66645  0.86540  1.0000
  S   S80       1.0  0.37370  0.79839  0.05277  1.0000
  H   H330      1.0  0.45409  0.65014  0.68473  1.0000
  H   H331      1.0  0.28718  0.77205  0.77132  1.0000
  H   H332      1.0  0.29884  0.81952  0.06236  1.0000
  C   C204      1.0  0.35788  0.76056  0.73337  1.0000
  H   H333      1.0  0.25842  0.82171  0.01684  1.0000
  H   H334      1.0  0.27180  0.67997  0.64742  1.0000
  H   H335      1.0  0.20340  0.86129  0.76112  1.0000
  H   H336      1.0  0.29960  0.73142  0.64546  1.0000
  C   C205      1.0  0.21048  0.81100  0.75966  1.0000
  H   H337      1.0  0.24581  0.66066  0.85438  1.0000
  H   H338      1.0  0.26053  0.74892  0.62969  1.0000
  H   H339      1.0  0.23986  0.72586  0.88406  1.0000
  C   C206      1.0  0.26570  0.71383  0.88264  1.0000
  S   S81       1.0  0.36627  0.76519  0.61106  1.0000
  H   H340      1.0  0.26538  0.69351  0.89895  1.0000
  C   C207      1.0  0.37054  0.78918  0.74375  1.0000
  H   H341      1.0  0.28530  0.73041  0.89156  1.0000
  H   H342      1.0  0.32865  0.70300  0.85741  1.0000
  H   H343      1.0  0.41827  0.72045  0.72505  1.0000
  H   H344      1.0  0.22168  0.83841  0.87506  1.0000
  H   H345      1.0  0.55678  0.86736  0.06665  1.0000
  C   C208      1.0  0.30767  0.68722  0.84967  1.0000
  S   S82       1.0  0.32908  0.88148  0.06460  1.0000
  S   S83       1.0  0.35026  0.75340  0.69363  1.0000
  C   C209      1.0  0.24036  0.80745  0.03070  1.0000
  H   H346      1.0  0.22532  0.67792  0.96152  1.0000
  C   C210      1.0  0.27429  0.74259  0.65183  1.0000
  N   N21       1.0  0.27353  0.70355  0.85029  1.0000
  H   H347      1.0  0.37636  0.80726  0.72708  1.0000
  H   H348      1.0  0.29815  0.70200  0.69559  1.0000
  H   H349      1.0  0.43196  0.66451  0.71907  1.0000
  H   H350      1.0  0.25126  0.67418  0.81484  1.0000
  H   H351      1.0  0.49318  0.71034  0.67148  1.0000
  C   C211      1.0  0.26881  0.79141  0.76909  1.0000
  H   H352      1.0  0.40868  0.67444  0.65173  1.0000
  Fe  Fe40      1.0  0.36850  0.78770  0.65822  1.0000
  H   H353      1.0  0.29448  0.74785  0.83679  1.0000
  C   C212      1.0  0.27418  0.73115  0.82948  1.0000
  C   C213      1.0  0.24716  0.69230  0.65399  1.0000
  S   S84       1.0  0.22009  0.74712  0.76085  1.0000
  H   H354      1.0  0.31420  0.67876  0.82566  1.0000
  H   H355      1.0  0.47057  0.68735  0.64300  1.0000
  H   H356      1.0  0.43110  0.67518  0.05498  1.0000
  C   C214      1.0  0.20343  0.84359  0.85537  1.0000
  H   H357      1.0  0.38569  0.81627  0.78393  1.0000
  H   H358      1.0  0.46252  0.73033  0.71861  1.0000
  H   H359      1.0  0.27866  0.73577  0.71417  1.0000
  H   H360      1.0  0.38655  0.69062  0.68534  1.0000
  H   H361      1.0  0.22260  0.82396  0.04336  1.0000
  C   C215      1.0  0.23404  0.78578  0.76281  1.0000
  C   C216      1.0  0.40748  0.69476  0.66814  1.0000
  H   H362      1.0  0.35202  0.72337  0.80342  1.0000
  N   N22       1.0  0.44102  0.69940  0.68403  1.0000
  C   C217      1.0  0.46746  0.70669  0.66046  1.0000
  H   H363      1.0  0.28001  0.76479  0.66445  1.0000
  H   H364      1.0  0.32643  0.83877  0.95782  1.0000
  H   H365      1.0  0.46034  0.72838  0.64722  1.0000
  H   H366      1.0  0.43251  0.85478  0.02518  1.0000
  H   H367      1.0  0.26817  0.75064  0.01777  1.0000
  Fe  Fe41      1.0  0.35258  0.82660  0.84949  1.0000
  S   S85       1.0  0.37131  0.77784  0.83804  1.0000
  S   S86       1.0  0.46214  0.76094  0.57919  1.0000
  C   C218      1.0  0.31066  0.87519  0.02764  1.0000
  H   H368      1.0  0.35251  0.84577  0.01047  1.0000
  H   H369      1.0  0.69130  0.86281  0.00297  1.0000
  S   S87       1.0  0.36111  0.85282  0.89451  1.0000
  C   C219      1.0  0.32766  0.85657  0.00519  1.0000
  H   H370      1.0  0.24893  0.74420  0.82933  1.0000
  H   H371      1.0  0.45849  0.86622  0.59771  1.0000
  H   H372      1.0  0.54355  0.88199  0.87930  1.0000
  H   H373      1.0  0.47665  0.67317  0.71325  1.0000
  H   H374      1.0  0.57991  0.81360  0.06957  1.0000
  Fe  Fe42      1.0  0.30531  0.87667  0.82254  1.0000
  S   S88       1.0  0.36217  0.86740  0.81810  1.0000
  C   C220      1.0  0.27963  0.82204  0.77425  1.0000
  S   S89       1.0  0.42267  0.80453  0.65265  1.0000
  H   H375      1.0  0.30618  0.82588  0.78087  1.0000
  C   C221      1.0  0.22166  0.84185  0.76346  1.0000
  C   C222      1.0  0.28185  0.86828  0.96768  1.0000
  C   C223      1.0  0.32974  0.87109  0.72495  1.0000
  S   S90       1.0  0.26428  0.86573  0.92998  1.0000
  C   C224      1.0  0.46059  0.71987  0.57778  1.0000
  S   S91       1.0  0.34235  0.83251  0.64243  1.0000
  H   H376      1.0  0.23245  0.69699  0.63195  1.0000
  S   S92       1.0  0.19937  0.73335  0.99252  1.0000
  H   H377      1.0  0.53700  0.80123  0.06158  1.0000
  C   C225      1.0  0.25603  0.84728  0.77175  1.0000
  H   H378      1.0  0.33498  0.86136  0.74865  1.0000
  Fe  Fe43      1.0  0.30426  0.86420  0.89219  1.0000
  Fe  Fe44      1.0  0.34535  0.81133  0.59447  1.0000
  C   C226      1.0  0.31319  0.85305  0.97520  1.0000
  Fe  Fe45      1.0  0.41811  0.78563  0.60372  1.0000
  H   H379      1.0  0.23203  0.67575  0.66823  1.0000
  H   H380      1.0  0.21919  0.75260  0.05434  1.0000
  C   C227      1.0  0.52213  0.86642  0.98754  1.0000
  S   S93       1.0  0.29527  0.83385  0.85054  1.0000
  H   H381      1.0  0.54695  0.86943  0.97671  1.0000
  C   C228      1.0  0.27296  0.71413  0.70058  1.0000
  S   S94       1.0  0.63033  0.85809  0.05833  1.0000
  H   H382      1.0  0.30125  0.87479  0.72259  1.0000
  C   C229      1.0  0.45764  0.85797  0.01501  1.0000
  C   C230      1.0  0.22041  0.73740  0.67931  1.0000
  H   H383      1.0  0.30189  0.77871  0.02113  1.0000
  H   H384      1.0  0.39941  0.71575  0.65431  1.0000
  Fe  Fe46      1.0  0.39664  0.84785  0.63283  1.0000
  H   H385      1.0  0.40634  0.71715  0.58797  1.0000
  C   C231      1.0  0.36800  0.77093  0.79760  1.0000
  N   N23       1.0  0.25369  0.72159  0.67142  1.0000
  C   C232      1.0  0.35150  0.73675  0.75487  1.0000
  H   H386      1.0  0.34241  0.71429  0.74682  1.0000
  H   H387      1.0  0.22456  0.75969  0.69236  1.0000
  C   C233      1.0  0.35696  0.74183  0.78691  1.0000
  H   H388      1.0  0.68663  0.88099  0.96507  1.0000
  C   C234      1.0  0.42974  0.67127  0.58344  1.0000
  S   S95       1.0  0.47243  0.79719  0.03134  1.0000
  C   C235      1.0  0.48110  0.83264  0.01273  1.0000
  N   N24       1.0  0.25930  0.78641  0.05262  1.0000
  C   C236      1.0  0.43758  0.72561  0.70661  1.0000
  H   H389      1.0  0.53143  0.81723  0.99673  1.0000
  C   C237      1.0  0.51316  0.83675  0.99850  1.0000
  C   C238      1.0  0.45142  0.67052  0.70099  1.0000
  H   H390      1.0  0.25797  0.69876  0.71621  1.0000
  H   H391      1.0  0.22043  0.69330  0.84010  1.0000
  C   C239      1.0  0.39111  0.64450  0.07006  1.0000
  C   C240      1.0  0.20419  0.68769  0.94764  1.0000
  H   H392      1.0  0.21802  0.84112  0.83306  1.0000
  C   C241      1.0  0.46017  0.65403  0.57729  1.0000
  H   H393      1.0  0.29752  0.74901  0.05045  1.0000
  C   C242      1.0  0.28278  0.76528  0.03471  1.0000
  C   C243      1.0  0.40615  0.67371  0.06617  1.0000
  H   H394      1.0  0.42861  0.74758  0.69487  1.0000
  H   H395      1.0  0.20440  0.72250  0.69459  1.0000
  H   H396      1.0  0.51265  0.85635  0.06344  1.0000
  Fe  Fe47      1.0  0.42935  0.80416  0.06562  1.0000
  C   C244      1.0  0.23450  0.76761  0.07029  1.0000
  H   H397      1.0  0.33759  0.85277  0.70769  1.0000
  C   C245      1.0  0.42994  0.70414  0.58356  1.0000
  H   H398      1.0  0.39450  0.87619  0.70484  1.0000
  H   H399      1.0  0.20620  0.65049  0.91326  1.0000
  H   H400      1.0  0.40621  0.65935  0.58870  1.0000
  S   S96       1.0  0.39702  0.83036  0.58344  1.0000
  H   H401      1.0  0.61938  0.92436  0.15411  1.0000
  H   H402      1.0  0.39227  0.90439  0.33069  1.0000
  H   H403      1.0  0.68219  0.95980  0.19468  1.0000
  H   H404      1.0  0.39803  0.94897  0.29430  1.0000
  C   C246      1.0  0.41670  0.91593  0.32892  1.0000
  C   C247      1.0  0.41989  0.94140  0.30855  1.0000
  H   H405      1.0  0.62107  0.94746  0.10078  1.0000
  H   H406      1.0  0.41196  0.93800  0.43205  1.0000
  H   H407      1.0  0.50315  0.11818  0.33079  1.0000
  H   H408      1.0  0.51330  0.91175  0.27733  1.0000
  C   C248      1.0  0.45111  0.95721  0.30670  1.0000
  H   H409      1.0  0.48952  0.93952  0.44956  1.0000
  S   S97       1.0  0.45445  0.98862  0.28051  1.0000
  Fe  Fe48      1.0  0.57114  0.03709  0.29744  1.0000
  S   S98       1.0  0.52100  0.05742  0.27953  1.0000
  S   S99       1.0  0.59489  0.05870  0.34012  1.0000
  Fe  Fe49      1.0  0.57727  0.99025  0.24363  1.0000
  S   S100      1.0  0.52706  0.00661  0.22240  1.0000
  S   S101      1.0  0.60354  0.95261  0.21470  1.0000
  Fe  Fe50      1.0  0.54621  0.05441  0.23260  1.0000
  S   S102      1.0  0.54624  0.09310  0.19754  1.0000
  Fe  Fe51      1.0  0.50753  0.00711  0.27165  1.0000
  S   S103      1.0  0.59781  0.03846  0.25118  1.0000
  S   S104      1.0  0.55647  0.98670  0.29245  1.0000
  C   C249      1.0  0.65375  0.10292  0.27982  1.0000
  C   C250      1.0  0.58984  0.13095  0.12482  1.0000
  Fe  Fe52      1.0  0.50447  0.05790  0.49118  1.0000
  S   S105      1.0  0.54162  0.01694  0.49046  1.0000
  S   S106      1.0  0.48395  0.07822  0.44641  1.0000
  C   C251      1.0  0.42255  0.95859  0.44469  1.0000
  H   H410      1.0  0.50755  0.94778  0.25641  1.0000
  S   S107      1.0  0.49204  0.94683  0.52355  1.0000
  H   H411      1.0  0.40128  0.97651  0.44682  1.0000
  C   C252      1.0  0.52109  0.12391  0.21279  1.0000
  H   H412      1.0  0.48903  0.88583  0.55115  1.0000
  H   H413      1.0  0.47358  0.99167  0.46980  1.0000
  H   H414      1.0  0.48312  0.09413  0.23322  1.0000
  H   H415      1.0  0.69568  0.90973  0.14437  1.0000
  H   H416      1.0  0.69611  0.93658  0.22757  1.0000
  C   C253      1.0  0.47339  0.90183  0.56513  1.0000
  C   C254      1.0  0.44477  0.90612  0.34748  1.0000
  S   S108      1.0  0.46803  0.03658  0.52512  1.0000
  Fe  Fe53      1.0  0.50733  0.99728  0.52734  1.0000
  H   H417      1.0  0.54507  0.92340  0.24930  1.0000
  H   H418      1.0  0.62202  0.12513  0.33116  1.0000
  H   H419      1.0  0.47076  0.92553  0.41362  1.0000
  C   C255      1.0  0.56439  0.06269  0.37019  1.0000
  C   C256      1.0  0.52978  0.05550  0.36471  1.0000
  C   C257      1.0  0.50503  0.06078  0.38803  1.0000
  C   C258      1.0  0.51508  0.07203  0.41739  1.0000
  C   C259      1.0  0.54987  0.07812  0.42342  1.0000
  C   C260      1.0  0.57445  0.07393  0.39963  1.0000
  H   H420      1.0  0.52196  0.04567  0.34260  1.0000
  H   H421      1.0  0.47820  0.05563  0.38346  1.0000
  H   H422      1.0  0.55776  0.08650  0.44627  1.0000
  H   H423      1.0  0.60127  0.07916  0.40411  1.0000
  C   C261      1.0  0.60668  0.96834  0.17683  1.0000
  C   C262      1.0  0.61456  0.94921  0.15096  1.0000
  H   H424      1.0  0.48879  0.00825  0.43399  1.0000
  C   C263      1.0  0.60185  0.01346  0.14253  1.0000
  C   C264      1.0  0.60066  0.00043  0.17241  1.0000
  H   H425      1.0  0.67028  0.91957  0.19721  1.0000
  H   H426      1.0  0.64370  0.08411  0.29508  1.0000
  H   H427      1.0  0.59704  0.03830  0.13965  1.0000
  H   H428      1.0  0.59475  0.01550  0.19191  1.0000
  H   H429      1.0  0.65426  0.09374  0.25540  1.0000
  C   C265      1.0  0.47126  0.93365  0.55735  1.0000
  H   H430      1.0  0.50297  0.95994  0.32480  1.0000
  N   N25       1.0  0.49775  0.90672  0.22919  1.0000
  H   H431      1.0  0.68089  0.10688  0.28726  1.0000
  H   H432      1.0  0.42195  0.00061  0.39715  1.0000
  H   H433      1.0  0.58596  0.12444  0.14976  1.0000
  C   C266      1.0  0.48011  0.94679  0.42589  1.0000
  H   H434      1.0  0.20187  0.89524  0.35476  1.0000
  C   C267      1.0  0.61532  0.96226  0.12075  1.0000
  H   H435      1.0  0.44596  0.01767  0.44748  1.0000
  H   H436      1.0  0.49017  0.91016  0.17940  1.0000
  H   H437      1.0  0.53371  0.07988  0.09217  1.0000
  H   H438      1.0  0.44989  0.97897  0.57001  1.0000
  H   H439      1.0  0.49392  0.94704  0.19930  1.0000
  N   N26       1.0  0.63237  0.13200  0.28228  1.0000
  H   H440      1.0  0.48284  0.12508  0.38559  1.0000
  H   H441      1.0  0.50280  0.95528  0.41273  1.0000
  S   S109      1.0  0.62533  0.04888  0.52947  1.0000
  C   C268      1.0  0.68415  0.04125  0.56423  1.0000
  C   C269      1.0  0.51682  0.92307  0.25417  1.0000
  H   H442      1.0  0.59554  0.11669  0.24778  1.0000
  C   C270      1.0  0.49201  0.11784  0.23092  1.0000
  H   H443      1.0  0.46412  0.99007  0.38269  1.0000
  H   H444      1.0  0.58482  0.10744  0.28745  1.0000
  C   C271      1.0  0.44184  0.98134  0.39629  1.0000
  H   H445      1.0  0.54439  0.13380  0.37243  1.0000
  C   C272      1.0  0.69165  0.93601  0.20178  1.0000
  C   C273      1.0  0.59652  0.12554  0.27235  1.0000
  N   N27       1.0  0.56005  0.12193  0.10521  1.0000
  N   N28       1.0  0.45254  0.97127  0.42807  1.0000
  C   C274      1.0  0.47603  0.92187  0.34559  1.0000
  H   H446      1.0  0.45444  0.88695  0.50028  1.0000
  H   H447      1.0  0.43054  0.96171  0.38274  1.0000
  C   C275      1.0  0.47909  0.94752  0.32545  1.0000
  Fe  Fe54      1.0  0.56801  0.04136  0.53022  1.0000
  H   H448      1.0  0.61417  0.11908  0.11684  1.0000
  H   H449      1.0  0.42984  0.95099  0.46885  1.0000
  S   S110      1.0  0.53383  0.08438  0.52735  1.0000
  C   C276      1.0  0.60846  0.99443  0.11654  1.0000
  C   C277      1.0  0.46035  0.90787  0.23627  1.0000
  Fe  Fe55      1.0  0.50103  0.05930  0.56160  1.0000
  H   H450      1.0  0.52319  0.13150  0.14172  1.0000
  C   C278      1.0  0.46577  0.99840  0.44559  1.0000
  H   H451      1.0  0.45010  0.93249  0.23730  1.0000
  H   H452      1.0  0.50526  0.13159  0.10287  1.0000
  C   C279      1.0  0.55597  0.08760  0.10663  1.0000
  C   C280      1.0  0.50372  0.92228  0.19889  1.0000
  H   H453      1.0  0.44514  0.89524  0.21815  1.0000
  H   H454      1.0  0.53181  0.92283  0.19326  1.0000
  C   C281      1.0  0.64818  0.03865  0.56377  1.0000
  H   H455      1.0  0.67958  0.04064  0.47940  1.0000
  H   H456      1.0  0.68907  0.99379  0.44529  1.0000
  H   H457      1.0  0.49785  0.91442  0.35992  1.0000
  S   S111      1.0  0.53712  0.01779  0.56742  1.0000
  H   H458      1.0  0.45493  0.89710  0.25939  1.0000
  H   H459      1.0  0.57942  0.07476  0.09786  1.0000
  S   S112      1.0  0.60691  0.01129  0.07912  1.0000
  H   H460      1.0  0.55145  0.07967  0.13105  1.0000
  H   H461      1.0  0.40634  0.89329  0.97239  1.0000
  H   H462      1.0  0.44914  0.99521  0.69575  1.0000
  H   H463      1.0  0.46868  0.12233  0.82286  1.0000
  S   S113      1.0  0.40511  0.93100  0.87448  1.0000
  S   S114      1.0  0.57372  0.93241  0.04822  1.0000
  H   H464      1.0  0.67652  0.98950  0.71086  1.0000
  H   H465      1.0  0.56355  0.96271  0.85404  1.0000
  C   C282      1.0  0.68675  0.01819  0.61604  1.0000
  N   N29       1.0  0.37853  0.93718  0.96604  1.0000
  C   C283      1.0  0.45118  0.98519  0.79367  1.0000
  C   C284      1.0  0.44069  0.97873  0.84916  1.0000
  C   C285      1.0  0.42126  0.95217  0.84290  1.0000
  C   C286      1.0  0.41612  0.94249  0.81191  1.0000
  C   C287      1.0  0.43114  0.95898  0.78728  1.0000
  H   H466      1.0  0.40123  0.92202  0.80695  1.0000
  H   H467      1.0  0.42777  0.95116  0.76337  1.0000
  C   C288      1.0  0.50084  0.92911  0.89718  1.0000
  H   H468      1.0  0.49892  0.90826  0.91263  1.0000
  C   C289      1.0  0.34932  0.94931  0.94675  1.0000
  S   S115      1.0  0.47176  0.00449  0.76306  1.0000
  H   H469      1.0  0.46992  0.10268  0.66667  1.0000
  C   C290      1.0  0.53745  0.96011  0.86448  1.0000
  H   H470      1.0  0.32585  0.93498  0.94980  1.0000
  C   C291      1.0  0.38684  0.90449  0.95669  1.0000
  H   H471      1.0  0.49971  0.02971  0.69971  1.0000
  H   H472      1.0  0.35400  0.93487  0.68388  1.0000
  H   H473      1.0  0.52576  0.90129  0.84529  1.0000
  H   H474      1.0  0.35577  0.94877  0.92138  1.0000
  H   H475      1.0  0.40090  0.91555  0.71794  1.0000
  C   C292      1.0  0.67357  0.96676  0.85288  1.0000
  H   H476      1.0  0.49345  0.95002  0.91155  1.0000
  H   H477      1.0  0.44429  0.98661  0.87305  1.0000
  H   H478      1.0  0.22966  0.89780  0.83621  1.0000
  C   C293      1.0  0.56128  0.93415  0.91018  1.0000
  H   H479      1.0  0.48114  0.92677  0.87829  1.0000
  H   H480      1.0  0.51235  0.10876  0.70974  1.0000
  C   C294      1.0  0.63134  0.02734  0.59022  1.0000
  H   H481      1.0  0.59520  0.08573  0.64647  1.0000
  C   C295      1.0  0.45536  0.99534  0.82457  1.0000
  N   N30       1.0  0.34829  0.90053  0.72014  1.0000
  Fe  Fe56      1.0  0.58820  0.03225  0.80426  1.0000
  S   S116      1.0  0.53754  0.03609  0.82918  1.0000
  S   S117      1.0  0.63178  0.99744  0.81150  1.0000
  Fe  Fe57      1.0  0.56657  0.07978  0.75447  1.0000
  S   S118      1.0  0.51364  0.08748  0.77426  1.0000
  S   S119      1.0  0.58656  0.10257  0.71136  1.0000
  Fe  Fe58      1.0  0.54159  0.08795  0.82045  1.0000
  H   H482      1.0  0.38947  0.92806  0.01475  1.0000
  C   C296      1.0  0.43606  0.91128  0.60988  1.0000
  S   S120      1.0  0.59482  0.08402  0.79989  1.0000
  S   S121      1.0  0.56468  0.02774  0.75661  1.0000
  H   H483      1.0  0.63765  0.00740  0.63637  1.0000
  H   H484      1.0  0.58820  0.93552  0.90133  1.0000
  Fe  Fe59      1.0  0.63936  0.94876  0.98310  1.0000
  S   S122      1.0  0.67936  0.95081  0.94559  1.0000
  N   N31       1.0  0.49352  0.99289  0.66570  1.0000
  H   H485      1.0  0.31141  0.91893  0.68664  1.0000
  C   C297      1.0  0.67461  0.05249  0.71281  1.0000
  H   H486      1.0  0.53601  0.97954  0.63577  1.0000
  H   H487      1.0  0.52807  0.99637  0.70501  1.0000
  H   H488      1.0  0.51841  0.95929  0.84483  1.0000
  H   H489      1.0  0.46946  0.01628  0.82956  1.0000
  H   H490      1.0  0.34511  0.92437  0.00364  1.0000
  S   S123      1.0  0.59399  0.98133  0.99180  1.0000
  H   H491      1.0  0.49714  0.02484  0.62734  1.0000
  H   H492      1.0  0.67806  0.04297  0.68871  1.0000
  S   S124      1.0  0.47800  0.08544  0.60231  1.0000
  H   H493      1.0  0.45976  0.00108  0.62621  1.0000
  C   C298      1.0  0.54442  0.90377  0.86506  1.0000
  C   C299      1.0  0.43415  0.94318  0.60227  1.0000
  H   H494      1.0  0.60363  0.02585  0.59037  1.0000
  C   C300      1.0  0.64399  0.98593  0.84948  1.0000
  H   H495      1.0  0.57080  0.90507  0.85489  1.0000
  H   H496      1.0  0.54401  0.12506  0.05701  1.0000
  C   C301      1.0  0.66513  0.96495  0.90904  1.0000
  C   C302      1.0  0.63536  0.98413  0.90583  1.0000
  C   C303      1.0  0.62490  0.99487  0.87599  1.0000
  C   C304      1.0  0.68428  0.95658  0.88254  1.0000
  C   C305      1.0  0.51516  0.96876  0.64971  1.0000
  H   H497      1.0  0.62084  0.99115  0.92633  1.0000
  H   H498      1.0  0.60228  0.01006  0.87352  1.0000
  C   C306      1.0  0.55658  0.09785  0.68094  1.0000
  C   C307      1.0  0.52123  0.10223  0.68665  1.0000
  C   C308      1.0  0.49724  0.09889  0.66225  1.0000
  C   C309      1.0  0.50846  0.09023  0.63232  1.0000
  C   C310      1.0  0.54375  0.08505  0.62673  1.0000
  C   C311      1.0  0.56787  0.08944  0.65092  1.0000
  Fe  Fe60      1.0  0.62081  0.90422  0.03476  1.0000
  C   C312      1.0  0.33783  0.92365  0.74438  1.0000
  C   C313      1.0  0.65062  0.01715  0.61641  1.0000
  N   N32       1.0  0.68973  0.03101  0.73658  1.0000
  Fe  Fe61      1.0  0.56443  0.93704  0.99678  1.0000
  H   H499      1.0  0.39736  0.90313  0.93258  1.0000
  H   H500      1.0  0.64443  0.00287  0.73859  1.0000
  Fe  Fe62      1.0  0.51411  0.03533  0.78077  1.0000
  H   H501      1.0  0.58978  0.11948  0.06285  1.0000
  H   H502      1.0  0.47779  0.96243  0.70271  1.0000
  H   H503      1.0  0.55262  0.07805  0.60371  1.0000
  C   C314      1.0  0.33955  0.91322  0.68885  1.0000
  C   C315      1.0  0.40909  0.95673  0.96119  1.0000
  H   H504      1.0  0.69574  0.89066  0.05893  1.0000
  H   H505      1.0  0.34350  0.91472  0.76835  1.0000
  S   S125      1.0  0.65575  0.94513  0.03353  1.0000
  H   H506      1.0  0.52772  0.95242  0.66680  1.0000
  C   C316      1.0  0.46636  0.97756  0.68396  1.0000
  C   C317      1.0  0.47729  0.01387  0.64215  1.0000
  H   H507      1.0  0.30949  0.92893  0.74336  1.0000
  H   H508      1.0  0.46189  0.03321  0.65332  1.0000
  N   N33       1.0  0.53599  0.93180  0.88423  1.0000
  Fe  Fe63      1.0  0.60758  0.97370  0.04252  1.0000
  H   H509      1.0  0.41690  0.95681  0.93614  1.0000
  H   H510      1.0  0.44999  0.96255  0.66883  1.0000
  H   H511      1.0  0.44964  0.90752  0.00837  1.0000
  H   H512      1.0  0.36361  0.88984  0.95718  1.0000
  H   H513      1.0  0.53587  0.02380  0.67399  1.0000
  C   C318      1.0  0.38594  0.89408  0.72241  1.0000
  Fe  Fe64      1.0  0.36601  0.89457  0.86296  1.0000
  S   S126      1.0  0.60860  0.90506  0.98361  1.0000
  S   S127      1.0  0.51068  0.92952  0.97890  1.0000
  S   S128      1.0  0.41336  0.89729  0.64233  1.0000
  H   H514      1.0  0.41820  0.95905  0.61611  1.0000
  H   H515      1.0  0.34618  0.89609  0.67002  1.0000
  H   H516      1.0  0.35155  0.94610  0.74165  1.0000
  C   C319      1.0  0.45600  0.89070  0.59144  1.0000
  C   C320      1.0  0.51533  0.01150  0.68697  1.0000
  H   H517      1.0  0.49955  0.95442  0.63327  1.0000
  S   S129      1.0  0.30971  0.90808  0.86427  1.0000
  H   H518      1.0  0.53156  0.98174  0.87831  1.0000
  S   S130      1.0  0.53452  0.12706  0.85536  1.0000
  C   C321      1.0  0.67275  0.00040  0.73442  1.0000
  H   H519      1.0  0.34229  0.97395  0.95304  1.0000
  C   C322      1.0  0.68424  0.04456  0.76811  1.0000
  H   H520      1.0  0.40389  0.98149  0.96829  1.0000
  H   H521      1.0  0.55602  0.95533  0.92490  1.0000
  H   H522      1.0  0.68678  0.07581  0.71358  1.0000
  H   H523      1.0  0.43184  0.94793  0.97488  1.0000
  H   H524      1.0  0.56024  0.91349  0.92595  1.0000
  C   C323      1.0  0.46691  0.88768  0.00463  1.0000
  H   H525      1.0  0.64630  0.05630  0.71636  1.0000
  C   C324      1.0  0.36866  0.93811  0.99944  1.0000
  H   H526      1.0  0.36300  0.96248  0.00757  1.0000
  H   H527      1.0  0.26594  0.90454  0.03745  1.0000
  H   H528      1.0  0.65623  0.04846  0.77288  1.0000
  C   C325      1.0  0.26454  0.88634  0.99033  1.0000
  H   H529      1.0  0.20326  0.92315  0.86025  1.0000
  H   H530      1.0  0.69454  0.02862  0.78675  1.0000
  C   C326      1.0  0.21453  0.89902  0.85823  1.0000
  H   H531      1.0  0.24018  0.89800  0.98461  1.0000
  C   C327      1.0  0.45193  0.95442  0.57614  1.0000
  H   H532      1.0  0.23306  0.89558  0.87797  1.0000
  H   H533      1.0  0.68324  0.98367  0.75224  1.0000
  C   C328      1.0  0.27912  0.89006  0.02016  1.0000
  H   H534      1.0  0.68846  0.95987  0.83250  1.0000
  C   C329      1.0  0.49905  0.89196  0.99080  1.0000
  H   H535      1.0  0.54039  0.13203  0.58191  1.0000
  S   S131      1.0  0.26890  0.88496  0.78249  1.0000
  H   H536      1.0  0.39340  0.88508  0.74600  1.0000
  C   C330      1.0  0.56610  0.13127  0.07244  1.0000
  Fe  Fe65      1.0  0.77324  0.21386  0.31912  1.0000
  S   S132      1.0  0.75190  0.26036  0.33540  1.0000
  S   S133      1.0  0.74527  0.17872  0.28984  1.0000
  H   H537      1.0  0.71769  0.29072  0.53408  1.0000
  S   S134      1.0  0.82992  0.27265  0.36471  1.0000
  Fe  Fe66      1.0  0.78119  0.24996  0.37982  1.0000
  S   S135      1.0  0.75877  0.26223  0.42685  1.0000
  Fe  Fe67      1.0  0.80233  0.27895  0.31892  1.0000
  S   S136      1.0  0.80313  0.32476  0.29369  1.0000
  S   S137      1.0  0.79831  0.20154  0.36505  1.0000
  S   S138      1.0  0.82109  0.23324  0.29844  1.0000
  C   C331      1.0  0.74436  0.14394  0.31121  1.0000
  C   C332      1.0  0.93135  0.22627  0.34000  1.0000
  C   C333      1.0  0.72725  0.35158  0.10504  1.0000
  H   H538      1.0  0.90914  0.24833  0.39754  1.0000
  S   S139      1.0  0.86745  0.30702  0.10232  1.0000
  S   S140      1.0  0.86795  0.22783  0.53223  1.0000
  S   S141      1.0  0.89699  0.20238  0.35069  1.0000
  H   H539      1.0  0.03845  0.33423  0.26452  1.0000
  H   H540      1.0  0.92423  0.32517  0.45990  1.0000
  H   H541      1.0  0.90469  0.30314  0.37752  1.0000
  C   C334      1.0  0.78403  0.29669  0.18757  1.0000
  H   H542      1.0  0.73871  0.25122  0.17646  1.0000
  C   C335      1.0  0.02714  0.35554  0.25299  1.0000
  H   H543      1.0  0.91629  0.24146  0.43842  1.0000
  H   H544      1.0  0.86096  0.28271  0.27952  1.0000
  C   C336      1.0  0.92582  0.25795  0.33251  1.0000
  Fe  Fe68      1.0  0.88101  0.34054  0.14063  1.0000
  H   H545      1.0  0.74969  0.25562  0.24752  1.0000
  C   C337      1.0  0.95414  0.27712  0.32651  1.0000
  H   H546      1.0  0.72993  0.33172  0.20856  1.0000
  H   H547      1.0  0.87338  0.31355  0.40690  1.0000
  S   S142      1.0  0.06425  0.36868  0.32681  1.0000
  C   C338      1.0  0.78820  0.25198  0.45667  1.0000
  C   C339      1.0  0.81762  0.23376  0.44964  1.0000
  C   C340      1.0  0.84171  0.22619  0.47316  1.0000
  C   C341      1.0  0.83652  0.23685  0.50381  1.0000
  C   C342      1.0  0.80687  0.25480  0.51110  1.0000
  C   C343      1.0  0.78266  0.26237  0.48747  1.0000
  H   H548      1.0  0.82188  0.22546  0.42602  1.0000
  H   H549      1.0  0.86442  0.21200  0.46758  1.0000
  H   H550      1.0  0.80269  0.26286  0.53484  1.0000
  H   H551      1.0  0.75984  0.27638  0.49294  1.0000
  C   C344      1.0  0.83567  0.32589  0.26536  1.0000
  C   C345      1.0  0.72980  0.31884  0.10640  1.0000
  H   H552      1.0  0.78172  0.24283  0.21963  1.0000
  C   C346      1.0  0.85958  0.35037  0.21940  1.0000
  C   C347      1.0  0.83603  0.35081  0.24422  1.0000
  C   C348      1.0  0.91383  0.30126  0.45673  1.0000
  C   C349      1.0  0.79247  0.34504  0.54223  1.0000
  H   H553      1.0  0.95708  0.37273  0.20729  1.0000
  C   C350      1.0  0.71196  0.29930  0.55738  1.0000
  H   H554      1.0  0.70011  0.30233  0.41238  1.0000
  H   H555      1.0  0.73215  0.16716  0.35477  1.0000
  Fe  Fe69      1.0  0.07147  0.37854  0.37790  1.0000
  H   H556      1.0  0.94986  0.30161  0.32096  1.0000
  C   C351      1.0  0.85997  0.30127  0.26250  1.0000
  H   H557      1.0  0.89981  0.26773  0.33152  1.0000
  C   C352      1.0  0.97024  0.33429  0.25593  1.0000
  S   S143      1.0  0.82763  0.36159  0.14491  1.0000
  C   C353      1.0  0.88240  0.32479  0.21541  1.0000
  H   H558      1.0  0.90131  0.28106  0.23480  1.0000
  H   H559      1.0  0.92692  0.28559  0.47414  1.0000
  H   H560      1.0  0.75041  0.36527  0.10383  1.0000
  H   H561      1.0  0.85253  0.14632  0.35670  1.0000
  S   S144      1.0  0.76989  0.29904  0.10462  1.0000
  H   H562      1.0  0.79477  0.27679  0.17345  1.0000
  H   H563      1.0  0.87621  0.25896  0.42488  1.0000
  C   C354      1.0  0.73816  0.14502  0.34339  1.0000
  H   H564      1.0  0.88585  0.30241  0.46271  1.0000
  N   N34       1.0  0.75603  0.28667  0.20844  1.0000
  C   C355      1.0  0.74143  0.31430  0.22516  1.0000
  C   C356      1.0  0.72855  0.27200  0.18963  1.0000
  C   C357      1.0  0.77011  0.26383  0.23140  1.0000
  H   H565      1.0  0.86021  0.36997  0.20350  1.0000
  C   C358      1.0  0.69984  0.30129  0.10822  1.0000
  C   C359      1.0  0.98090  0.37743  0.22117  1.0000
  H   H566      1.0  0.02398  0.33569  0.19332  1.0000
  Fe  Fe70      1.0  0.81531  0.33079  0.10417  1.0000
  H   H567      1.0  0.70700  0.26407  0.20468  1.0000
  H   H568      1.0  0.91220  0.33523  0.40337  1.0000
  H   H569      1.0  0.82700  0.14768  0.28890  1.0000
  H   H570      1.0  0.86834  0.13994  0.27087  1.0000
  Fe  Fe71      1.0  0.84456  0.22526  0.34572  1.0000
  H   H571      1.0  0.79065  0.27439  0.24613  1.0000
  S   S145      1.0  0.90978  0.32272  0.18288  1.0000
  C   C360      1.0  0.88314  0.30057  0.23740  1.0000
  H   H572      1.0  0.96148  0.27938  0.39320  1.0000
  H   H573      1.0  0.70169  0.27598  0.10960  1.0000
  C   C361      1.0  0.95660  0.28800  0.41746  1.0000
  C   C362      1.0  0.90460  0.25822  0.42125  1.0000
  Fe  Fe72      1.0  0.99493  0.37679  0.39140  1.0000
  N   N35       1.0  0.91919  0.28973  0.42438  1.0000
  H   H574      1.0  0.76172  0.32649  0.23883  1.0000
  H   H575      1.0  0.80584  0.30675  0.20107  1.0000
  H   H576      1.0  0.86481  0.16671  0.30320  1.0000
  C   C363      1.0  0.90157  0.31131  0.40210  1.0000
  C   C364      1.0  0.85521  0.14422  0.29365  1.0000
  Fe  Fe73      1.0  0.02549  0.33374  0.34212  1.0000
  N   N36       1.0  0.99574  0.34827  0.23488  1.0000
  S   S146      1.0  0.02383  0.28694  0.31828  1.0000
  S   S147      1.0  0.03711  0.33993  0.39321  1.0000
  H   H577      1.0  0.01595  0.30357  0.21934  1.0000
  H   H578      1.0  0.96846  0.31141  0.41954  1.0000
  C   C365      1.0  0.83697  0.37780  0.56366  1.0000
  C   C366      1.0  0.96498  0.21359  0.34045  1.0000
  C   C367      1.0  0.99307  0.23240  0.33344  1.0000
  C   C368      1.0  0.98784  0.26425  0.32692  1.0000
  H   H579      1.0  0.96942  0.18914  0.34617  1.0000
  H   H580      1.0  0.01902  0.22232  0.33351  1.0000
  H   H581      1.0  0.81783  0.37030  0.24677  1.0000
  H   H582      1.0  0.76421  0.34122  0.53971  1.0000
  H   H583      1.0  0.97069  0.27182  0.43371  1.0000
  H   H584      1.0  0.71742  0.28869  0.17212  1.0000
  H   H585      1.0  0.81078  0.14219  0.54757  1.0000
  H   H586      1.0  0.98160  0.31968  0.19554  1.0000
  H   H587      1.0  0.96253  0.35078  0.27502  1.0000
  H   H588      1.0  0.77462  0.31495  0.17083  1.0000
  S   S148      1.0  0.98030  0.36727  0.34159  1.0000
  H   H589      1.0  0.94642  0.32821  0.24299  1.0000
  H   H590      1.0  0.04948  0.37241  0.48297  1.0000
  H   H591      1.0  0.98065  0.31238  0.26692  1.0000
  H   H592      1.0  0.72102  0.30751  0.24193  1.0000
  H   H593      1.0  0.06566  0.38215  0.44499  1.0000
  S   S149      1.0  0.95648  0.37747  0.43060  1.0000
  H   H594      1.0  0.80320  0.34737  0.51825  1.0000
  S   S150      1.0  0.90039  0.37677  0.10778  1.0000
  C   C369      1.0  0.00478  0.32580  0.20964  1.0000
  N   N37       1.0  0.79929  0.37296  0.56173  1.0000
  H   H595      1.0  0.84848  0.38090  0.54009  1.0000
  H   H596      1.0  0.02113  0.37300  0.27167  1.0000
  H   H597      1.0  0.04736  0.36553  0.23782  1.0000
  H   H598      1.0  0.88358  0.16189  0.56573  1.0000
  H   H599      1.0  0.80419  0.32342  0.55271  1.0000
  H   H600      1.0  0.90975  0.13661  0.33285  1.0000
  H   H601      1.0  0.84898  0.13687  0.52436  1.0000
  Fe  Fe74      1.0  0.92984  0.18790  0.85637  1.0000
  S   S151      1.0  0.87835  0.17452  0.87498  1.0000
  H   H602      1.0  0.80847  0.28310  0.04032  1.0000
  S   S152      1.0  0.85215  0.24726  0.85984  1.0000
  Fe  Fe75      1.0  0.87865  0.22127  0.89908  1.0000
  S   S153      1.0  0.85962  0.22425  0.94848  1.0000
  Fe  Fe76      1.0  0.85638  0.20136  0.83439  1.0000
  S   S154      1.0  0.81370  0.17900  0.80720  1.0000
  S   S155      1.0  0.93261  0.23240  0.88441  1.0000
  S   S156      1.0  0.90781  0.21106  0.81359  1.0000
  S   S157      1.0  0.83911  0.25675  0.66949  1.0000
  S   S158      1.0  0.83922  0.16313  0.66301  1.0000
  H   H603      1.0  0.76274  0.23952  0.97730  1.0000
  Fe  Fe77      1.0  0.85414  0.24214  0.58114  1.0000
  S   S159      1.0  0.90966  0.34254  0.02358  1.0000
  H   H604      1.0  0.03639  0.28237  0.86581  1.0000
  H   H605      1.0  0.78930  0.28048  0.75678  1.0000
  H   H606      1.0  0.81095  0.30806  0.00671  1.0000
  C   C370      1.0  0.72656  0.25658  0.76435  1.0000
  H   H607      1.0  0.04517  0.32760  0.00096  1.0000
  H   H608      1.0  0.00858  0.24641  0.71264  1.0000
  Fe  Fe78      1.0  0.90620  0.25469  0.84278  1.0000
  H   H609      1.0  0.86020  0.33408  0.65740  1.0000
  H   H610      1.0  0.90816  0.32904  0.95732  1.0000
  S   S160      1.0  0.80685  0.22528  0.60528  1.0000
  C   C371      1.0  0.72845  0.30516  0.61188  1.0000
  S   S161      1.0  0.92113  0.30025  0.82058  1.0000
  C   C372      1.0  0.92641  0.25437  0.73982  1.0000
  Fe  Fe79      1.0  0.80610  0.27227  0.62892  1.0000
  C   C373      1.0  0.87516  0.25675  0.96879  1.0000
  C   C374      1.0  0.88825  0.28243  0.95284  1.0000
  C   C375      1.0  0.89894  0.30887  0.96970  1.0000
  C   C376      1.0  0.89681  0.30943  0.00244  1.0000
  C   C377      1.0  0.88405  0.28359  0.01822  1.0000
  C   C378      1.0  0.87316  0.25735  0.00145  1.0000
  H   H611      1.0  0.88948  0.28216  0.92753  1.0000
  C   C379      1.0  0.73574  0.29389  0.58181  1.0000
  H   H612      1.0  0.88313  0.28348  0.04340  1.0000
  H   H613      1.0  0.86358  0.23731  0.01386  1.0000
  C   C380      1.0  0.82457  0.17247  0.76804  1.0000
  C   C381      1.0  0.84613  0.19301  0.75245  1.0000
  C   C382      1.0  0.85158  0.18958  0.72021  1.0000
  C   C383      1.0  0.83591  0.16530  0.70372  1.0000
  C   C384      1.0  0.81559  0.14392  0.71958  1.0000
  C   C385      1.0  0.80954  0.14776  0.75168  1.0000
  H   H614      1.0  0.85719  0.21247  0.76487  1.0000
  H   H615      1.0  0.86768  0.20581  0.70801  1.0000
  S   S162      1.0  0.82767  0.36686  0.06817  1.0000
  C   C386      1.0  0.01417  0.35827  0.93262  1.0000
  H   H616      1.0  0.72672  0.28243  0.76802  1.0000
  H   H617      1.0  0.96696  0.35328  0.64026  1.0000
  C   C387      1.0  0.91464  0.34007  0.64969  1.0000
  H   H618      1.0  0.02714  0.36607  0.99391  1.0000
  H   H619      1.0  0.80785  0.24801  0.73546  1.0000
  C   C388      1.0  0.78224  0.25401  0.98949  1.0000
  H   H620      1.0  0.79961  0.26340  0.97123  1.0000
  H   H621      1.0  0.97393  0.21756  0.76943  1.0000
  H   H622      1.0  0.99923  0.34955  0.91210  1.0000
  H   H623      1.0  0.78123  0.31750  0.03785  1.0000
  H   H624      1.0  0.97858  0.26598  0.84863  1.0000
  C   C389      1.0  0.98002  0.24379  0.71268  1.0000
  S   S163      1.0  0.89161  0.22488  0.61770  1.0000
  H   H625      1.0  0.96702  0.25333  0.79080  1.0000
  H   H626      1.0  0.97467  0.21831  0.71133  1.0000
  S   S164      1.0  0.92571  0.30117  0.65911  1.0000
  N   N38       1.0  0.76577  0.27952  0.00807  1.0000
  H   H627      1.0  0.02497  0.29658  0.92154  1.0000
  C   C390      1.0  0.79279  0.29788  0.02384  1.0000
  H   H628      1.0  0.99954  0.37856  0.94283  1.0000
  C   C391      1.0  0.74290  0.26602  0.03185  1.0000
  H   H629      1.0  0.76157  0.31081  0.96884  1.0000
  C   C392      1.0  0.87993  0.34998  0.65004  1.0000
  H   H630      1.0  0.06480  0.31488  0.93119  1.0000
  S   S165      1.0  0.84977  0.29090  0.60071  1.0000
  H   H631      1.0  0.70005  0.25041  0.75658  1.0000
  Fe  Fe80      1.0  0.84414  0.21127  0.64326  1.0000
  H   H632      1.0  0.03894  0.36718  0.92334  1.0000
  H   H633      1.0  0.72262  0.25142  0.02092  1.0000
  Fe  Fe81      1.0  0.88300  0.27202  0.63983  1.0000
  S   S166      1.0  0.75886  0.30066  0.64217  1.0000
  H   H634      1.0  0.97108  0.31234  0.94795  1.0000
  H   H635      1.0  0.75782  0.25108  0.04876  1.0000
  H   H636      1.0  0.79832  0.23804  0.00446  1.0000
  H   H637      1.0  0.91975  0.22915  0.73957  1.0000
  H   H638      1.0  0.91368  0.26539  0.76060  1.0000
  H   H639      1.0  0.74758  0.28794  0.71286  1.0000
  N   N39       1.0  0.96426  0.25837  0.74081  1.0000
  H   H640      1.0  0.77143  0.20348  0.71994  1.0000
  N   N40       1.0  0.75282  0.24636  0.74121  1.0000
  C   C393      1.0  0.97342  0.34226  0.82613  1.0000
  H   H641      1.0  0.04595  0.28792  0.95820  1.0000
  H   H642      1.0  0.00721  0.24626  0.77114  1.0000
  C   C394      1.0  0.01877  0.29922  0.85499  1.0000
  C   C395      1.0  0.94010  0.36096  0.64078  1.0000
  H   H643      1.0  0.97146  0.34115  0.97880  1.0000
  H   H644      1.0  0.79407  0.24273  0.77515  1.0000
  H   H645      1.0  0.91469  0.26544  0.71855  1.0000
  C   C396      1.0  0.78752  0.25480  0.75268  1.0000
  C   C397      1.0  0.98587  0.28996  0.84545  1.0000
  H   H646      1.0  0.96966  0.25478  0.69082  1.0000
  H   H647      1.0  0.01435  0.37545  0.83211  1.0000
  C   C398      1.0  0.97180  0.29217  0.74151  1.0000
  H   H648      1.0  0.75635  0.19946  0.75938  1.0000
  C   C399      1.0  0.74575  0.26199  0.71094  1.0000
  C   C400      1.0  0.75152  0.21203  0.73689  1.0000
  C   C401      1.0  0.74512  0.30026  0.98712  1.0000
  S   S167      1.0  0.97302  0.15371  0.84529  1.0000
  H   H649      1.0  0.95990  0.30392  0.76228  1.0000
  H   H650      1.0  0.73141  0.24530  0.78752  1.0000
  C   C402      1.0  0.97878  0.24318  0.76921  1.0000
  C   C403      1.0  0.98694  0.32198  0.96743  1.0000
  C   C404      1.0  0.03992  0.30697  0.94118  1.0000
  C   C405      1.0  0.00650  0.35156  0.83565  1.0000
  C   C406      1.0  0.96287  0.31156  0.83158  1.0000
  S   S168      1.0  0.06910  0.34146  0.86536  1.0000
  H   H651      1.0  0.96142  0.30427  0.72026  1.0000
  H   H652      1.0  0.73241  0.31982  0.00044  1.0000
  C   C407      1.0  0.04065  0.34568  0.98258  1.0000
  H   H653      1.0  0.06644  0.35366  0.97487  1.0000
  H   H654      1.0  0.00011  0.29613  0.74268  1.0000
  C   C408      1.0  0.02896  0.33009  0.85054  1.0000
  H   H655      1.0  0.95576  0.35901  0.81525  1.0000
  N   N41       1.0  0.02042  0.33325  0.95598  1.0000
  H   H656      1.0  0.72951  0.28473  0.04578  1.0000
  C   C409      1.0  0.86719  0.15033  0.58345  1.0000
  H   H657      1.0  0.99053  0.30302  0.98508  1.0000
  H   H658      1.0  0.88475  0.13514  0.79558  1.0000
  H   H659      1.0  0.84570  0.16706  0.58928  1.0000
  C   C410      1.0  0.69722  0.32137  0.61761  1.0000
  H   H660      1.0  0.94140  0.13795  0.90440  1.0000
  H   H661      1.0  0.79794  0.34761  0.60518  1.0000
  H   H662      1.0  0.85075  0.35764  0.57507  1.0000
  H   H663      1.0  0.72431  0.28720  0.97497  1.0000
  H   H664      1.0  0.72590  0.20480  0.72777  1.0000
  C   C411      1.0  0.87061  0.38054  0.64098  1.0000
  H   H665      1.0  0.75975  0.28125  0.57731  1.0000
  H   H666      1.0  0.76453  0.25409  0.69272  1.0000
  H   H667      1.0  0.88288  0.14698  0.60519  1.0000
  H   H668      1.0  0.71948  0.25687  0.70178  1.0000
  H   H669      1.0  0.97593  0.38039  0.74474  1.0000
  Fe  Fe82      1.0  0.88120  0.34566  0.06947  1.0000
  H   H670      1.0  0.92553  0.38206  0.70761  1.0000
  C   C412      1.0  0.78548  0.36830  0.59354  1.0000
  H   H671      1.0  0.75713  0.36429  0.59298  1.0000
  S   S169      1.0  0.83360  0.44705  0.11050  1.0000
  H   H672      1.0  0.11319  0.43490  0.49820  1.0000
  H   H673      1.0  0.99502  0.46603  0.23292  1.0000
  H   H674      1.0  0.90838  0.59670  0.53962  1.0000
  H   H675      1.0  0.97375  0.39485  0.23971  1.0000
  H   H676      1.0  0.84317  0.51196  0.09835  1.0000
  H   H677      1.0  0.16191  0.45611  0.25672  1.0000
  C   C413      1.0  0.90103  0.45847  0.12794  1.0000
  H   H678      1.0  0.93799  0.44844  0.51870  1.0000
  H   H679      1.0  0.90252  0.43481  0.13661  1.0000
  C   C414      1.0  0.94538  0.44639  0.49445  1.0000
  H   H680      1.0  0.05603  0.57859  0.08538  1.0000
  H   H681      1.0  0.99963  0.38884  0.20542  1.0000
  C   C415      1.0  0.94283  0.41752  0.47899  1.0000
  C   C416      1.0  0.86962  0.47081  0.11630  1.0000
  C   C417      1.0  0.93056  0.47702  0.12879  1.0000
  C   C418      1.0  0.86741  0.50221  0.10713  1.0000
  H   H682      1.0  0.02336  0.39556  0.45657  1.0000
  C   C419      1.0  0.18538  0.40336  0.37536  1.0000
  H   H683      1.0  0.05439  0.45333  0.51527  1.0000
  C   C420      1.0  0.92842  0.50819  0.11877  1.0000
  H   H684      1.0  0.01701  0.43598  0.49826  1.0000
  H   H685      1.0  0.19326  0.53556  0.23397  1.0000
  H   H686      1.0  0.86926  0.60620  0.46042  1.0000
  H   H687      1.0  0.95364  0.42358  0.08433  1.0000
  C   C421      1.0  0.13370  0.50424  0.22583  1.0000
  C   C422      1.0  0.89667  0.52089  0.10854  1.0000
  H   H688      1.0  0.13137  0.52935  0.21906  1.0000
  H   H689      1.0  0.93425  0.39721  0.49159  1.0000
  S   S170      1.0  0.10571  0.47014  0.08993  1.0000
  H   H690      1.0  0.87078  0.61011  0.51841  1.0000
  N   N42       1.0  0.91068  0.58885  0.48986  1.0000
  C   C423      1.0  0.96350  0.44105  0.43139  1.0000
  Fe  Fe83      1.0  0.01974  0.40314  0.33006  1.0000
  H   H691      1.0  0.90625  0.59063  0.43970  1.0000
  Fe  Fe84      1.0  0.01599  0.50642  0.11028  1.0000
  H   H692      1.0  0.10240  0.39506  0.50650  1.0000
  S   S171      1.0  0.00528  0.43914  0.29376  1.0000
  H   H693      1.0  0.75362  0.39805  0.54591  1.0000
  H   H694      1.0  0.07508  0.41559  0.28297  1.0000
  H   H695      1.0  0.02819  0.63099  0.07871  1.0000
  C   C424      1.0  0.08531  0.42464  0.23448  1.0000
  H   H696      1.0  0.03792  0.44997  0.44527  1.0000
  H   H697      1.0  0.07534  0.46702  0.46269  1.0000
  C   C425      1.0  0.10114  0.41361  0.48825  1.0000
  C   C426      1.0  0.03234  0.44025  0.26099  1.0000
  S   S172      1.0  0.12768  0.55776  0.08112  1.0000
  C   C427      1.0  0.02034  0.45465  0.23346  1.0000
  H   H698      1.0  0.11533  0.49125  0.21077  1.0000
  H   H699      1.0  0.79184  0.40501  0.52342  1.0000
  C   C428      1.0  0.05025  0.39130  0.46514  1.0000
  H   H700      1.0  0.86784  0.55769  0.49239  1.0000
  H   H701      1.0  0.17870  0.51845  0.18042  1.0000
  C   C429      1.0  0.06517  0.42587  0.26163  1.0000
  C   C430      1.0  0.89943  0.60766  0.51728  1.0000
  S   S173      1.0  0.02555  0.45437  0.11029  1.0000
  C   C431      1.0  0.15496  0.44322  0.33076  1.0000
  H   H702      1.0  0.15600  0.44362  0.21688  1.0000
  H   H703      1.0  0.90512  0.54199  0.47201  1.0000
  H   H704      1.0  0.95826  0.57183  0.46932  1.0000
  H   H705      1.0  0.10628  0.42938  0.35000  1.0000
  N   N43       1.0  0.06511  0.42022  0.47810  1.0000
  C   C432      1.0  0.13412  0.42660  0.35134  1.0000
  H   H706      1.0  0.11023  0.41263  0.23497  1.0000
  C   C433      1.0  0.07316  0.43873  0.20687  1.0000
  S   S174      1.0  0.09926  0.43798  0.17347  1.0000
  C   C434      1.0  0.78216  0.40082  0.54750  1.0000
  C   C435      1.0  0.14930  0.40685  0.37385  1.0000
  Fe  Fe85      1.0  0.96611  0.49801  0.55113  1.0000
  S   S175      1.0  0.03025  0.41605  0.38008  1.0000
  H   H707      1.0  0.08029  0.43721  0.43299  1.0000
  C   C436      1.0  0.06471  0.44471  0.45371  1.0000
  H   H708      1.0  0.90577  0.54501  0.51373  1.0000
  C   C437      1.0  0.05605  0.62841  0.07743  1.0000
  H   H709      1.0  0.96956  0.43929  0.40681  1.0000
  H   H710      1.0  0.12462  0.50205  0.25040  1.0000
  H   H711      1.0  0.95478  0.46741  0.13766  1.0000
  C   C438      1.0  0.95308  0.41464  0.44776  1.0000
  C   C439      1.0  0.94885  0.58658  0.48924  1.0000
  H   H712      1.0  0.96041  0.61011  0.48699  1.0000
  C   C440      1.0  0.89799  0.60414  0.46086  1.0000
  C   C441      1.0  0.10772  0.59501  0.07873  1.0000
  H   H713      1.0  0.14298  0.45887  0.31381  1.0000
  N   N44       1.0  0.16951  0.49191  0.22220  1.0000
  C   C442      1.0  0.89658  0.55705  0.49203  1.0000
  C   C443      1.0  0.17158  0.45884  0.23240  1.0000
  C   C444      1.0  0.04079  0.45401  0.20642  1.0000
  S   S176      1.0  0.96509  0.53154  0.11753  1.0000
  C   C445      1.0  0.07180  0.59866  0.08100  1.0000
  S   S177      1.0  0.96912  0.50603  0.49941  1.0000
  H   H714      1.0  0.97610  0.48986  0.43458  1.0000
  H   H715      1.0  0.78695  0.42235  0.56159  1.0000
  S   S178      1.0  0.06343  0.51755  0.13839  1.0000
  H   H716      1.0  0.04427  0.41347  0.52421  1.0000
  H   H717      1.0  0.11739  0.40528  0.46824  1.0000
  H   H718      1.0  0.95938  0.57553  0.51099  1.0000
  C   C446      1.0  0.96653  0.46979  0.44696  1.0000
  C   C447      1.0  0.95870  0.47212  0.47878  1.0000
  H   H719      1.0  0.03134  0.46518  0.18524  1.0000
  Fe  Fe86      1.0  0.07545  0.46603  0.13423  1.0000
  H   H720      1.0  0.98231  0.58398  0.57030  1.0000
  H   H721      1.0  0.99489  0.62476  0.53154  1.0000
  C   C448      1.0  0.97760  0.63003  0.55076  1.0000
  H   H722      1.0  0.16192  0.48014  0.17368  1.0000
  C   C449      1.0  0.04437  0.43120  0.50517  1.0000
  Fe  Fe87      1.0  0.08920  0.52077  0.09176  1.0000
  H   H723      1.0  0.89488  0.54506  0.10101  1.0000
  C   C450      1.0  0.17964  0.49382  0.18893  1.0000
  H   H724      1.0  0.90819  0.62825  0.45869  1.0000
  H   H725      1.0  0.18263  0.50663  0.41950  1.0000
  H   H726      1.0  0.18542  0.51036  0.26673  1.0000
  C   C451      1.0  0.19103  0.43963  0.33207  1.0000
  Fe  Fe88      1.0  0.84586  0.39548  0.10901  1.0000
  H   H727      1.0  0.90997  0.63174  0.51659  1.0000
  S   S179      1.0  0.12323  0.38678  0.40026  1.0000
  H   H728      1.0  0.19112  0.48486  0.38414  1.0000
  C   C452      1.0  0.19312  0.51068  0.24165  1.0000
  H   H729      1.0  0.19314  0.46529  0.42110  1.0000
  C   C453      1.0  0.12790  0.62125  0.07360  1.0000
  C   C454      1.0  0.95187  0.42441  0.00476  1.0000
  C   C455      1.0  0.89585  0.40113  0.63095  1.0000
  N   N45       1.0  0.95443  0.42186  0.72284  1.0000
  H   H730      1.0  0.98371  0.46949  0.03713  1.0000
  H   H731      1.0  0.08780  0.42774  0.91632  1.0000
  H   H732      1.0  0.94266  0.48466  0.02327  1.0000
  H   H733      1.0  0.16742  0.54794  0.79296  1.0000
  N   N46       1.0  0.94303  0.43599  0.03644  1.0000
  S   S180      1.0  0.88303  0.43870  0.61829  1.0000
  C   C456      1.0  0.94772  0.45516  0.73095  1.0000
  S   S181      1.0  0.97256  0.45229  0.57654  1.0000
  H   H734      1.0  0.96707  0.43244  0.67509  1.0000
  H   H735      1.0  0.03312  0.60980  0.66257  1.0000
  H   H736      1.0  0.12557  0.60513  0.96281  1.0000
  H   H737      1.0  0.98856  0.41545  0.05791  1.0000
  H   H738      1.0  0.13493  0.54597  0.87458  1.0000
  H   H739      1.0  0.93953  0.43934  0.98634  1.0000
  C   C457      1.0  0.19391  0.49369  0.75246  1.0000
  C   C458      1.0  0.95994  0.41555  0.06013  1.0000
  H   H740      1.0  0.18940  0.49305  0.02161  1.0000
  H   H741      1.0  0.92926  0.45771  0.75072  1.0000
  S   S182      1.0  0.00184  0.52385  0.58290  1.0000
  Fe  Fe89      1.0  0.92690  0.46932  0.60451  1.0000
  H   H742      1.0  0.89140  0.45090  0.02331  1.0000
  S   S183      1.0  0.13926  0.40365  0.86269  1.0000
  C   C459      1.0  0.07060  0.42974  0.96395  1.0000
  C   C460      1.0  0.03498  0.49062  0.68363  1.0000
  H   H743      1.0  0.97188  0.46680  0.73833  1.0000
  C   C461      1.0  0.07341  0.44555  0.69037  1.0000
  S   S184      1.0  0.12479  0.48418  0.90598  1.0000
  H   H744      1.0  0.08369  0.61091  0.00753  1.0000
  C   C462      1.0  0.94885  0.61365  0.59812  1.0000
  Fe  Fe90      1.0  0.07465  0.44342  0.80527  1.0000
  S   S185      1.0  0.05277  0.45886  0.63033  1.0000
  H   H745      1.0  0.16040  0.45427  0.75607  1.0000
  S   S186      1.0  0.12526  0.46467  0.81746  1.0000
  S   S187      1.0  0.04897  0.43143  0.02441  1.0000
  C   C463      1.0  0.90513  0.43552  0.04053  1.0000
  C   C464      1.0  0.04789  0.47124  0.73579  1.0000
  C   C465      1.0  0.08786  0.44107  0.93782  1.0000
  C   C466      1.0  0.10510  0.46944  0.93956  1.0000
  H   H746      1.0  0.08316  0.43145  0.73811  1.0000
  H   H747      1.0  0.08908  0.42674  0.68040  1.0000
  H   H748      1.0  0.98327  0.39505  0.68857  1.0000
  C   C467      1.0  0.15269  0.55412  0.81457  1.0000
  C   C468      1.0  0.07117  0.44625  0.99222  1.0000
  H   H749      1.0  0.95392  0.40715  0.77099  1.0000
  Fe  Fe91      1.0  0.11333  0.45094  0.86649  1.0000
  H   H750      1.0  0.89754  0.44389  0.06421  1.0000
  C   C469      1.0  0.06999  0.44816  0.72302  1.0000
  H   H751      1.0  0.17579  0.50279  0.06076  1.0000
  S   S188      1.0  0.06036  0.43367  0.85499  1.0000
  H   H752      1.0  0.13926  0.57710  0.81039  1.0000
  H   H753      1.0  0.93684  0.46852  0.71066  1.0000
  C   C470      1.0  0.05482  0.46610  0.67068  1.0000
  H   H754      1.0  0.95166  0.39086  0.05768  1.0000
  Fe  Fe92      1.0  0.14674  0.41568  0.81229  1.0000
  C   C471      1.0  0.95521  0.46836  0.04036  1.0000
  S   S189      1.0  0.03702  0.47087  0.77552  1.0000
  C   C472      1.0  0.19307  0.52447  0.84675  1.0000
  H   H755      1.0  0.95030  0.40722  0.62347  1.0000
  H   H756      1.0  0.14216  0.58699  0.86788  1.0000
  S   S190      1.0  0.04088  0.51403  0.06372  1.0000
  H   H757      1.0  0.94944  0.47765  0.06418  1.0000
  Fe  Fe93      1.0  0.05484  0.46296  0.06613  1.0000
  H   H758      1.0  0.13251  0.53619  0.81747  1.0000
  S   S191      1.0  0.09693  0.39526  0.79563  1.0000
  C   C473      1.0  0.97797  0.41977  0.69575  1.0000
  C   C474      1.0  0.08914  0.47431  0.99436  1.0000
  H   H759      1.0  0.05676  0.40823  0.96216  1.0000
  C   C475      1.0  0.10597  0.48601  0.96793  1.0000
  Fe  Fe94      1.0  0.95355  0.53577  0.60961  1.0000
  S   S192      1.0  0.94007  0.58473  0.62595  1.0000
  H   H760      1.0  0.90320  0.40761  0.73473  1.0000
  C   C476      1.0  0.03132  0.49308  0.71613  1.0000
  H   H761      1.0  0.02199  0.50745  0.66857  1.0000
  H   H762      1.0  0.01481  0.51138  0.72597  1.0000
  S   S193      1.0  0.95791  0.49381  0.64112  1.0000
  C   C477      1.0  0.01333  0.62832  0.66811  1.0000
  H   H763      1.0  0.18981  0.60323  0.83440  1.0000
  C   C478      1.0  0.18719  0.51245  0.03904  1.0000
  S   S194      1.0  0.91765  0.51270  0.57589  1.0000
  H   H764      1.0  0.08991  0.48709  0.01624  1.0000
  H   H765      1.0  0.16816  0.53009  0.02972  1.0000
  Fe  Fe95      1.0  0.00337  0.47989  0.61113  1.0000
  H   H766      1.0  0.11942  0.50789  0.96941  1.0000
  C   C479      1.0  0.18598  0.46298  0.76077  1.0000
  H   H767      1.0  0.17434  0.50868  0.74161  1.0000
  H   H768      1.0  0.00874  0.62797  0.69382  1.0000
  H   H769      1.0  0.84377  0.38818  0.64156  1.0000
  H   H770      1.0  0.78992  0.38902  0.60882  1.0000
  H   H771      1.0  0.17400  0.50595  0.85149  1.0000
  H   H772      1.0  0.84291  0.39911  0.57765  1.0000
  H   H773      1.0  0.98030  0.42442  0.00090  1.0000
  H   H774      1.0  0.99582  0.41624  0.75637  1.0000
  C   C480      1.0  0.11075  0.62406  0.95041  1.0000
  H   H775      1.0  0.89512  0.41140  0.03779  1.0000
  C   C481      1.0  0.15523  0.56356  0.87034  1.0000
  N   N47       1.0  0.17576  0.55541  0.84225  1.0000
  H   H776      1.0  0.17187  0.56426  0.89167  1.0000
  C   C482      1.0  0.93066  0.39143  0.63111  1.0000
  H   H777      1.0  0.00324  0.43031  0.70125  1.0000
  C   C483      1.0  0.06980  0.62875  0.99283  1.0000
  H   H778      1.0  0.98885  0.62151  0.65647  1.0000
  H   H779      1.0  0.94306  0.40000  0.00117  1.0000
  C   C484      1.0  0.97066  0.40562  0.74991  1.0000
  H   H780      1.0  0.05005  0.61643  0.97866  1.0000
  C   C485      1.0  0.92142  0.40701  0.71467  1.0000
  H   H781      1.0  0.09141  0.61274  0.93493  1.0000
  Fe  Fe96      1.0  0.08733  0.38731  0.84674  1.0000
  H   H782      1.0  0.90835  0.41926  0.69470  1.0000
  C   C486      1.0  0.97064  0.60692  0.57287  1.0000
  H   H783      1.0  0.15572  0.61861  0.07213  1.0000
  H   H784      1.0  0.84596  0.84950  0.33232  1.0000
  S   S195      1.0  0.94762  0.77875  0.53805  1.0000
  H   H785      1.0  0.83869  0.85845  0.29157  1.0000
  H   H786      1.0  0.01004  0.80179  0.10833  1.0000
  S   S196      1.0  0.76541  0.83629  0.13926  1.0000
  C   C487      1.0  0.10983  0.84037  0.41395  1.0000
  S   S197      1.0  0.86556  0.84330  0.13453  1.0000
  H   H787      1.0  0.74959  0.88084  0.08977  1.0000
  H   H788      1.0  0.88976  0.82460  0.27810  1.0000
  H   H789      1.0  0.13157  0.84989  0.42797  1.0000
  H   H790      1.0  0.80119  0.88240  0.22714  1.0000
  H   H791      1.0  0.93698  0.87639  0.33362  1.0000
  H   H792      1.0  0.01030  0.87989  0.44281  1.0000
  H   H793      1.0  0.06506  0.77278  0.41157  1.0000
  C   C488      1.0  0.91185  0.85783  0.51529  1.0000
  H   H794      1.0  0.14014  0.78588  0.39557  1.0000
  N   N48       1.0  0.89075  0.86536  0.30792  1.0000
  H   H795      1.0  0.89789  0.81647  0.31890  1.0000
  Fe  Fe97      1.0  0.81236  0.85549  0.11676  1.0000
  H   H796      1.0  0.88664  0.84715  0.50943  1.0000
  C   C489      1.0  0.90283  0.83328  0.29962  1.0000
  Fe  Fe98      1.0  0.88029  0.84080  0.08387  1.0000
  C   C490      1.0  0.85297  0.86560  0.31306  1.0000
  H   H797      1.0  0.91774  0.85239  0.54027  1.0000
  H   H798      1.0  0.88539  0.88007  0.25995  1.0000
  C   C491      1.0  0.72818  0.84340  0.11670  1.0000
  N   N49       1.0  0.10120  0.80842  0.42406  1.0000
  C   C492      1.0  0.84566  0.83726  0.56906  1.0000
  S   S198      1.0  0.15356  0.80130  0.12641  1.0000
  H   H799      1.0  0.14296  0.80144  0.19312  1.0000
  H   H800      1.0  0.99957  0.71586  0.11503  1.0000
  H   H801      1.0  0.95919  0.77942  0.40986  1.0000
  C   C493      1.0  0.96968  0.75369  0.15890  1.0000
  Fe  Fe99      1.0  0.13363  0.78306  0.08051  1.0000
  H   H802      1.0  0.96457  0.79796  0.11454  1.0000
  H   H803      1.0  0.05174  0.76545  0.13425  1.0000
  H   H804      1.0  0.04918  0.81217  0.40637  1.0000
  S   S199      1.0  0.00104  0.87481  0.28952  1.0000
  C   C494      1.0  0.69911  0.82540  0.12190  1.0000
  Fe  Fe100     1.0  0.98014  0.73471  0.54398  1.0000
  S   S200      1.0  0.96886  0.68734  0.52379  1.0000
  S   S201      1.0  0.03035  0.75703  0.53193  1.0000
  H   H805      1.0  0.99159  0.81123  0.14594  1.0000
  H   H806      1.0  0.88150  0.79769  0.57018  1.0000
  C   C495      1.0  0.90850  0.87555  0.33687  1.0000
  N   N50       1.0  0.99637  0.76192  0.13593  1.0000
  C   C496      1.0  0.07259  0.79671  0.40447  1.0000
  C   C497      1.0  0.99418  0.74076  0.10853  1.0000
  H   H807      1.0  0.08259  0.78580  0.46552  1.0000
  H   H808      1.0  0.93207  0.84578  0.50091  1.0000
  H   H809      1.0  0.71477  0.87691  0.18840  1.0000
  H   H810      1.0  0.70003  0.80715  0.13944  1.0000
  H   H811      1.0  0.97468  0.78821  0.46577  1.0000
  H   H812      1.0  0.97317  0.72903  0.16693  1.0000
  H   H813      1.0  0.08727  0.85690  0.41643  1.0000
  C   C498      1.0  0.03098  0.75860  0.15061  1.0000
  H   H814      1.0  0.97070  0.76919  0.17994  1.0000
  H   H815      1.0  0.12642  0.76319  0.42834  1.0000
  H   H816      1.0  0.96806  0.74214  0.09745  1.0000
  H   H817      1.0  0.01328  0.74681  0.09027  1.0000
  H   H818      1.0  0.94322  0.75624  0.14859  1.0000
  H   H819      1.0  0.84241  0.88232  0.18336  1.0000
  C   C499      1.0  0.99043  0.79468  0.12575  1.0000
  H   H820      1.0  0.93123  0.83231  0.29540  1.0000
  Fe  Fe101     1.0  0.08729  0.83388  0.31332  1.0000
  C   C500      1.0  0.17056  0.85549  0.34340  1.0000
  H   H821      1.0  0.15426  0.79590  0.43434  1.0000
  Fe  Fe102     1.0  0.01087  0.83818  0.32599  1.0000
  H   H822      1.0  0.03319  0.77375  0.17180  1.0000
  H   H823      1.0  0.11774  0.84060  0.38895  1.0000
  S   S202      1.0  0.05602  0.86225  0.34768  1.0000
  S   S203      1.0  0.08516  0.87057  0.27582  1.0000
  C   C501      1.0  0.99048  0.85297  0.40419  1.0000
  C   C502      1.0  0.97003  0.80146  0.41710  1.0000
  H   H824      1.0  0.07982  0.79566  0.37925  1.0000
  H   H825      1.0  0.11169  0.81729  0.47284  1.0000
  C   C503      1.0  0.12023  0.81186  0.18212  1.0000
  H   H826      1.0  0.83287  0.82978  0.54781  1.0000
  C   C504      1.0  0.09049  0.80927  0.45724  1.0000
  C   C505      1.0  0.06102  0.83797  0.15371  1.0000
  S   S204      1.0  0.04246  0.80734  0.29411  1.0000
  H   H827      1.0  0.09237  0.81736  0.22551  1.0000
  Fe  Fe103     1.0  0.03746  0.84649  0.25957  1.0000
  C   C506      1.0  0.97649  0.82452  0.39475  1.0000
  H   H828      1.0  0.06804  0.82564  0.46081  1.0000
  H   H829      1.0  0.14847  0.86964  0.33587  1.0000
  S   S205      1.0  0.00699  0.84089  0.49664  1.0000
  C   C507      1.0  0.11893  0.81516  0.14950  1.0000
  H   H830      1.0  0.03843  0.84855  0.14263  1.0000
  C   C508      1.0  0.16934  0.82278  0.34215  1.0000
  C   C509      1.0  0.97887  0.80638  0.44868  1.0000
  C   C510      1.0  0.99904  0.85797  0.43570  1.0000
  S   S206      1.0  0.96912  0.81703  0.35488  1.0000
  C   C511      1.0  0.96249  0.65996  0.55352  1.0000
  H   H831      1.0  0.08880  0.83239  0.11039  1.0000
  S   S207      1.0  0.02475  0.84262  0.20830  1.0000
  C   C512      1.0  0.08947  0.82869  0.13541  1.0000
  C   C513      1.0  0.99371  0.83455  0.45788  1.0000
  S   S208      1.0  0.13261  0.80369  0.32852  1.0000
  C   C514      1.0  0.06181  0.83359  0.18617  1.0000
  C   C515      1.0  0.09162  0.82092  0.20045  1.0000
  C   C516      1.0  0.13186  0.78740  0.42049  1.0000
  H   H832      1.0  0.03672  0.73399  0.15782  1.0000
  Fe  Fe104     1.0  0.99854  0.80160  0.53045  1.0000
  C   C517      1.0  0.72710  0.86687  0.09383  1.0000
  H   H833      1.0  0.99479  0.87115  0.38719  1.0000
  H   H834      1.0  0.90395  0.85919  0.35661  1.0000
  C   C518      1.0  0.69666  0.87242  0.07638  1.0000
  C   C519      1.0  0.18727  0.71544  0.95730  1.0000
  H   H835      1.0  0.96137  0.84414  0.87904  1.0000
  S   S209      1.0  0.07714  0.77860  0.07095  1.0000
  H   H836      1.0  0.05145  0.64127  0.61750  1.0000
  C   C520      1.0  0.03093  0.65890  0.62362  1.0000
  H   H837      1.0  0.12797  0.67098  0.06626  1.0000
  H   H838      1.0  0.94248  0.84208  0.72428  1.0000
  C   C521      1.0  0.87805  0.85619  0.62439  1.0000
  S   S210      1.0  0.92385  0.80689  0.62566  1.0000
  C   C522      1.0  0.95638  0.83948  0.03555  1.0000
  H   H839      1.0  0.05567  0.64492  0.00913  1.0000
  C   C523      1.0  0.02893  0.80812  0.91679  1.0000
  H   H840      1.0  0.03706  0.80439  0.94156  1.0000
  C   C524      1.0  0.75870  0.87370  0.01061  1.0000
  H   H841      1.0  0.17726  0.88145  0.80942  1.0000
  N   N51       1.0  0.18742  0.87523  0.85856  1.0000
  H   H842      1.0  0.93768  0.85807  0.03984  1.0000
  H   H843      1.0  0.03938  0.68217  0.61510  1.0000
  Fe  Fe105     1.0  0.09071  0.73062  0.05307  1.0000
  H   H844      1.0  0.08084  0.87518  0.88445  1.0000
  C   C525      1.0  0.88938  0.82873  0.60934  1.0000
  C   C526      1.0  0.04442  0.86321  0.80062  1.0000
  H   H845      1.0  0.06582  0.69069  0.66576  1.0000
  H   H846      1.0  0.09208  0.68424  0.94020  1.0000
  H   H847      1.0  0.96771  0.76073  0.04412  1.0000
  C   C527      1.0  0.70223  0.88064  0.98707  1.0000
  H   H848      1.0  0.14833  0.85944  0.88995  1.0000
  H   H849      1.0  0.01112  0.85751  0.95242  1.0000
  C   C528      1.0  0.87325  0.81923  0.58158  1.0000
  H   H850      1.0  0.13586  0.64265  0.00605  1.0000
  C   C529      1.0  0.07040  0.87164  0.86119  1.0000
  H   H851      1.0  0.07102  0.81836  0.80176  1.0000
  H   H852      1.0  0.05151  0.67094  0.70012  1.0000
  S   S211      1.0  0.05339  0.83036  0.00130  1.0000
  H   H853      1.0  0.11437  0.72989  0.71800  1.0000
  Fe  Fe106     1.0  0.13689  0.70450  0.83515  1.0000
  H   H854      1.0  0.97819  0.87340  0.92687  1.0000
  C   C530      1.0  0.05980  0.74007  0.71268  1.0000
  C   C531      1.0  0.09414  0.73851  0.70248  1.0000
  S   S212      1.0  0.98687  0.74003  0.59576  1.0000
  H   H855      1.0  0.02230  0.87109  0.91418  1.0000
  H   H856      1.0  0.99166  0.68527  0.69003  1.0000
  H   H857      1.0  0.00297  0.70642  0.65558  1.0000
  C   C532      1.0  0.05603  0.66812  0.67449  1.0000
  H   H858      1.0  0.12817  0.74339  0.66298  1.0000
  C   C533      1.0  0.04175  0.75979  0.66185  1.0000
  H   H859      1.0  0.03455  0.85991  0.77710  1.0000
  C   C534      1.0  0.97337  0.78462  0.03802  1.0000
  S   S213      1.0  0.08398  0.75922  0.61067  1.0000
  H   H860      1.0  0.18643  0.87339  0.90886  1.0000
  H   H861      1.0  0.06174  0.68774  0.97177  1.0000
  S   S214      1.0  0.09847  0.74611  0.00357  1.0000
  Fe  Fe107     1.0  0.03444  0.76617  0.58355  1.0000
  C   C535      1.0  0.03379  0.75152  0.69265  1.0000
  S   S215      1.0  0.08630  0.73126  0.83382  1.0000
  H   H862      1.0  0.72942  0.84363  0.94190  1.0000
  H   H863      1.0  0.14712  0.74962  0.94653  1.0000
  Fe  Fe108     1.0  0.16930  0.74385  0.78530  1.0000
  S   S216      1.0  0.12243  0.77502  0.77912  1.0000
  C   C536      1.0  0.96924  0.81175  0.93282  1.0000
  H   H864      1.0  0.14398  0.86225  0.83016  1.0000
  H   H865      1.0  0.97646  0.80979  0.95803  1.0000
  H   H866      1.0  0.91756  0.64934  0.62094  1.0000
  C   C537      1.0  0.94955  0.80881  0.04484  1.0000
  S   S217      1.0  0.04873  0.72482  0.74916  1.0000
  H   H867      1.0  0.12896  0.72298  0.89768  1.0000
  Fe  Fe109     1.0  0.09357  0.73021  0.78173  1.0000
  H   H868      1.0  0.93360  0.84723  0.68331  1.0000
  C   C538      1.0  0.06525  0.83971  0.81452  1.0000
  C   C539      1.0  0.10196  0.74614  0.67139  1.0000
  S   S218      1.0  0.05562  0.69104  0.06430  1.0000
  H   H869      1.0  0.18367  0.80676  0.75421  1.0000
  C   C540      1.0  0.15998  0.72798  0.93936  1.0000
  H   H870      1.0  0.02349  0.77246  0.01948  1.0000
  C   C541      1.0  0.07849  0.84399  0.84471  1.0000
  H   H871      1.0  0.89028  0.86343  0.64582  1.0000
  C   C542      1.0  0.16861  0.87737  0.88856  1.0000
  C   C543      1.0  0.98559  0.82970  0.88151  1.0000
  S   S219      1.0  0.15278  0.66589  0.86815  1.0000
  S   S220      1.0  0.91255  0.79997  0.06633  1.0000
  H   H872      1.0  0.18353  0.82513  0.85545  1.0000
  C   C544      1.0  0.93443  0.64392  0.60142  1.0000
  H   H873      1.0  0.05054  0.81989  0.90495  1.0000
  H   H874      1.0  0.02152  0.76855  0.64648  1.0000
  H   H875      1.0  0.99354  0.86991  0.01460  1.0000
  C   C545      1.0  0.85123  0.87460  0.61150  1.0000
  Fe  Fe110     1.0  0.11860  0.77400  0.83142  1.0000
  C   C546      1.0  0.07550  0.75575  0.65077  1.0000
  S   S221      1.0  0.14091  0.69885  0.78313  1.0000
  C   C547      1.0  0.00228  0.85868  0.92762  1.0000
  N   N52       1.0  0.02415  0.65953  0.65766  1.0000
  C   C548      1.0  0.16613  0.68480  0.90245  1.0000
  H   H876      1.0  0.00735  0.75338  0.70071  1.0000
  Fe  Fe111     1.0  0.15346  0.75278  0.01873  1.0000
  S   S222      1.0  0.16884  0.74748  0.83753  1.0000
  H   H877      1.0  0.86808  0.87462  0.01767  1.0000
  C   C549      1.0  0.14980  0.71294  0.91168  1.0000
  H   H878      1.0  0.78683  0.86944  0.00664  1.0000
  Fe  Fe112     1.0  0.08989  0.79469  0.02266  1.0000
  H   H879      1.0  0.00736  0.65299  0.61015  1.0000
  C   C550      1.0  0.74350  0.84376  0.96471  1.0000
  H   H880      1.0  0.97154  0.67651  0.65294  1.0000
  C   C551      1.0  0.00493  0.79126  0.02398  1.0000
  H   H881      1.0  0.00566  0.84094  0.86711  1.0000
  Fe  Fe113     1.0  0.95912  0.78624  0.58913  1.0000
  H   H882      1.0  0.98077  0.80631  0.87098  1.0000
  C   C552      1.0  0.98783  0.84610  0.02097  1.0000
  H   H883      1.0  0.96442  0.78772  0.92391  1.0000
  H   H884      1.0  0.02625  0.78469  0.90566  1.0000
  H   H885      1.0  0.90019  0.85513  0.97159  1.0000
  S   S223      1.0  0.10595  0.81558  0.86209  1.0000
  C   C553      1.0  0.01252  0.82207  0.01609  1.0000
  H   H886      1.0  0.94432  0.82529  0.93155  1.0000
  S   S224      1.0  0.82586  0.84767  0.06647  1.0000
  N   N53       1.0  0.73923  0.87435  0.98073  1.0000
  N   N54       1.0  0.99650  0.82705  0.91467  1.0000
  S   S225      1.0  0.14585  0.80305  0.03348  1.0000
  H   H887      1.0  0.74960  0.85498  0.02642  1.0000
  H   H888      1.0  0.13898  0.67400  0.97847  1.0000
  C   C554      1.0  0.99633  0.68290  0.66441  1.0000
  H   H889      1.0  0.10868  0.67708  0.00992  1.0000
  S   S226      1.0  0.00732  0.81286  0.58108  1.0000
  H   H890      1.0  0.73341  0.82444  0.97924  1.0000
  C   C555      1.0  0.12056  0.66053  0.99267  1.0000
  C   C556      1.0  0.83480  0.86505  0.58398  1.0000
  S   S227      1.0  0.14633  0.73347  0.06691  1.0000
  C   C557      1.0  0.94826  0.85680  0.70361  1.0000
  H   H891      1.0  0.97625  0.85339  0.69828  1.0000
  C   C558      1.0  0.88265  0.87515  0.96932  1.0000
  H   H892      1.0  0.92932  0.69021  0.58128  1.0000
  S   S228      1.0  0.90684  0.88026  0.91001  1.0000
  C   C559      1.0  0.94122  0.66709  0.57911  1.0000
  H   H893      1.0  0.77126  0.83822  0.95991  1.0000
  C   C560      1.0  0.07460  0.67073  0.95545  1.0000
  H   H894      1.0  0.07702  0.65018  0.67125  1.0000
  C   C561      1.0  0.16330  0.88100  0.83211  1.0000
  C   C562      1.0  0.19324  0.67207  0.92050  1.0000
  N   N55       1.0  0.09392  0.64598  0.97282  1.0000
  H   H895      1.0  0.05423  0.66066  0.94020  1.0000
  C   C563      1.0  0.07618  0.65462  0.07184  1.0000
  C   C564      1.0  0.11217  0.65101  0.07038  1.0000
  H   H896      1.0  0.89496  0.88018  0.73761  1.0000
  H   H897      1.0  0.12912  0.63641  0.93501  1.0000
  S   S229      1.0  0.85968  0.95507  0.33155  1.0000
  Fe  Fe114     1.0  0.79217  0.01989  0.35084  1.0000
  S   S230      1.0  0.78286  0.96922  0.36056  1.0000
  S   S231      1.0  0.75375  0.05530  0.36965  1.0000
  Fe  Fe115     1.0  0.83760  0.96847  0.37777  1.0000
  S   S232      1.0  0.85263  0.94204  0.42102  1.0000
  Fe  Fe116     1.0  0.80595  0.96123  0.31316  1.0000
  S   S233      1.0  0.78997  0.92523  0.27807  1.0000
  S   S234      1.0  0.84556  0.01981  0.37144  1.0000
  S   S235      1.0  0.81078  0.01216  0.30161  1.0000
  H   H898      1.0  0.94406  0.93124  0.51601  1.0000
  S   S236      1.0  0.82182  0.03451  0.53319  1.0000
  H   H899      1.0  0.73977  0.91946  0.13720  1.0000
  S   S237      1.0  0.89804  0.92317  0.16811  1.0000
  C   C565      1.0  0.94995  0.00460  0.30468  1.0000
  Fe  Fe117     1.0  0.87413  0.89479  0.12992  1.0000
  H   H900      1.0  0.03667  0.01248  0.29438  1.0000
  S   S238      1.0  0.91115  0.02719  0.30208  1.0000
  H   H901      1.0  0.89949  0.89924  0.34456  1.0000
  S   S239      1.0  0.05235  0.94889  0.31136  1.0000
  H   H902      1.0  0.75975  0.06544  0.30295  1.0000
  H   H903      1.0  0.74492  0.01570  0.51328  1.0000
  C   C566      1.0  0.70542  0.04862  0.47173  1.0000
  H   H904      1.0  0.94506  0.92560  0.21853  1.0000
  H   H905      1.0  0.92664  0.96203  0.31971  1.0000
  H   H906      1.0  0.90414  0.92362  0.47094  1.0000
  C   C567      1.0  0.88297  0.90679  0.52854  1.0000
  H   H907      1.0  0.97128  0.93159  0.16583  1.0000
  H   H908      1.0  0.77565  0.94177  0.17991  1.0000
  C   C568      1.0  0.82078  0.92432  0.24821  1.0000
  C   C569      1.0  0.84610  0.94717  0.24673  1.0000
  C   C570      1.0  0.87038  0.94648  0.22249  1.0000
  C   C571      1.0  0.86887  0.92333  0.19932  1.0000
  N   N56       1.0  0.86191  0.11812  0.31568  1.0000
  H   H909      1.0  0.75027  0.98140  0.48929  1.0000
  H   H910      1.0  0.84693  0.96562  0.26402  1.0000
  H   H911      1.0  0.88965  0.96441  0.22128  1.0000
  H   H912      1.0  0.73227  0.98227  0.43382  1.0000
  H   H913      1.0  0.96579  0.89554  0.50433  1.0000
  C   C572      1.0  0.84675  0.96732  0.45296  1.0000
  C   C573      1.0  0.83050  0.95653  0.47978  1.0000
  C   C574      1.0  0.82362  0.97710  0.50466  1.0000
  C   C575      1.0  0.83275  0.00856  0.50276  1.0000
  C   C576      1.0  0.84975  0.01924  0.47622  1.0000
  C   C577      1.0  0.85697  0.99852  0.45141  1.0000
  H   H914      1.0  0.82239  0.93246  0.48103  1.0000
  H   H915      1.0  0.81042  0.96855  0.52493  1.0000
  H   H916      1.0  0.85730  0.04344  0.47478  1.0000
  H   H917      1.0  0.87087  0.00659  0.43128  1.0000
  C   C578      1.0  0.98125  0.01854  0.29728  1.0000
  N   N57       1.0  0.85382  0.12030  0.57173  1.0000
  H   H918      1.0  0.91424  0.11007  0.30024  1.0000
  H   H919      1.0  0.82291  0.10377  0.53334  1.0000
  Fe  Fe118     1.0  0.86367  0.00642  0.32338  1.0000
  H   H920      1.0  0.01644  0.94007  0.16265  1.0000
  C   C579      1.0  0.73993  0.11744  0.36103  1.0000
  H   H921      1.0  0.96219  0.97750  0.20084  1.0000
  C   C580      1.0  0.94435  0.90533  0.51890  1.0000
  C   C581      1.0  0.71499  0.00279  0.43933  1.0000
  C   C582      1.0  0.01255  0.00136  0.29967  1.0000
  H   H922      1.0  0.89044  0.91135  0.28758  1.0000
  H   H923      1.0  0.90531  0.09507  0.33832  1.0000
  H   H924      1.0  0.75617  0.11434  0.27151  1.0000
  H   H925      1.0  0.85723  0.89741  0.52215  1.0000
  H   H926      1.0  0.78136  0.01384  0.44952  1.0000
  H   H927      1.0  0.76117  0.04925  0.43537  1.0000
  C   C583      1.0  0.74858  0.08886  0.34660  1.0000
  H   H928      1.0  0.87391  0.07564  0.55579  1.0000
  H   H929      1.0  0.74385  0.97285  0.18468  1.0000
  H   H930      1.0  0.00727  0.98658  0.19783  1.0000
  C   C584      1.0  0.98153  0.95577  0.31593  1.0000
  C   C585      1.0  0.76331  0.03348  0.45599  1.0000
  H   H931      1.0  0.85288  0.06885  0.31833  1.0000
  C   C586      1.0  0.75153  0.11519  0.29647  1.0000
  C   C587      1.0  0.75385  0.08762  0.31424  1.0000
  H   H932      1.0  0.77554  0.04689  0.47534  1.0000
  C   C588      1.0  0.01277  0.96994  0.30897  1.0000
  C   C589      1.0  0.84957  0.08869  0.30171  1.0000
  C   C590      1.0  0.90428  0.89807  0.47611  1.0000
  C   C591      1.0  0.73317  0.00230  0.49362  1.0000
  S   S240      1.0  0.81969  0.90723  0.11580  1.0000
  N   N58       1.0  0.72335  0.92644  0.18475  1.0000
  C   C592      1.0  0.84367  0.90041  0.20095  1.0000
  N   N59       1.0  0.91085  0.89199  0.50970  1.0000
  C   C593      1.0  0.03208  0.93318  0.22353  1.0000
  C   C594      1.0  0.99712  0.92771  0.17695  1.0000
  H   H933      1.0  0.87871  0.88918  0.46849  1.0000
  H   H934      1.0  0.98808  0.98147  0.23562  1.0000
  H   H935      1.0  0.88696  0.90245  0.55401  1.0000
  H   H936      1.0  0.03317  0.94115  0.24832  1.0000
  H   H937      1.0  0.05223  0.94591  0.21058  1.0000
  C   C595      1.0  0.75113  0.94858  0.19201  1.0000
  H   H938      1.0  0.92443  0.88662  0.46113  1.0000
  H   H939      1.0  0.75690  0.94921  0.21760  1.0000
  C   C596      1.0  0.98836  0.97260  0.21102  1.0000
  C   C597      1.0  0.82002  0.90063  0.22562  1.0000
  H   H940      1.0  0.84292  0.88941  0.31946  1.0000
  H   H941      1.0  0.98139  0.04286  0.29022  1.0000
  H   H942      1.0  0.98154  0.93178  0.32388  1.0000
  N   N60       1.0  0.72920  0.02179  0.46519  1.0000
  H   H943      1.0  0.95084  0.90002  0.54379  1.0000
  H   H944      1.0  0.86425  0.08219  0.28019  1.0000
  S   S241      1.0  0.89414  0.89150  0.08092  1.0000
  H   H945      1.0  0.82177  0.09055  0.29528  1.0000
  N   N61       1.0  0.99732  0.93875  0.20981  1.0000
  C   C598      1.0  0.97161  0.92141  0.22787  1.0000
  C   C599      1.0  0.95026  0.97310  0.31386  1.0000
  H   H946      1.0  0.70748  0.95009  0.14240  1.0000
  C   C600      1.0  0.89944  0.11490  0.32208  1.0000
  H   H947      1.0  0.97153  0.92885  0.25288  1.0000
  C   C601      1.0  0.73442  0.89458  0.19459  1.0000
  H   H948      1.0  0.00335  0.90211  0.17544  1.0000
  H   H949      1.0  0.97696  0.89569  0.22673  1.0000
  H   H950      1.0  0.70133  0.06345  0.45056  1.0000
  Fe  Fe119     1.0  0.04896  0.89651  0.30827  1.0000
  C   C602      1.0  0.88312  0.09859  0.56466  1.0000
  H   H951      1.0  0.88147  0.93260  0.52504  1.0000
  C   C603      1.0  0.83320  0.12601  0.54297  1.0000
  H   H952      1.0  0.73558  0.11841  0.38603  1.0000
  C   C604      1.0  0.71627  0.92649  0.15068  1.0000
  H   H953      1.0  0.70778  0.99384  0.50189  1.0000
  H   H954      1.0  0.73900  0.89347  0.22035  1.0000
  H   H955      1.0  0.81504  0.12742  0.34128  1.0000
  H   H956      1.0  0.71217  0.01680  0.41742  1.0000
  C   C605      1.0  0.84338  0.12449  0.34530  1.0000
  H   H957      1.0  0.84733  0.10499  0.36228  1.0000
  H   H958      1.0  0.92691  0.88699  0.27726  1.0000
  H   H959      1.0  0.71571  0.06382  0.49067  1.0000
  H   H960      1.0  0.90027  0.10835  0.54648  1.0000
  H   H961      1.0  0.03955  0.90782  0.22318  1.0000
  C   C606      1.0  0.89875  0.88687  0.28204  1.0000
  H   H962      1.0  0.75890  0.88705  0.18288  1.0000
  S   S242      1.0  0.80189  0.88863  0.56751  1.0000
  H   H963      1.0  0.69725  0.05068  0.54424  1.0000
  S   S243      1.0  0.76418  0.97361  0.57542  1.0000
  S   S244      1.0  0.91816  0.92160  0.82974  1.0000
  H   H964      1.0  0.85766  0.05324  0.78318  1.0000
  S   S245      1.0  0.89732  0.97070  0.88645  1.0000
  C   C607      1.0  0.72725  0.02655  0.73110  1.0000
  Fe  Fe120     1.0  0.92060  0.92238  0.88196  1.0000
  Fe  Fe121     1.0  0.89972  0.97152  0.83425  1.0000
  S   S246      1.0  0.85395  0.99053  0.80743  1.0000
  H   H965      1.0  0.80961  0.12220  0.60211  1.0000
  H   H966      1.0  0.15571  0.90074  0.89166  1.0000
  H   H967      1.0  0.74088  0.04918  0.73202  1.0000
  S   S247      1.0  0.84802  0.96469  0.58499  1.0000
  H   H968      1.0  0.73118  0.03308  0.59038  1.0000
  Fe  Fe122     1.0  0.83963  0.97864  0.63478  1.0000
  S   S248      1.0  0.79553  0.94626  0.64230  1.0000
  S   S249      1.0  0.88775  0.98008  0.66397  1.0000
  H   H969      1.0  0.88572  0.88518  0.69661  1.0000
  H   H970      1.0  0.89776  0.06760  0.76903  1.0000
  H   H971      1.0  0.91409  0.94862  0.95314  1.0000
  S   S250      1.0  0.80639  0.02089  0.62337  1.0000
  H   H972      1.0  0.85292  0.92794  0.91557  1.0000
  C   C608      1.0  0.98500  0.06271  0.86975  1.0000
  H   H973      1.0  0.04305  0.91629  0.86019  1.0000
  H   H974      1.0  0.97521  0.90659  0.67526  1.0000
  H   H975      1.0  0.85896  0.09159  0.76627  1.0000
  H   H976      1.0  0.75122  0.92264  0.97257  1.0000
  C   C609      1.0  0.97123  0.11848  0.86624  1.0000
  H   H977      1.0  0.95058  0.01322  0.99922  1.0000
  H   H978      1.0  0.91995  0.99004  0.95516  1.0000
  C   C610      1.0  0.86309  0.98847  0.76747  1.0000
  C   C611      1.0  0.89728  0.98459  0.75757  1.0000
  C   C612      1.0  0.90480  0.98332  0.72562  1.0000
  C   C613      1.0  0.87800  0.98482  0.70355  1.0000
  C   C614      1.0  0.84374  0.98891  0.71334  1.0000
  C   C615      1.0  0.83631  0.99111  0.74540  1.0000
  H   H979      1.0  0.91804  0.98265  0.77445  1.0000
  H   H980      1.0  0.93134  0.98069  0.71804  1.0000
  H   H981      1.0  0.82300  0.99017  0.69626  1.0000
  H   H982      1.0  0.80985  0.99409  0.75309  1.0000
  N   N62       1.0  0.93923  0.89020  0.70939  1.0000
  C   C616      1.0  0.85646  0.91651  0.93791  1.0000
  C   C617      1.0  0.84317  0.91311  0.99312  1.0000
  C   C618      1.0  0.89994  0.11724  0.80906  1.0000
  C   C619      1.0  0.95351  0.11702  0.89465  1.0000
  S   S251      1.0  0.71138  0.00164  0.64666  1.0000
  S   S252      1.0  0.00974  0.91976  0.79945  1.0000
  C   C620      1.0  0.96768  0.06129  0.89834  1.0000
  H   H983      1.0  0.69704  0.06748  0.77079  1.0000
  C   C621      1.0  0.91505  0.96890  0.96948  1.0000
  H   H984      1.0  0.88896  0.97224  0.98004  1.0000
  H   H985      1.0  0.85236  0.10535  0.85248  1.0000
  C   C622      1.0  0.83177  0.10629  0.59587  1.0000
  H   H986      1.0  0.94094  0.93405  0.68483  1.0000
  H   H987      1.0  0.82162  0.94833  0.96219  1.0000
  C   C623      1.0  0.90171  0.06534  0.83124  1.0000
  N   N63       1.0  0.88073  0.08798  0.81263  1.0000
  H   H988      1.0  0.96408  0.98955  0.03206  1.0000
  Fe  Fe123     1.0  0.76269  0.98733  0.62614  1.0000
  H   H989      1.0  0.83116  0.11168  0.81552  1.0000
  Fe  Fe124     1.0  0.83854  0.89858  0.06708  1.0000
  H   H990      1.0  0.93879  0.08753  0.93304  1.0000
  H   H991      1.0  0.89424  0.91857  0.72061  1.0000
  C   C624      1.0  0.84780  0.09481  0.82895  1.0000
  Fe  Fe125     1.0  0.80122  0.93572  0.59097  1.0000
  S   S253      1.0  0.82325  0.92876  0.02646  1.0000
  H   H992      1.0  0.92505  0.11300  0.79696  1.0000
  C   C625      1.0  0.83856  0.92786  0.96419  1.0000
  C   C626      1.0  0.04887  0.89482  0.84757  1.0000
  H   H993      1.0  0.91883  0.99767  0.02512  1.0000
  H   H994      1.0  0.92695  0.05984  0.81987  1.0000
  H   H995      1.0  0.00095  0.09241  0.83201  1.0000
  H   H996      1.0  0.93193  0.91494  0.99893  1.0000
  H   H997      1.0  0.14883  0.90369  0.83475  1.0000
  C   C627      1.0  0.93314  0.93678  0.01320  1.0000
  C   C628      1.0  0.87348  0.07457  0.78137  1.0000
  S   S254      1.0  0.97526  0.93829  0.88505  1.0000
  H   H998      1.0  0.84653  0.10160  0.61791  1.0000
  C   C629      1.0  0.97572  0.95780  0.97839  1.0000
  C   C630      1.0  0.95219  0.08852  0.91092  1.0000
  H   H999      1.0  0.90738  0.07466  0.85506  1.0000
  H   H1000     1.0  0.73239  0.01590  0.70771  1.0000
  N   N64       1.0  0.94201  0.96394  0.99368  1.0000
  H   H1001     1.0  0.99673  0.95381  0.99592  1.0000
  H   H1002     1.0  0.98783  0.89972  0.73206  1.0000
  Fe  Fe126     1.0  0.95182  0.98690  0.88444  1.0000
  C   C631      1.0  0.94400  0.99234  0.01346  1.0000
  C   C632      1.0  0.98713  0.09134  0.85392  1.0000
  H   H1003     1.0  0.73718  0.90182  0.93851  1.0000
  H   H1004     1.0  0.90738  0.94030  0.02445  1.0000
  H   H1005     1.0  0.88815  0.04288  0.83430  1.0000
  S   S255      1.0  0.95269  0.99161  0.83220  1.0000
  H   H1006     1.0  0.95254  0.93256  0.03214  1.0000
  C   C633      1.0  0.70338  0.03112  0.59032  1.0000
  H   H1007     1.0  0.83290  0.07307  0.83238  1.0000
  H   H1008     1.0  0.77991  0.89463  0.95401  1.0000
  H   H1009     1.0  0.73937  0.01064  0.74885  1.0000
  H   H1010     1.0  0.98314  0.97791  0.96348  1.0000
  H   H1011     1.0  0.70739  0.94197  0.88489  1.0000
  C   C634      1.0  0.03599  0.89070  0.81718  1.0000
  S   S256      1.0  0.96469  0.02546  0.91813  1.0000
  H   H1012     1.0  0.97489  0.93675  0.96293  1.0000
  H   H1013     1.0  0.93223  0.90096  0.66051  1.0000
  H   H1014     1.0  0.99744  0.04187  0.86015  1.0000
  Fe  Fe127     1.0  0.97123  0.94128  0.83273  1.0000
  H   H1015     1.0  0.84312  0.89608  0.62303  1.0000
  H   H1016     1.0  0.90609  0.12765  0.83224  1.0000
  C   C635      1.0  0.95949  0.90173  0.73636  1.0000
  H   H1017     1.0  0.80345  0.12515  0.70679  1.0000
  H   H1018     1.0  0.82107  0.08365  0.58766  1.0000
  C   C636      1.0  0.94731  0.90873  0.68129  1.0000
  H   H1019     1.0  0.95332  0.92682  0.74160  1.0000
  C   C637      1.0  0.75252  0.89939  0.96055  1.0000
  H   H1020     1.0  0.89910  0.09369  0.58593  1.0000
  H   H1021     1.0  0.69838  0.90398  0.99823  1.0000
  C   C638      1.0  0.86456  0.88632  0.99550  1.0000
  C   C639      1.0  0.90192  0.89362  0.71637  1.0000
  H   H1022     1.0  0.75594  0.89643  0.02340  1.0000
  H   H1023     1.0  0.95425  0.88829  0.75805  1.0000
  C   C640      1.0  0.87940  0.89084  0.94077  1.0000
  H   H1024     1.0  0.79272  0.13192  0.76370  1.0000
  Fe  Fe128     1.0  0.81060  0.00375  0.57395  1.0000
