data_image0
_chemical_formula_structural       C2FeS2FeSCFeCFeS3FeS2FeS2FeSFeS3HCH2CSHCHCH2C4H2C7H4C2H4C6H2SHC3HNH7CH2C2HCH5NC4H12NH3SH3CH2C2HCH2CH2CSC2HCH9CHNHCHCSFeSHFeSFeS2HFeSFeS2HFeS3HC3HC2HCH2C6H3CH4CHNSHC3H3C3H2CH4FeHCHCHNC2NH2FeSH2CH2S2FeH3CH2C3H3CHFeHCSCH2CHFeCS2HCHCSNS2HSCHCSC2H2CNHFeC3HC3H7CHC2H3C2H2CH2C2HCHCH9NCH2CH3CHCHCH3CH2CHCHSCHFeH2CFeS2FeS2FeSFeS3H2NH2CHN2H3C5HCH2C6H4C2H3CH6CH2CHSNSH3CH2C2H3C2H2CH2CH5CHCH2CH4CH3CNHC2HNCH2CHCHC2HCH13CH5CH2CHFeS2H2FeS2FeSFeSFeS2HSH2CHFeS2FeS2FeS2Fe2S3H2C6H4C7H4C3HC7H6CHFeS3CHCH4C8H6C2H2C2H2CFeHNCH3C2H2NCH3FeCHSNC4H17CSCHCH3NH3SH4SCH2CNH2CH4FeH3CH2C2HSNSH3CSH3FeS2HSFeSFeSHFeS4FeS2CSFeSFeS2HSHSHFe2S2FeS2FeHSHFeS3CHCHC6H4CH3C7SHSH5C7H4C6H5CH5CH3CH3CH6CSFeH3CH5CFeNCSH2NHC2HCH2FeH2CHC2HNHCNH4NCH2NSC4FeCH6CHCH3CH4CH2CFeHSC2FeS2FeS2FeSFeS3HC2H4C6H5CH2C7H5NC4H13SH2CHCH2CNH2NH2CH3C3H4FeS2Fe3CSCH5S3C6H7CH2CH9CHSN2HC2H2CH2SHCH3CH2SFeS2FeHFeHS2FeC2FeS2FeS4HC3H3C6H4C4HCHNHCH2CH2NH7C2H6SHC3SH3CFeHCHNH6CH8C2HC2NH4CH2FeSHSNH2CH2CH2CHCH3CHCHCH5CH3C5SHNH7CH2CHCHCHNC2H2C3FeH4C3H3CH2CH3NH4CH3CH3CH2FeS2CSFeSFeSCSFeCSFeCH2FeS3FeS2FeS2Fe2S3C6H6CSHCHC5HC6H5C4H3C2SH2SC2HNCH6CH5FeHCHSCH2SCH2NC2H6NCH3CHCHCH2CHCHNCH2CHSHCHCH4CH2CHCHNHSHCHFeS2FeS2FeSFeS3FeS2FeSHFeSFeS3Fe2SFeS2HFeS3C6H8CH2C6H4C6H2CNHC3HSH5C2SC2H3NC2H4CHCH5CH3CH3C2HSNC4H12CH3C2H2C2HCH2C3H2CH3C3HCNCH2FeS2FeS2Fe2S3FeSFeS2CFeS3FeHFeS2HFeS3C2HC6H4C2H3C5H4C2HCHNH3C3SC3H3CH2FeSNC4H9NH2NC4H14CHCH2NC5H9CH2CHFeH2CHCH5C2H3C2HC4NH11C2H4CH4SNS2C6H5CHCHCH4FeSFeS2Fe2S3C2H2C3HCNH2C6H2CHCNC4H12CH3C2H4NCH5CHCHNC2HCH3C2H4C2H9CHCH4CSH2FeS2FeS2FeHFeS3FeS2FeS2FeSFeS3CSH4SC6H4C3HC7H4CHC4H7NC2HCHC4H5CHNC4H12C3HNH5CHCHCHSH2NHCH5NH5C2H6CH7C3HCHFeHFeS2FeSHS3FeS2FeSFeS2HFeS2FeNHFeS3HC3S2CH4C6H4C6H4C2HC3H2CHCHNC4H14SH2CHC3S2CFeHNC2H5CHC3H2FeH2FeCH4SH2S2H2C6H4CH2FeS2FeSFe2S3CHC2H2C5H2NSH3CH2C2HCHSH3C2HC2H4NH6CH3SFeS2FeS2FeSFeS3HFeS2FeSHS3CH2CHC2H3C6H4C6H4C6H8CHC2HN2C4H5CH6NH3CH7CH4CFeH2NC3H2CFeHCH2CH2CSFeS2HSFeHFeSHFeS2FeS2FeSFeS3HSCSC6H4CHCHC7H5CHC6H5CHCH4NH5CHC2HCH4NHNC4H11N2H10CH9CHC3HC2S2C3FeSFeS2Fe2HFeS2H3CHCH4S3HC6H12CH3C2H2C2H2NHNHNCH2CHCHCH2CH6C4HCHC2HCHCHCH4CHSFeS2FeS2FeSHS2FeS2Fe2CFeSHS2FeS2Fe2H2S2CSC4HCHFeHC6H7C2H3C6H7CHFeNH2CH4C2HC3HCH3C3H2NH9CHSCHNSC2H3CH2CH2SHSFeS2FeS2FeSFeS3FeS2FeSHFeSFeS3H2NC2HCH3CHCH2C6H6FeC6H4C2HCH3C2HNC3H8SCNH2CH3CHNCH3C2H2C4HCH6CHC2FeSFeS2FeSFeS2H2C2HC2HNHC6H9S2HS2H2CH2C7H5CHCH2CH6C2H3CH2NH4C2HCHCNH3SNH2CH4C2H3NC4H6CH3CH6C4H3CH2FeSFeS2FeSHS2FeS2FeSNFeS3FeCSFeS2Fe2S3H2CH4C2HC2HC6HCH4C6H6C5H5SCHNCH6SC2H4FeCH2NC2H8NHCH2SC2HC2H2CHSCH4CHCH2CH2C3HCH3SH6FeS2FeS2FeSFeS3FeS2FeCHCFeS3FeS2FeS2FeSFeS3H3NHC3HCHCH4C6H4CH2C3H2C6H5C3H3C2HC2H2NC3H9C3NH2CH2SHCH5NC3HCH5CH2C3HCH5CHCHCH8CHNH2CH2CH2CH2CSHCHCH4C2SCHCH2SHCH2FeSC2SFeSFeS2HFeS2FeS2Fe2S3FeSFeS2FeSHS2C2H3C2HC6H4C6H2C2HC3H5CSH4CNC4H12SNCH4FeSCH3CNC4H15CNC4H6C3HCHFeH2S2CHCHCH4CH4CFeH6CH3SH2NCNC2H2CH4CH4CHNSH6C2H2CHCHCHC3HC2HC2H2CH2CH2CNFeS2FeSFeSFeS2HSFeS2FeHFeS2H2CHC6H2C6H4C3H2N2C4H15CH2SH6C2HCH2C2HCSHS2CHC6H4FeSFeSCFeCFeS2H4CH2NH2CHCHCH2CHNH2CH7C3SCHCH6C2H3C2H4NCHFeS2FeS2FeSFeS4H2C6H4C2H3C6H4NC2HC2H5CH4NH8NC4H9CH2C2HC2FeH2SHSH2CHSFeSHFeSFeHSFeSFeS2FeH2FeS3CSFeS2FeSFeHS4FeS2C6H8SHSH5C6H2C6H4C6H3SH2CH2CNH3NC2SCH4FeH4CH2NC4H13FeCSCH2C2H3CHSH2NCHCSH4C2H2CHCFeHSHCHSNC2HCHFeHCHCH3S4H3CH3C6H4FeSFeS2FeSFeS2FeSFeSFeS2FeSFeS3H2FeSC7H6CH2CHC6H2CH4C6H7CH3CHCH2C2H2NCHSCHC2HNH5CH2CH3CHC2H2NH3CH4SCH2CH2CNCH2CNCHCH2CHS2H5CH5CH2SHFeS2FeSFeSFeS4H3C3H4NH2CH3C6H4NHCH4SCHCH4CNC4H5CHCH2CNH4C2H5CHCH3CFeH2SHCHCH2CH2CH4C2H4C2SH3SH3FeH2CH3S2HSCHSHCHFeHCHFeC8HCH3FeNCH5CH3CNHCHCH3CHCH3CH2C4SHNC2H3SHCH2CNHCH3CH3FeCH3SCSFeSHFeSFeS2FeHSFeS2Fe3S2CHFeC2H4CHCHC4H3CHC4HFeSHFeH2SHCH2FeSCSC4HCH2CSCH2S2NC4H11NC2HCHSCFeH2CH2CH2CS2HSCHCSCHFeS2FeS2FeSFeS3FeS2FeSHFeSFeS3C2HC3HC2H5C7H7C4HC5NH4CH4CSNC4H12NCHCHCH4CH2CH2CHC2H3CHSH4C2NH3CH3C2H2
_chemical_formula_sum              "C1440 Fe288 S576 H2304 N144"
_cell_length_a       87.4817
_cell_length_b       88.1144
_cell_length_c       44.4242
_cell_angle_alpha    90.92
_cell_angle_beta     92.6786
_cell_angle_gamma    113.846

_space_group_name_H-M_alt    "P 1"
_space_group_IT_number       1

loop_
  _space_group_symop_operation_xyz
  'x, y, z'

loop_
  _atom_site_type_symbol
  _atom_site_label
  _atom_site_symmetry_multiplicity
  _atom_site_fract_x
  _atom_site_fract_y
  _atom_site_fract_z
  _atom_site_occupancy
  C   C1        1.0  0.20607  0.00544  0.21252  1.0000
  C   C2        1.0  0.21124  0.01142  0.01568  1.0000
  Fe  Fe1       1.0  0.23675  0.20789  0.15301  1.0000
  S   S1        1.0  0.22246  0.19527  0.10965  1.0000
  S   S2        1.0  0.22010  0.20333  0.19342  1.0000
  Fe  Fe2       1.0  0.27008  0.22040  0.12134  1.0000
  S   S3        1.0  0.25796  0.20865  0.07639  1.0000
  C   C3        1.0  0.20511  0.02415  0.30785  1.0000
  Fe  Fe3       1.0  0.23843  0.21827  0.08649  1.0000
  C   C4        1.0  0.23389  0.23265  0.22930  1.0000
  Fe  Fe4       1.0  0.24303  0.18643  0.10340  1.0000
  S   S4        1.0  0.23619  0.15982  0.08515  1.0000
  S   S5        1.0  0.25154  0.23150  0.13022  1.0000
  S   S6        1.0  0.25647  0.19766  0.14794  1.0000
  Fe  Fe5       1.0  0.24156  0.07131  0.12191  1.0000
  S   S7        1.0  0.25961  0.06341  0.14806  1.0000
  S   S8        1.0  0.24363  0.09649  0.14125  1.0000
  Fe  Fe6       1.0  0.22905  0.03929  0.08203  1.0000
  S   S9        1.0  0.24679  0.03006  0.10529  1.0000
  S   S10       1.0  0.20860  0.02199  0.04824  1.0000
  Fe  Fe7       1.0  0.23911  0.03778  0.14861  1.0000
  S   S11       1.0  0.23770  0.02150  0.18935  1.0000
  Fe  Fe8       1.0  0.26586  0.05633  0.10315  1.0000
  S   S12       1.0  0.29345  0.06196  0.09930  1.0000
  S   S13       1.0  0.22040  0.04603  0.12576  1.0000
  S   S14       1.0  0.24877  0.06527  0.07645  1.0000
  H   H1        1.0  0.01540  0.19955  0.15800  1.0000
  C   C5        1.0  0.00092  0.23004  0.22583  1.0000
  H   H2        1.0  0.18874  0.00088  0.13745  1.0000
  H   H3        1.0  0.27811  0.23522  0.02717  1.0000
  C   C6        1.0  0.22308  0.00845  0.21448  1.0000
  S   S15       1.0  0.29791  0.23635  0.12963  1.0000
  H   H4        1.0  0.20140  0.01139  0.19554  1.0000
  C   C7        1.0  0.31372  0.09696  0.03713  1.0000
  H   H5        1.0  0.31564  0.23905  0.02532  1.0000
  C   C8        1.0  0.22052  0.21784  0.00096  1.0000
  H   H6        1.0  0.19626  0.21917  0.28098  1.0000
  H   H7        1.0  0.28306  0.08975  0.09948  1.0000
  C   C9        1.0  0.20032  0.00251  0.12603  1.0000
  C   C10       1.0  0.30755  0.07695  0.07664  1.0000
  C   C11       1.0  0.30202  0.08448  0.05364  1.0000
  C   C12       1.0  0.00881  0.19706  0.09786  1.0000
  H   H8        1.0  0.99817  0.20071  0.00792  1.0000
  H   H9        1.0  0.28875  0.08065  0.04848  1.0000
  C   C13       1.0  0.22887  0.00073  0.23715  1.0000
  C   C14       1.0  0.23939  0.14272  0.10060  1.0000
  C   C15       1.0  0.24629  0.14334  0.12991  1.0000
  C   C16       1.0  0.24745  0.12907  0.14187  1.0000
  C   C17       1.0  0.24215  0.11412  0.12452  1.0000
  C   C18       1.0  0.23570  0.11362  0.09495  1.0000
  C   C19       1.0  0.23419  0.12780  0.08322  1.0000
  H   H10       1.0  0.25065  0.15477  0.14342  1.0000
  H   H11       1.0  0.25253  0.12963  0.16474  1.0000
  H   H12       1.0  0.23151  0.10224  0.08131  1.0000
  H   H13       1.0  0.22884  0.12715  0.06052  1.0000
  C   C20       1.0  0.29132  0.10667  0.15162  1.0000
  C   C21       1.0  0.22205  0.23168  0.01875  1.0000
  H   H14       1.0  0.31379  0.10498  0.11467  1.0000
  H   H15       1.0  0.29545  0.22767  0.06527  1.0000
  H   H16       1.0  0.01148  0.24003  0.21694  1.0000
  H   H17       1.0  0.20129  0.01080  0.10695  1.0000
  C   C22       1.0  0.20675  0.22303  0.26670  1.0000
  C   C23       1.0  0.20681  0.21264  0.24212  1.0000
  C   C24       1.0  0.22037  0.21734  0.22324  1.0000
  C   C25       1.0  0.28259  0.10216  0.09877  1.0000
  C   C26       1.0  0.22708  0.01406  0.00604  1.0000
  C   C27       1.0  0.31185  0.11671  0.11410  1.0000
  H   H18       1.0  0.19627  0.20085  0.23776  1.0000
  H   H19       1.0  0.28519  0.10665  0.07552  1.0000
  S   S16       1.0  0.01983  0.23873  0.27977  1.0000
  H   H20       1.0  0.01004  0.17849  0.14497  1.0000
  C   C28       1.0  0.21805  0.24412  0.00554  1.0000
  C   C29       1.0  0.00145  0.22673  0.25672  1.0000
  C   C30       1.0  0.19698  0.00013  0.99893  1.0000
  H   H21       1.0  0.24198  0.00291  0.23888  1.0000
  N   N1        1.0  0.99658  0.19086  0.12141  1.0000
  H   H22       1.0  0.27831  0.10408  0.15773  1.0000
  H   H23       1.0  0.30004  0.11518  0.16948  1.0000
  H   H24       1.0  0.00283  0.19935  0.07665  1.0000
  H   H25       1.0  0.26952  0.10036  0.10272  1.0000
  H   H26       1.0  0.19927  0.01371  0.29081  1.0000
  H   H27       1.0  0.30936  0.10279  0.01944  1.0000
  H   H28       1.0  0.29278  0.09468  0.15231  1.0000
  C   C31       1.0  0.22042  0.23820  0.27307  1.0000
  H   H29       1.0  0.30146  0.13889  0.13838  1.0000
  H   H30       1.0  0.27967  0.12783  0.12717  1.0000
  C   C32       1.0  0.00488  0.18794  0.14913  1.0000
  C   C33       1.0  0.31221  0.24329  0.10083  1.0000
  H   H31       1.0  0.23816  0.02271  0.01860  1.0000
  C   C34       1.0  0.29258  0.12970  0.12152  1.0000
  H   H32       1.0  0.99980  0.21521  0.13729  1.0000
  H   H33       1.0  0.25732  0.23446  0.02628  1.0000
  H   H34       1.0  0.21812  0.99768  0.08233  1.0000
  H   H35       1.0  0.22352  0.20816  0.01079  1.0000
  H   H36       1.0  0.01419  0.18798  0.09202  1.0000
  N   N2        1.0  0.20395  0.15103  0.16195  1.0000
  C   C35       1.0  0.19656  0.14824  0.19167  1.0000
  C   C36       1.0  0.22192  0.16203  0.16605  1.0000
  C   C37       1.0  0.19541  0.15897  0.14238  1.0000
  C   C38       1.0  0.20204  0.13504  0.14764  1.0000
  H   H37       1.0  0.20283  0.14240  0.20709  1.0000
  H   H38       1.0  0.18298  0.14000  0.18954  1.0000
  H   H39       1.0  0.19791  0.16021  0.20278  1.0000
  H   H40       1.0  0.22773  0.16483  0.14399  1.0000
  H   H41       1.0  0.22391  0.17409  0.17735  1.0000
  H   H42       1.0  0.22892  0.15631  0.17999  1.0000
  H   H43       1.0  0.20037  0.16079  0.11945  1.0000
  H   H44       1.0  0.19721  0.17142  0.15193  1.0000
  H   H45       1.0  0.18171  0.15131  0.13953  1.0000
  H   H46       1.0  0.20741  0.13688  0.12502  1.0000
  H   H47       1.0  0.18864  0.12633  0.14437  1.0000
  H   H48       1.0  0.20867  0.12885  0.16139  1.0000
  N   N3        1.0  0.29461  0.11384  0.12152  1.0000
  H   H49       1.0  0.01933  0.20900  0.10520  1.0000
  H   H50       1.0  0.24446  0.23643  0.21519  1.0000
  H   H51       1.0  0.10814  0.23398  0.31973  1.0000
  S   S17       1.0  0.22933  0.23437  0.05727  1.0000
  H   H52       1.0  0.21715  0.03280  0.29913  1.0000
  H   H53       1.0  0.29474  0.13530  0.09898  1.0000
  H   H54       1.0  0.31462  0.12155  0.09106  1.0000
  C   C39       1.0  0.99401  0.21016  0.00080  1.0000
  H   H55       1.0  0.32132  0.12575  0.13040  1.0000
  H   H56       1.0  0.19668  0.03078  0.30896  1.0000
  C   C40       1.0  0.27028  0.24187  0.01957  1.0000
  C   C41       1.0  0.23396  0.24290  0.25415  1.0000
  H   H57       1.0  0.18466  0.99801  0.00611  1.0000
  C   C42       1.0  0.30775  0.23724  0.07096  1.0000
  H   H58       1.0  0.26977  0.24172  0.99448  1.0000
  H   H59       1.0  0.21116  0.00914  0.14231  1.0000
  C   C43       1.0  0.31924  0.24364  0.04844  1.0000
  H   H60       1.0  0.99594  0.18345  0.16739  1.0000
  H   H61       1.0  0.21373  0.99856  0.31910  1.0000
  C   C44       1.0  0.22284  0.01606  0.46895  1.0000
  S   S18       1.0  0.02812  0.22539  0.36732  1.0000
  C   C45       1.0  0.00154  0.22383  0.48361  1.0000
  C   C46       1.0  0.21708  0.23191  0.52499  1.0000
  H   H62       1.0  0.21207  0.14718  0.50109  1.0000
  C   C47       1.0  0.22442  0.15797  0.50177  1.0000
  H   H63       1.0  0.30357  0.05137  0.55133  1.0000
  H   H64       1.0  0.13726  0.20329  0.39831  1.0000
  H   H65       1.0  0.30398  0.03384  0.53082  1.0000
  H   H66       1.0  0.27736  0.01181  0.50892  1.0000
  H   H67       1.0  0.01425  0.22737  0.47705  1.0000
  H   H68       1.0  0.27356  0.14208  0.61527  1.0000
  H   H69       1.0  0.21226  0.15050  0.55694  1.0000
  H   H70       1.0  0.24845  0.18552  0.52789  1.0000
  H   H71       1.0  0.22202  0.16937  0.49835  1.0000
  C   C48       1.0  0.23703  0.14404  0.53468  1.0000
  H   H72       1.0  0.20785  0.00527  0.61905  1.0000
  N   N4        1.0  0.14865  0.21797  0.43901  1.0000
  H   H73       1.0  0.22030  0.20749  0.46788  1.0000
  C   C49       1.0  0.09491  0.23985  0.35484  1.0000
  H   H74       1.0  0.27302  0.02725  0.48855  1.0000
  C   C50       1.0  0.22549  0.01995  0.50024  1.0000
  S   S19       1.0  0.22665  0.18988  0.61312  1.0000
  Fe  Fe9       1.0  0.27056  0.22653  0.62131  1.0000
  S   S20       1.0  0.26326  0.20731  0.58385  1.0000
  H   H75       1.0  0.25784  0.17511  0.55213  1.0000
  Fe  Fe10      1.0  0.23868  0.20993  0.58007  1.0000
  S   S21       1.0  0.22776  0.20624  0.53126  1.0000
  Fe  Fe11      1.0  0.25166  0.18826  0.61841  1.0000
  S   S22       1.0  0.25998  0.16671  0.61609  1.0000
  S   S23       1.0  0.24688  0.23095  0.61543  1.0000
  H   H76       1.0  0.22177  0.17263  0.55308  1.0000
  Fe  Fe12      1.0  0.23812  0.06861  0.61802  1.0000
  S   S24       1.0  0.22583  0.08718  0.61545  1.0000
  Fe  Fe13      1.0  0.23534  0.03565  0.58879  1.0000
  S   S25       1.0  0.25483  0.03475  0.62228  1.0000
  S   S26       1.0  0.22487  0.01126  0.56048  1.0000
  H   H77       1.0  0.00746  0.22098  0.53037  1.0000
  Fe  Fe14      1.0  0.26921  0.06175  0.61470  1.0000
  S   S27       1.0  0.29710  0.06827  0.61209  1.0000
  S   S28       1.0  0.22132  0.04160  0.62534  1.0000
  S   S29       1.0  0.25050  0.06247  0.57874  1.0000
  H   H78       1.0  0.23148  0.16276  0.57775  1.0000
  C   C51       1.0  0.22167  0.00723  0.52078  1.0000
  C   C52       1.0  0.29744  0.04233  0.53207  1.0000
  C   C53       1.0  0.99764  0.22017  0.51386  1.0000
  H   H79       1.0  0.26340  0.01733  0.56828  1.0000
  C   C54       1.0  0.31120  0.08119  0.58655  1.0000
  C   C55       1.0  0.30570  0.08696  0.56085  1.0000
  H   H80       1.0  0.23027  0.03275  0.50842  1.0000
  C   C56       1.0  0.21140  0.22690  0.46210  1.0000
  H   H81       1.0  0.29258  0.08440  0.55703  1.0000
  H   H82       1.0  0.19297  0.00113  0.36989  1.0000
  C   C57       1.0  0.25015  0.14465  0.61770  1.0000
  C   C58       1.0  0.23280  0.13597  0.61880  1.0000
  C   C59       1.0  0.22561  0.11842  0.61820  1.0000
  C   C60       1.0  0.23562  0.10931  0.61684  1.0000
  C   C61       1.0  0.25296  0.11801  0.61593  1.0000
  C   C62       1.0  0.26013  0.13554  0.61620  1.0000
  H   H83       1.0  0.26085  0.11123  0.61486  1.0000
  H   H84       1.0  0.25785  0.17271  0.51196  1.0000
  H   H85       1.0  0.22491  0.14272  0.62021  1.0000
  C   C63       1.0  0.22057  0.21951  0.51070  1.0000
  H   H86       1.0  0.16380  0.24395  0.43566  1.0000
  H   H87       1.0  0.20927  0.22487  0.43791  1.0000
  H   H88       1.0  0.20680  0.03866  0.36260  1.0000
  H   H89       1.0  0.27676  0.05409  0.55606  1.0000
  C   C64       1.0  0.21765  0.21705  0.47918  1.0000
  H   H90       1.0  0.18248  0.01205  0.34992  1.0000
  N   N5        1.0  0.27933  0.03309  0.53593  1.0000
  S   S30       1.0  0.26065  0.20746  0.65645  1.0000
  H   H91       1.0  0.16019  0.23734  0.47334  1.0000
  C   C65       1.0  0.27695  0.02425  0.56450  1.0000
  C   C66       1.0  0.27125  0.04487  0.53694  1.0000
  C   C67       1.0  0.20526  0.99906  0.64101  1.0000
  H   H92       1.0  0.16912  0.21483  0.46298  1.0000
  H   H93       1.0  0.28285  0.01520  0.56465  1.0000
  H   H94       1.0  0.28265  0.03312  0.58419  1.0000
  C   C68       1.0  0.20773  0.23917  0.47648  1.0000
  C   C69       1.0  0.15424  0.23539  0.45006  1.0000
  C   C70       1.0  0.21627  0.99946  0.45779  1.0000
  H   H95       1.0  0.14092  0.20809  0.48230  1.0000
  H   H96       1.0  0.15064  0.22450  0.39245  1.0000
  C   C71       1.0  0.19146  0.00614  0.34761  1.0000
  H   H97       1.0  0.14367  0.23936  0.45007  1.0000
  H   H98       1.0  0.22746  0.04113  0.35321  1.0000
  H   H99       1.0  0.24392  0.14182  0.51588  1.0000
  H   H100      1.0  0.29973  0.04958  0.51121  1.0000
  Fe  Fe15      1.0  0.01695  0.23877  0.39751  1.0000
  H   H101      1.0  0.23131  0.15648  0.48229  1.0000
  C   C72       1.0  0.22443  0.16136  0.55567  1.0000
  H   H102      1.0  0.12475  0.21020  0.45846  1.0000
  C   C73       1.0  0.25026  0.17379  0.53060  1.0000
  H   H103      1.0  0.22572  0.02598  0.45329  1.0000
  N   N6        1.0  0.23403  0.15926  0.53065  1.0000
  C   C74       1.0  0.27161  0.02097  0.51043  1.0000
  C   C75       1.0  0.13584  0.20701  0.45853  1.0000
  N   N7        1.0  0.20772  0.01799  0.33758  1.0000
  H   H104      1.0  0.24468  0.14494  0.55594  1.0000
  H   H105      1.0  0.22509  0.13286  0.53604  1.0000
  Fe  Fe16      1.0  0.02615  0.24245  0.33099  1.0000
  S   S31       1.0  0.99299  0.22688  0.42334  1.0000
  H   H106      1.0  0.13041  0.21955  0.40623  1.0000
  H   H107      1.0  0.21919  0.23391  0.54920  1.0000
  C   C76       1.0  0.21511  0.03200  0.35993  1.0000
  H   H108      1.0  0.27282  0.05192  0.51592  1.0000
  H   H109      1.0  0.22177  0.00510  0.35715  1.0000
  S   S32       1.0  0.25772  0.06923  0.65360  1.0000
  S   S33       1.0  0.18389  0.23673  0.36805  1.0000
  Fe  Fe17      1.0  0.23655  0.21074  0.64893  1.0000
  H   H110      1.0  0.25792  0.01386  0.51286  1.0000
  H   H111      1.0  0.25758  0.03833  0.53996  1.0000
  H   H112      1.0  0.13136  0.19376  0.45081  1.0000
  C   C77       1.0  0.21918  0.00955  0.33497  1.0000
  H   H113      1.0  0.21219  0.11182  0.61905  1.0000
  H   H114      1.0  0.17304  0.22135  0.42532  1.0000
  C   C78       1.0  0.31726  0.09602  0.53988  1.0000
  C   C79       1.0  0.16312  0.21332  0.43978  1.0000
  C   C80       1.0  0.21055  0.24155  0.50799  1.0000
  H   H115      1.0  0.31291  0.10028  0.51987  1.0000
  H   H116      1.0  0.15946  0.20024  0.43172  1.0000
  H   H117      1.0  0.21713  0.02755  0.38256  1.0000
  C   C81       1.0  0.14141  0.21620  0.40772  1.0000
  H   H118      1.0  0.29388  0.24125  0.56731  1.0000
  Fe  Fe18      1.0  0.24171  0.04190  0.65848  1.0000
  H   H119      1.0  0.08317  0.23564  0.34151  1.0000
  C   C82       1.0  0.10912  0.23894  0.34254  1.0000
  S   S34       1.0  0.14166  0.24178  0.34330  1.0000
  C   C83       1.0  0.12450  0.24419  0.35949  1.0000
  H   H120      1.0  0.23224  0.99755  0.61718  1.0000
  H   H121      1.0  0.23562  0.00030  0.65741  1.0000
  C   C84       1.0  0.09581  0.24573  0.38459  1.0000
  H   H122      1.0  0.23140  0.01792  0.32650  1.0000
  Fe  Fe19      1.0  0.05321  0.24618  0.38187  1.0000
  C   C85       1.0  0.09492  0.23733  0.87679  1.0000
  S   S35       1.0  0.02791  0.22865  0.87266  1.0000
  S   S36       1.0  0.02298  0.24134  0.78463  1.0000
  H   H123      1.0  0.24408  0.00697  0.74927  1.0000
  C   C86       1.0  0.22639  0.24230  0.70958  1.0000
  H   H124      1.0  0.03818  0.18044  0.79191  1.0000
  C   C87       1.0  0.21520  0.00564  0.85347  1.0000
  S   S37       1.0  0.20315  0.22622  0.91886  1.0000
  N   N8        1.0  0.16191  0.22975  0.75923  1.0000
  S   S38       1.0  0.18593  0.23804  0.84506  1.0000
  S   S39       1.0  0.22165  0.21017  0.69066  1.0000
  H   H125      1.0  0.04492  0.22149  0.75981  1.0000
  S   S40       1.0  0.24072  0.02694  0.70113  1.0000
  C   C88       1.0  0.14695  0.23244  0.74875  1.0000
  H   H126      1.0  0.03813  0.19096  0.75759  1.0000
  C   C89       1.0  0.22586  0.01400  0.72610  1.0000
  S   S41       1.0  0.07512  0.23160  0.89272  1.0000
  C   C90       1.0  0.05128  0.22190  0.78231  1.0000
  C   C91       1.0  0.23112  0.00534  0.74777  1.0000
  H   H127      1.0  0.05761  0.19455  0.77804  1.0000
  H   H128      1.0  0.05093  0.21832  0.84188  1.0000
  C   C92       1.0  0.16846  0.22364  0.73376  1.0000
  N   N9        1.0  0.04303  0.20624  0.79805  1.0000
  H   H129      1.0  0.14741  0.20533  0.77476  1.0000
  Fe  Fe20      1.0  0.05593  0.24258  0.88222  1.0000
  C   C93       1.0  0.19771  0.00086  0.74419  1.0000
  C   C94       1.0  0.21067  0.22879  0.95724  1.0000
  C   C95       1.0  0.21477  0.21639  0.97039  1.0000
  H   H130      1.0  0.01849  0.19117  0.81270  1.0000
  C   C96       1.0  0.21376  0.23241  0.76635  1.0000
  C   C97       1.0  0.21440  0.22069  0.74491  1.0000
  C   C98       1.0  0.22089  0.22555  0.71651  1.0000
  H   H131      1.0  0.22640  0.00809  0.86894  1.0000
  H   H132      1.0  0.21251  0.01544  0.90995  1.0000
  H   H133      1.0  0.20900  0.22847  0.78824  1.0000
  H   H134      1.0  0.21004  0.20776  0.75054  1.0000
  H   H135      1.0  0.13685  0.22076  0.73916  1.0000
  H   H136      1.0  0.19386  0.01892  0.90198  1.0000
  H   H137      1.0  0.10546  0.22917  0.91482  1.0000
  C   C99       1.0  0.04430  0.19243  0.78059  1.0000
  H   H138      1.0  0.18609  0.24384  0.78066  1.0000
  C   C100      1.0  0.12336  0.23818  0.88045  1.0000
  C   C101      1.0  0.02517  0.20286  0.80090  1.0000
  H   H139      1.0  0.05086  0.23261  0.79531  1.0000
  H   H140      1.0  0.26936  0.22249  0.71836  1.0000
  H   H141      1.0  0.15277  0.22181  0.80291  1.0000
  C   C102      1.0  0.00392  0.22911  0.76369  1.0000
  C   C103      1.0  0.00322  0.23012  0.73207  1.0000
  H   H142      1.0  0.25442  0.23612  0.68833  1.0000
  H   H143      1.0  0.21995  0.03625  0.83655  1.0000
  C   C104      1.0  0.15740  0.21740  0.78304  1.0000
  H   H144      1.0  0.28869  0.23482  0.73903  1.0000
  H   H145      1.0  0.06468  0.22472  0.77919  1.0000
  C   C105      1.0  0.19044  0.01071  0.84270  1.0000
  C   C106      1.0  0.21635  0.03328  0.86017  1.0000
  H   H146      1.0  0.18217  0.99728  0.84412  1.0000
  C   C107      1.0  0.28068  0.23441  0.71858  1.0000
  H   H147      1.0  0.01853  0.20191  0.77847  1.0000
  C   C108      1.0  0.20903  0.01170  0.72450  1.0000
  H   H148      1.0  0.16840  0.21497  0.79131  1.0000
  H   H149      1.0  0.21338  0.20553  0.95688  1.0000
  H   H150      1.0  0.01413  0.23848  0.72122  1.0000
  H   H151      1.0  0.01128  0.21818  0.96498  1.0000
  H   H152      1.0  0.19356  0.99853  0.89710  1.0000
  H   H153      1.0  0.13299  0.23575  0.89297  1.0000
  H   H154      1.0  0.04532  0.19641  0.84139  1.0000
  H   H155      1.0  0.20474  0.01835  0.70827  1.0000
  H   H156      1.0  0.17981  0.22158  0.74112  1.0000
  N   N10       1.0  0.20579  0.01542  0.86267  1.0000
  C   C109      1.0  0.22860  0.00567  0.97978  1.0000
  H   H157      1.0  0.28772  0.23403  0.69847  1.0000
  H   H158      1.0  0.06485  0.21021  0.82723  1.0000
  C   C110      1.0  0.05137  0.20779  0.82837  1.0000
  H   H159      1.0  0.17217  0.23272  0.71551  1.0000
  H   H160      1.0  0.18303  0.01791  0.84865  1.0000
  H   H161      1.0  0.20967  0.04105  0.86711  1.0000
  C   C111      1.0  0.20121  0.01199  0.89426  1.0000
  H   H162      1.0  0.15903  0.21164  0.72385  1.0000
  C   C112      1.0  0.99617  0.23226  0.96657  1.0000
  H   H163      1.0  0.02373  0.21303  0.81391  1.0000
  C   C113      1.0  0.00148  0.22005  0.97635  1.0000
  H   H164      1.0  0.14999  0.24190  0.73114  1.0000
  H   H165      1.0  0.18476  0.99924  0.74274  1.0000
  H   H166      1.0  0.22809  0.03714  0.87477  1.0000
  C   C114      1.0  0.21246  0.24274  0.97494  1.0000
  H   H167      1.0  0.19346  0.01275  0.81859  1.0000
  H   H168      1.0  0.25463  0.23685  0.74448  1.0000
  C   C115      1.0  0.09797  0.24400  0.84819  1.0000
  H   H169      1.0  0.14179  0.23698  0.76773  1.0000
  C   C116      1.0  0.12626  0.24443  0.85153  1.0000
  H   H170      1.0  0.21933  0.00823  0.83006  1.0000
  S   S42       1.0  0.00491  0.24509  0.93564  1.0000
  C   C117      1.0  0.10770  0.23445  0.89278  1.0000
  H   H171      1.0  0.24092  0.00794  0.97239  1.0000
  Fe  Fe21      1.0  0.19817  0.24576  0.89201  1.0000
  H   H172      1.0  0.21221  0.00860  0.65906  1.0000
  H   H173      1.0  0.23082  0.24618  0.68750  1.0000
  C   C118      1.0  0.17492  0.24560  0.77156  1.0000
  Fe  Fe22      1.0  0.04387  0.44594  0.20149  1.0000
  S   S43       1.0  0.05514  0.46503  0.23933  1.0000
  S   S44       1.0  0.01784  0.42534  0.19312  1.0000
  Fe  Fe23      1.0  0.07378  0.46197  0.16197  1.0000
  S   S45       1.0  0.08738  0.48281  0.19667  1.0000
  S   S46       1.0  0.07784  0.45825  0.11212  1.0000
  Fe  Fe24      1.0  0.07917  0.46245  0.23065  1.0000
  S   S47       1.0  0.09809  0.46376  0.26890  1.0000
  Fe  Fe25      1.0  0.06260  0.48424  0.20359  1.0000
  S   S48       1.0  0.06729  0.44170  0.19537  1.0000
  S   S49       1.0  0.04967  0.46515  0.16649  1.0000
  S   S50       1.0  0.12222  0.42944  0.03813  1.0000
  H   H174      1.0  0.01676  0.39614  0.09392  1.0000
  H   H175      1.0  0.16155  0.44106  0.03295  1.0000
  N   N11       1.0  0.27687  0.25899  0.03273  1.0000
  H   H176      1.0  0.06605  0.42238  0.13449  1.0000
  H   H177      1.0  0.21914  0.25485  0.01911  1.0000
  C   C119      1.0  0.25556  0.28815  0.32289  1.0000
  H   H178      1.0  0.12917  0.42159  0.28340  1.0000
  N   N12       1.0  0.00673  0.47176  0.23214  1.0000
  N   N13       1.0  0.25030  0.30162  0.31486  1.0000
  H   H179      1.0  0.06280  0.41933  0.09445  1.0000
  H   H180      1.0  0.01540  0.47619  0.27892  1.0000
  H   H181      1.0  0.01973  0.46041  0.25972  1.0000
  C   C120      1.0  0.08024  0.42271  0.31992  1.0000
  C   C121      1.0  0.03033  0.39899  0.09286  1.0000
  C   C122      1.0  0.18055  0.42570  0.05567  1.0000
  C   C123      1.0  0.23272  0.29437  0.30259  1.0000
  C   C124      1.0  0.09485  0.44968  0.29849  1.0000
  H   H182      1.0  0.30402  0.37920  0.01339  1.0000
  C   C125      1.0  0.01890  0.47260  0.25703  1.0000
  H   H183      1.0  0.07292  0.43021  0.27737  1.0000
  H   H184      1.0  0.13094  0.44036  0.30277  1.0000
  C   C126      1.0  0.10948  0.43708  0.05847  1.0000
  C   C127      1.0  0.11182  0.43913  0.09013  1.0000
  C   C128      1.0  0.10226  0.44550  0.10702  1.0000
  C   C129      1.0  0.09037  0.45012  0.09236  1.0000
  C   C130      1.0  0.08796  0.44795  0.06075  1.0000
  C   C131      1.0  0.09736  0.44141  0.04392  1.0000
  H   H185      1.0  0.12116  0.43586  0.10169  1.0000
  H   H186      1.0  0.10429  0.44708  0.13128  1.0000
  H   H187      1.0  0.07881  0.45146  0.04910  1.0000
  H   H188      1.0  0.09542  0.43998  0.01963  1.0000
  C   C132      1.0  0.00228  0.42017  0.21985  1.0000
  C   C133      1.0  0.00641  0.42454  0.25047  1.0000
  H   H189      1.0  0.14863  0.41913  0.06849  1.0000
  H   H190      1.0  0.01939  0.43109  0.25831  1.0000
  H   H191      1.0  0.24465  0.25453  0.25883  1.0000
  C   C134      1.0  0.29418  0.26826  0.02376  1.0000
  H   H192      1.0  0.02472  0.42386  0.11955  1.0000
  H   H193      1.0  0.07021  0.41043  0.31811  1.0000
  H   H194      1.0  0.28778  0.41789  0.19257  1.0000
  H   H195      1.0  0.23106  0.28627  0.28210  1.0000
  H   H196      1.0  0.29182  0.43609  0.21604  1.0000
  H   H197      1.0  0.13889  0.40458  0.03782  1.0000
  C   C135      1.0  0.15054  0.41016  0.05274  1.0000
  H   H198      1.0  0.30884  0.36336  0.99543  1.0000
  H   H199      1.0  0.31645  0.43324  0.24045  1.0000
  C   C136      1.0  0.03803  0.42586  0.11751  1.0000
  H   H200      1.0  0.22815  0.30412  0.29680  1.0000
  S   S51       1.0  0.30784  0.42052  0.01114  1.0000
  N   N14       1.0  0.16541  0.41844  0.03506  1.0000
  S   S52       1.0  0.22170  0.25149  0.30483  1.0000
  H   H201      1.0  0.31295  0.41527  0.21678  1.0000
  H   H202      1.0  0.15159  0.40005  0.06617  1.0000
  H   H203      1.0  0.17843  0.41195  0.00055  1.0000
  C   C137      1.0  0.08174  0.43390  0.29677  1.0000
  H   H204      1.0  0.31008  0.41664  0.16103  1.0000
  H   H205      1.0  0.30263  0.26247  0.03230  1.0000
  C   C138      1.0  0.00631  0.48827  0.22911  1.0000
  C   C139      1.0  0.99373  0.41999  0.27117  1.0000
  H   H206      1.0  0.06040  0.40203  0.11746  1.0000
  H   H207      1.0  0.03440  0.40477  0.07087  1.0000
  H   H208      1.0  0.99705  0.42322  0.29489  1.0000
  C   C140      1.0  0.31519  0.44781  0.05115  1.0000
  C   C141      1.0  0.26622  0.26738  0.02154  1.0000
  H   H209      1.0  0.01270  0.45458  0.20541  1.0000
  H   H210      1.0  0.28442  0.25193  0.07527  1.0000
  C   C142      1.0  0.29847  0.36716  0.00011  1.0000
  H   H211      1.0  0.03177  0.38700  0.09274  1.0000
  H   H212      1.0  0.19197  0.43204  0.04293  1.0000
  C   C143      1.0  0.32326  0.45763  0.07736  1.0000
  H   H213      1.0  0.16843  0.39573  0.02602  1.0000
  H   H214      1.0  0.17961  0.43506  0.07179  1.0000
  H   H215      1.0  0.03171  0.48191  0.25284  1.0000
  H   H216      1.0  0.15216  0.42666  0.00197  1.0000
  H   H217      1.0  0.28189  0.27113  0.07679  1.0000
  C   C144      1.0  0.31664  0.45603  0.30820  1.0000
  H   H218      1.0  0.00249  0.49242  0.25018  1.0000
  C   C145      1.0  0.29480  0.43162  0.19439  1.0000
  H   H219      1.0  0.04247  0.43242  0.09631  1.0000
  H   H220      1.0  0.26390  0.25178  0.07354  1.0000
  C   C146      1.0  0.32177  0.45468  0.19555  1.0000
  H   H221      1.0  0.15865  0.42704  0.29818  1.0000
  H   H222      1.0  0.02442  0.47592  0.19788  1.0000
  H   H223      1.0  0.18249  0.41599  0.06904  1.0000
  H   H224      1.0  0.28975  0.35774  0.01464  1.0000
  C   C147      1.0  0.05812  0.41354  0.11614  1.0000
  H   H225      1.0  0.03579  0.39011  0.14873  1.0000
  H   H226      1.0  0.27093  0.28040  0.03062  1.0000
  H   H227      1.0  0.25744  0.32207  0.28526  1.0000
  C   C148      1.0  0.03439  0.40207  0.14715  1.0000
  N   N15       1.0  0.04022  0.41010  0.11842  1.0000
  H   H228      1.0  0.04156  0.41018  0.16690  1.0000
  C   C149      1.0  0.01188  0.46680  0.20370  1.0000
  C   C150      1.0  0.31646  0.43038  0.16393  1.0000
  H   H229      1.0  0.17435  0.43840  0.00434  1.0000
  N   N16       1.0  0.31300  0.43641  0.19301  1.0000
  C   C151      1.0  0.16336  0.43177  0.01785  1.0000
  H   H230      1.0  0.30655  0.45098  0.03712  1.0000
  H   H231      1.0  0.25317  0.26093  0.02848  1.0000
  C   C152      1.0  0.31821  0.43385  0.04332  1.0000
  H   H232      1.0  0.26027  0.30421  0.27107  1.0000
  C   C153      1.0  0.16720  0.40618  0.01396  1.0000
  H   H233      1.0  0.02097  0.39953  0.14978  1.0000
  C   C154      1.0  0.31901  0.42907  0.21817  1.0000
  C   C155      1.0  0.27680  0.25847  0.06599  1.0000
  H   H234      1.0  0.29949  0.28128  0.03302  1.0000
  C   C156      1.0  0.26113  0.31183  0.29186  1.0000
  H   H235      1.0  0.32072  0.46833  0.08316  1.0000
  H   H236      1.0  0.28993  0.43702  0.17569  1.0000
  H   H237      1.0  0.04541  0.43449  0.13641  1.0000
  H   H238      1.0  0.22428  0.28646  0.31926  1.0000
  H   H239      1.0  0.00288  0.46574  0.18444  1.0000
  H   H240      1.0  0.31227  0.43588  0.14447  1.0000
  H   H241      1.0  0.25443  0.27985  0.30294  1.0000
  H   H242      1.0  0.30999  0.46392  0.30438  1.0000
  H   H243      1.0  0.31768  0.46073  0.17684  1.0000
  H   H244      1.0  0.27449  0.31751  0.30036  1.0000
  H   H245      1.0  0.11496  0.42082  0.31172  1.0000
  H   H246      1.0  0.15621  0.40075  0.99747  1.0000
  H   H247      1.0  0.99735  0.48815  0.21039  1.0000
  C   C157      1.0  0.12825  0.42700  0.30568  1.0000
  H   H248      1.0  0.16104  0.44620  0.31683  1.0000
  H   H249      1.0  0.31974  0.45978  0.21735  1.0000
  H   H250      1.0  0.26553  0.26754  0.99647  1.0000
  H   H251      1.0  0.29476  0.26861  0.99879  1.0000
  H   H252      1.0  0.13611  0.40054  0.31199  1.0000
  C   C158      1.0  0.15714  0.43265  0.31984  1.0000
  H   H253      1.0  0.26675  0.36457  0.99295  1.0000
  H   H254      1.0  0.08929  0.28262  0.32220  1.0000
  C   C159      1.0  0.10621  0.45426  0.32390  1.0000
  H   H255      1.0  0.28120  0.38601  0.99232  1.0000
  Fe  Fe26      1.0  0.03981  0.27299  0.37535  1.0000
  S   S53       1.0  0.04196  0.25823  0.41458  1.0000
  S   S54       1.0  0.04642  0.30069  0.37510  1.0000
  H   H256      1.0  0.99334  0.29428  0.45541  1.0000
  H   H257      1.0  0.11926  0.39803  0.53854  1.0000
  Fe  Fe27      1.0  0.10886  0.38368  0.45106  1.0000
  S   S55       1.0  0.11839  0.39275  0.40604  1.0000
  S   S56       1.0  0.09753  0.35696  0.46574  1.0000
  Fe  Fe28      1.0  0.11990  0.41876  0.47843  1.0000
  S   S57       1.0  0.13050  0.43085  0.43499  1.0000
  Fe  Fe29      1.0  0.10706  0.41134  0.41204  1.0000
  S   S58       1.0  0.08986  0.41208  0.37235  1.0000
  Fe  Fe30      1.0  0.14137  0.41156  0.43127  1.0000
  S   S59       1.0  0.16571  0.41580  0.40837  1.0000
  S   S60       1.0  0.09573  0.40075  0.45565  1.0000
  H   H258      1.0  0.26973  0.47597  0.54888  1.0000
  S   S61       1.0  0.21755  0.27160  0.37855  1.0000
  H   H259      1.0  0.13725  0.25457  0.40233  1.0000
  H   H260      1.0  0.08747  0.26911  0.35271  1.0000
  C   C160      1.0  0.29659  0.46822  0.55036  1.0000
  H   H261      1.0  0.09238  0.36011  0.57683  1.0000
  Fe  Fe31      1.0  0.20135  0.28508  0.36646  1.0000
  S   S62       1.0  0.21063  0.31269  0.35805  1.0000
  S   S63       1.0  0.18124  0.27060  0.39706  1.0000
  Fe  Fe32      1.0  0.28635  0.42884  0.39632  1.0000
  S   S64       1.0  0.30078  0.41705  0.42306  1.0000
  S   S65       1.0  0.29473  0.44296  0.35309  1.0000
  Fe  Fe33      1.0  0.25983  0.42173  0.44385  1.0000
  S   S66       1.0  0.27292  0.40976  0.47389  1.0000
  S   S67       1.0  0.23711  0.42303  0.46555  1.0000
  Fe  Fe34      1.0  0.29714  0.43059  0.46383  1.0000
  Fe  Fe35      1.0  0.27532  0.39718  0.43105  1.0000
  S   S68       1.0  0.26983  0.36985  0.43436  1.0000
  S   S69       1.0  0.28401  0.44357  0.43655  1.0000
  S   S70       1.0  0.26092  0.40791  0.40151  1.0000
  H   H262      1.0  0.10280  0.28065  0.40246  1.0000
  H   H263      1.0  0.02111  0.27394  0.48244  1.0000
  C   C161      1.0  0.22702  0.32835  0.37974  1.0000
  C   C162      1.0  0.23477  0.32472  0.40517  1.0000
  C   C163      1.0  0.24798  0.33756  0.42155  1.0000
  C   C164      1.0  0.25346  0.35409  0.41277  1.0000
  C   C165      1.0  0.24575  0.35769  0.38724  1.0000
  C   C166      1.0  0.23257  0.34486  0.37083  1.0000
  H   H264      1.0  0.23063  0.31204  0.41222  1.0000
  H   H265      1.0  0.25395  0.33467  0.44122  1.0000
  H   H266      1.0  0.25012  0.37031  0.37990  1.0000
  H   H267      1.0  0.22673  0.34771  0.35097  1.0000
  C   C167      1.0  0.08588  0.36398  0.55830  1.0000
  C   C168      1.0  0.18534  0.41745  0.42481  1.0000
  C   C169      1.0  0.19817  0.41854  0.40580  1.0000
  C   C170      1.0  0.21404  0.42020  0.41777  1.0000
  C   C171      1.0  0.21733  0.42089  0.44900  1.0000
  C   C172      1.0  0.20449  0.41971  0.46801  1.0000
  C   C173      1.0  0.18858  0.41792  0.45604  1.0000
  H   H268      1.0  0.19587  0.41826  0.38162  1.0000
  H   H269      1.0  0.22378  0.42121  0.40279  1.0000
  H   H270      1.0  0.20685  0.42025  0.49221  1.0000
  H   H271      1.0  0.17889  0.41716  0.47098  1.0000
  C   C174      1.0  0.28378  0.46874  0.50128  1.0000
  C   C175      1.0  0.31173  0.25257  0.60464  1.0000
  C   C176      1.0  0.13843  0.43268  0.35787  1.0000
  H   H272      1.0  0.10325  0.40549  0.57553  1.0000
  C   C177      1.0  0.10455  0.44316  0.34731  1.0000
  C   C178      1.0  0.08363  0.34132  0.44015  1.0000
  C   C179      1.0  0.07826  0.32452  0.44726  1.0000
  C   C180      1.0  0.06699  0.31186  0.42746  1.0000
  C   C181      1.0  0.06091  0.31597  0.40049  1.0000
  C   C182      1.0  0.06627  0.33275  0.39347  1.0000
  C   C183      1.0  0.07765  0.34537  0.41308  1.0000
  H   H273      1.0  0.08284  0.32129  0.46818  1.0000
  H   H274      1.0  0.06293  0.29897  0.43315  1.0000
  H   H275      1.0  0.06157  0.33604  0.37271  1.0000
  H   H276      1.0  0.08161  0.35825  0.40739  1.0000
  H   H277      1.0  0.06938  0.48070  0.60320  1.0000
  H   H278      1.0  0.10673  0.27783  0.33443  1.0000
  C   C184      1.0  0.11201  0.38472  0.54328  1.0000
  H   H279      1.0  0.27529  0.43616  0.54715  1.0000
  Fe  Fe36      1.0  0.16959  0.25270  0.35784  1.0000
  S   S71       1.0  0.07092  0.44823  0.60230  1.0000
  S   S72       1.0  0.12246  0.43106  0.52546  1.0000
  S   S73       1.0  0.13264  0.40102  0.47607  1.0000
  C   C185      1.0  0.31796  0.43742  0.58497  1.0000
  H   H280      1.0  0.29447  0.46764  0.49015  1.0000
  C   C186      1.0  0.01741  0.28758  0.43053  1.0000
  H   H281      1.0  0.12180  0.28870  0.38308  1.0000
  H   H282      1.0  0.99387  0.25848  0.41159  1.0000
  H   H283      1.0  0.14322  0.40482  0.35115  1.0000
  H   H284      1.0  0.08358  0.39046  0.58652  1.0000
  C   C187      1.0  0.27700  0.44272  0.52555  1.0000
  C   C188      1.0  0.31379  0.43623  0.55362  1.0000
  C   C189      1.0  0.10781  0.43557  0.54642  1.0000
  C   C190      1.0  0.11211  0.44123  0.57676  1.0000
  C   C191      1.0  0.10088  0.44480  0.59444  1.0000
  C   C192      1.0  0.08524  0.44295  0.58183  1.0000
  C   C193      1.0  0.08095  0.43731  0.55150  1.0000
  C   C194      1.0  0.09208  0.43350  0.53395  1.0000
  H   H285      1.0  0.12424  0.44287  0.58667  1.0000
  H   H286      1.0  0.10440  0.44915  0.61768  1.0000
  H   H287      1.0  0.06892  0.43590  0.54144  1.0000
  H   H288      1.0  0.08858  0.42923  0.51066  1.0000
  H   H289      1.0  0.12440  0.30818  0.34102  1.0000
  H   H290      1.0  0.01449  0.25831  0.45260  1.0000
  C   C195      1.0  0.09617  0.28054  0.34234  1.0000
  C   C196      1.0  0.01027  0.26615  0.46702  1.0000
  H   H291      1.0  0.10279  0.38890  0.59883  1.0000
  H   H292      1.0  0.11924  0.38141  0.56132  1.0000
  C   C197      1.0  0.26713  0.46262  0.54490  1.0000
  C   C198      1.0  0.09618  0.39205  0.57952  1.0000
  H   H293      1.0  0.11313  0.44701  0.36700  1.0000
  H   H294      1.0  0.14117  0.44607  0.35554  1.0000
  C   C199      1.0  0.11332  0.30986  0.34920  1.0000
  Fe  Fe37      1.0  0.19654  0.25553  0.40628  1.0000
  H   H295      1.0  0.30200  0.42685  0.54459  1.0000
  N   N17       1.0  0.09500  0.38174  0.55218  1.0000
  C   C200      1.0  0.30690  0.24850  0.57412  1.0000
  H   H296      1.0  0.26480  0.45659  0.56704  1.0000
  H   H297      1.0  0.02835  0.29609  0.44501  1.0000
  H   H298      1.0  0.14734  0.43178  0.37574  1.0000
  C   C201      1.0  0.08593  0.38623  0.52743  1.0000
  C   C202      1.0  0.08754  0.29764  0.37458  1.0000
  H   H299      1.0  0.26478  0.31774  0.35219  1.0000
  H   H300      1.0  0.31676  0.42517  0.35298  1.0000
  N   N18       1.0  0.13972  0.42481  0.32906  1.0000
  C   C203      1.0  0.31887  0.25417  0.55221  1.0000
  H   H301      1.0  0.30748  0.46734  0.53964  1.0000
  H   H302      1.0  0.24782  0.32237  0.33682  1.0000
  H   H303      1.0  0.10674  0.31269  0.32942  1.0000
  Fe  Fe38      1.0  0.20381  0.25398  0.33905  1.0000
  C   C204      1.0  0.09172  0.42719  0.34514  1.0000
  H   H304      1.0  0.07898  0.28675  0.38663  1.0000
  S   S74       1.0  0.01394  0.25473  0.36032  1.0000
  N   N19       1.0  0.21466  0.36976  0.44452  1.0000
  C   C205      1.0  0.21828  0.37900  0.41639  1.0000
  C   C206      1.0  0.20821  0.35174  0.43720  1.0000
  C   C207      1.0  0.20203  0.37348  0.46043  1.0000
  C   C208      1.0  0.23020  0.37493  0.46405  1.0000
  H   H305      1.0  0.20679  0.37578  0.40136  1.0000
  H   H306      1.0  0.22751  0.37624  0.40349  1.0000
  H   H307      1.0  0.22363  0.39264  0.42123  1.0000
  H   H308      1.0  0.19676  0.34745  0.42175  1.0000
  H   H309      1.0  0.21765  0.34851  0.42588  1.0000
  H   H310      1.0  0.20509  0.34436  0.45785  1.0000
  H   H311      1.0  0.20667  0.38698  0.46647  1.0000
  H   H312      1.0  0.19892  0.36668  0.48172  1.0000
  H   H313      1.0  0.19022  0.37002  0.44618  1.0000
  H   H314      1.0  0.22810  0.36797  0.48522  1.0000
  H   H315      1.0  0.23526  0.38841  0.47042  1.0000
  H   H316      1.0  0.24015  0.37268  0.45248  1.0000
  H   H317      1.0  0.30922  0.42898  0.59972  1.0000
  H   H318      1.0  0.26527  0.43651  0.51104  1.0000
  H   H319      1.0  0.09257  0.39952  0.52200  1.0000
  H   H320      1.0  0.11796  0.32096  0.36493  1.0000
  H   H321      1.0  0.27247  0.46300  0.48549  1.0000
  C   C209      1.0  0.32049  0.43433  0.33581  1.0000
  S   S75       1.0  0.18850  0.26834  0.32606  1.0000
  C   C210      1.0  0.07690  0.48965  0.58669  1.0000
  H   H322      1.0  0.12564  0.42656  0.36619  1.0000
  C   C211      1.0  0.10264  0.48903  0.60738  1.0000
  H   H323      1.0  0.09588  0.48001  0.62442  1.0000
  H   H324      1.0  0.08000  0.29975  0.35548  1.0000
  H   H325      1.0  0.08489  0.35598  0.53791  1.0000
  N   N20       1.0  0.28113  0.46059  0.53056  1.0000
  H   H326      1.0  0.02206  0.28042  0.41538  1.0000
  H   H327      1.0  0.25529  0.45690  0.53042  1.0000
  H   H328      1.0  0.08472  0.37859  0.50649  1.0000
  S   S76       1.0  0.05204  0.26204  0.34357  1.0000
  H   H329      1.0  0.09156  0.30864  0.39043  1.0000
  H   H330      1.0  0.29537  0.46194  0.57223  1.0000
  H   H331      1.0  0.07309  0.38436  0.53339  1.0000
  H   H332      1.0  0.07295  0.36125  0.56492  1.0000
  S   S77       1.0  0.31977  0.44726  0.49474  1.0000
  C   C212      1.0  0.11117  0.29155  0.39020  1.0000
  H   H333      1.0  0.24355  0.30477  0.35970  1.0000
  H   H334      1.0  0.11158  0.37728  0.52249  1.0000
  C   C213      1.0  0.31174  0.44439  0.33106  1.0000
  N   N21       1.0  0.10205  0.29490  0.36407  1.0000
  H   H335      1.0  0.28714  0.44077  0.51416  1.0000
  H   H336      1.0  0.32318  0.45409  0.39362  1.0000
  C   C214      1.0  0.25173  0.31211  0.34205  1.0000
  H   H337      1.0  0.11619  0.30229  0.40669  1.0000
  H   H338      1.0  0.16603  0.43116  0.33719  1.0000
  H   H339      1.0  0.12187  0.40063  0.33979  1.0000
  H   H340      1.0  0.20770  0.25096  0.51938  1.0000
  Fe  Fe39      1.0  0.07001  0.45443  0.65246  1.0000
  H   H341      1.0  0.29986  0.48162  0.55535  1.0000
  H   H342      1.0  0.11206  0.25557  0.42461  1.0000
  H   H343      1.0  0.24756  0.28011  0.34007  1.0000
  C   C215      1.0  0.13505  0.40690  0.33311  1.0000
  H   H344      1.0  0.01308  0.29537  0.41587  1.0000
  H   H345      1.0  0.31494  0.25113  0.52862  1.0000
  C   C216      1.0  0.11121  0.25101  0.40157  1.0000
  C   C217      1.0  0.12552  0.25046  0.38902  1.0000
  H   H346      1.0  0.10330  0.48157  0.58738  1.0000
  S   S78       1.0  0.29686  0.24622  0.63270  1.0000
  N   N22       1.0  0.00388  0.27638  0.44857  1.0000
  S   S79       1.0  0.19855  0.25107  0.45662  1.0000
  H   H347      1.0  0.26875  0.29310  0.33225  1.0000
  H   H348      1.0  0.07712  0.48210  0.56649  1.0000
  H   H349      1.0  0.28663  0.48220  0.50404  1.0000
  C   C218      1.0  0.99811  0.28630  0.46859  1.0000
  S   S80       1.0  0.07822  0.24678  0.40170  1.0000
  H   H350      1.0  0.00845  0.29458  0.48449  1.0000
  H   H351      1.0  0.00042  0.25756  0.48104  1.0000
  H   H352      1.0  0.11628  0.46652  0.32556  1.0000
  Fe  Fe40      1.0  0.04352  0.45254  0.69749  1.0000
  S   S81       1.0  0.06277  0.46599  0.73499  1.0000
  S   S82       1.0  0.01569  0.44636  0.69752  1.0000
  H   H353      1.0  0.17033  0.25087  0.79029  1.0000
  S   S83       1.0  0.09114  0.46822  0.68660  1.0000
  Fe  Fe41      1.0  0.07575  0.44998  0.71990  1.0000
  S   S84       1.0  0.08897  0.43728  0.74891  1.0000
  Fe  Fe42      1.0  0.07655  0.48325  0.69910  1.0000
  S   S85       1.0  0.05540  0.43515  0.68475  1.0000
  H   H354      1.0  0.24088  0.43916  0.88634  1.0000
  Fe  Fe43      1.0  0.05500  0.27654  0.87579  1.0000
  S   S86       1.0  0.05333  0.26073  0.91567  1.0000
  S   S87       1.0  0.07580  0.30236  0.87331  1.0000
  S   S88       1.0  0.02719  0.26575  0.86485  1.0000
  S   S89       1.0  0.05880  0.25882  0.84322  1.0000
  Fe  Fe44      1.0  0.10055  0.39214  0.94292  1.0000
  S   S90       1.0  0.11659  0.40445  0.90500  1.0000
  S   S91       1.0  0.07763  0.36773  0.93929  1.0000
  C   C219      1.0  0.30652  0.42826  0.74979  1.0000
  S   S92       1.0  0.13641  0.43650  0.95268  1.0000
  Fe  Fe45      1.0  0.11333  0.42729  0.92058  1.0000
  S   S93       1.0  0.10417  0.44330  0.89122  1.0000
  Fe  Fe46      1.0  0.13836  0.41246  0.93993  1.0000
  S   S94       1.0  0.16090  0.40626  0.93130  1.0000
  S   S95       1.0  0.09595  0.41451  0.95680  1.0000
  H   H355      1.0  0.27605  0.35372  0.93302  1.0000
  S   S96       1.0  0.21946  0.26851  0.87704  1.0000
  H   H356      1.0  0.31854  0.47596  0.82081  1.0000
  S   S97       1.0  0.19112  0.27667  0.83831  1.0000
  H   H357      1.0  0.27744  0.46868  0.84786  1.0000
  Fe  Fe47      1.0  0.20628  0.26156  0.83064  1.0000
  Fe  Fe48      1.0  0.20244  0.28146  0.88573  1.0000
  S   S98       1.0  0.20812  0.30520  0.91379  1.0000
  S   S99       1.0  0.18174  0.25898  0.90344  1.0000
  Fe  Fe49      1.0  0.29102  0.43735  0.90712  1.0000
  S   S100      1.0  0.29766  0.41715  0.92548  1.0000
  S   S101      1.0  0.30292  0.45583  0.87044  1.0000
  Fe  Fe50      1.0  0.26006  0.42752  0.94474  1.0000
  H   H358      1.0  0.29229  0.34831  0.94892  1.0000
  S   S102      1.0  0.24069  0.43810  0.95475  1.0000
  H   H359      1.0  0.12190  0.28186  0.94598  1.0000
  Fe  Fe51      1.0  0.27021  0.40074  0.91903  1.0000
  S   S103      1.0  0.26559  0.37639  0.89424  1.0000
  S   S104      1.0  0.28715  0.44552  0.95366  1.0000
  S   S105      1.0  0.26387  0.42055  0.89763  1.0000
  C   C220      1.0  0.31783  0.45478  0.84531  1.0000
  H   H360      1.0  0.12765  0.49425  0.81623  1.0000
  C   C221      1.0  0.24019  0.45115  0.88073  1.0000
  H   H361      1.0  0.23021  0.26696  0.72547  1.0000
  C   C222      1.0  0.22397  0.32493  0.90753  1.0000
  C   C223      1.0  0.23542  0.32724  0.88530  1.0000
  C   C224      1.0  0.24797  0.34315  0.88133  1.0000
  C   C225      1.0  0.24912  0.35686  0.89937  1.0000
  C   C226      1.0  0.23769  0.35457  0.92162  1.0000
  C   C227      1.0  0.22520  0.33865  0.92571  1.0000
  H   H362      1.0  0.23459  0.31677  0.87122  1.0000
  H   H363      1.0  0.25680  0.34482  0.86411  1.0000
  H   H364      1.0  0.23841  0.36503  0.93560  1.0000
  H   H365      1.0  0.21636  0.33692  0.94293  1.0000
  C   C228      1.0  0.05081  0.37052  0.86770  1.0000
  H   H366      1.0  0.05717  0.40103  0.89195  1.0000
  H   H367      1.0  0.29949  0.26544  0.73992  1.0000
  H   H368      1.0  0.18491  0.43944  0.95374  1.0000
  C   C229      1.0  0.26626  0.24850  0.74465  1.0000
  C   C230      1.0  0.18312  0.41566  0.93732  1.0000
  C   C231      1.0  0.19175  0.43194  0.94899  1.0000
  C   C232      1.0  0.20933  0.43855  0.95425  1.0000
  C   C233      1.0  0.21853  0.42907  0.94772  1.0000
  C   C234      1.0  0.20992  0.41289  0.93570  1.0000
  C   C235      1.0  0.19234  0.40625  0.93064  1.0000
  S   S106      1.0  0.21942  0.26464  0.78593  1.0000
  H   H369      1.0  0.27298  0.34290  0.96746  1.0000
  S   S107      1.0  0.14511  0.24780  0.83360  1.0000
  H   H370      1.0  0.31229  0.37821  0.94779  1.0000
  H   H371      1.0  0.05384  0.36474  0.88801  1.0000
  H   H372      1.0  0.09218  0.27535  0.87986  1.0000
  H   H373      1.0  0.26887  0.45496  0.91012  1.0000
  H   H374      1.0  0.07102  0.39279  0.90889  1.0000
  C   C236      1.0  0.09012  0.49471  0.79375  1.0000
  C   C237      1.0  0.07752  0.34959  0.92150  1.0000
  C   C238      1.0  0.06326  0.33463  0.92253  1.0000
  C   C239      1.0  0.06257  0.32000  0.90809  1.0000
  C   C240      1.0  0.07611  0.32031  0.89220  1.0000
  C   C241      1.0  0.09034  0.33531  0.89101  1.0000
  C   C242      1.0  0.09109  0.34989  0.90571  1.0000
  H   H375      1.0  0.05271  0.33430  0.93470  1.0000
  H   H376      1.0  0.05155  0.30853  0.90915  1.0000
  H   H377      1.0  0.10083  0.33566  0.87864  1.0000
  H   H378      1.0  0.10213  0.36134  0.90474  1.0000
  C   C243      1.0  0.09195  0.43800  0.78874  1.0000
  C   C244      1.0  0.08473  0.44587  0.80745  1.0000
  C   C245      1.0  0.08829  0.44704  0.83889  1.0000
  C   C246      1.0  0.09891  0.44019  0.85195  1.0000
  C   C247      1.0  0.10559  0.43174  0.83337  1.0000
  C   C248      1.0  0.10215  0.43071  0.80191  1.0000
  H   H379      1.0  0.07650  0.45114  0.79767  1.0000
  H   H380      1.0  0.08290  0.45342  0.85319  1.0000
  H   H381      1.0  0.11386  0.42651  0.84311  1.0000
  H   H382      1.0  0.10775  0.42454  0.78761  1.0000
  H   H383      1.0  0.29252  0.41379  0.69556  1.0000
  C   C249      1.0  0.00743  0.42529  0.74542  1.0000
  H   H384      1.0  0.13599  0.30238  0.93668  1.0000
  H   H385      1.0  0.02012  0.42613  0.74587  1.0000
  H   H386      1.0  0.11563  0.29886  0.94937  1.0000
  H   H387      1.0  0.20929  0.25233  0.96515  1.0000
  H   H388      1.0  0.10975  0.31167  0.90366  1.0000
  C   C250      1.0  0.26585  0.24791  0.69031  1.0000
  H   H389      1.0  0.08367  0.37802  0.87680  1.0000
  H   H390      1.0  0.29895  0.26479  0.69936  1.0000
  H   H391      1.0  0.31663  0.43154  0.76800  1.0000
  C   C251      1.0  0.06042  0.39370  0.83462  1.0000
  H   H392      1.0  0.31526  0.45772  0.72394  1.0000
  H   H393      1.0  0.09637  0.26645  0.91366  1.0000
  H   H394      1.0  0.10716  0.47930  0.82304  1.0000
  C   C252      1.0  0.09784  0.27835  0.90333  1.0000
  H   H395      1.0  0.29559  0.38287  0.93180  1.0000
  H   H396      1.0  0.12012  0.28031  0.86229  1.0000
  H   H397      1.0  0.04797  0.36137  0.84847  1.0000
  H   H398      1.0  0.31802  0.41050  0.71499  1.0000
  H   H399      1.0  0.03920  0.37232  0.87189  1.0000
  H   H400      1.0  0.12993  0.31506  0.89021  1.0000
  C   C253      1.0  0.00231  0.43435  0.72473  1.0000
  S   S108      1.0  0.26423  0.40622  0.96573  1.0000
  Fe  Fe52      1.0  0.29160  0.42375  0.97146  1.0000
  H   H401      1.0  0.25695  0.45734  0.82976  1.0000
  H   H402      1.0  0.09021  0.28358  0.91583  1.0000
  H   H403      1.0  0.12445  0.27112  0.89554  1.0000
  C   C254      1.0  0.12511  0.28300  0.88619  1.0000
  H   H404      1.0  0.09075  0.39508  0.85191  1.0000
  H   H405      1.0  0.21676  0.40542  0.93050  1.0000
  H   H406      1.0  0.99999  0.40789  0.78116  1.0000
  H   H407      1.0  0.13859  0.29153  0.88616  1.0000
  H   H408      1.0  0.24748  0.47864  0.84884  1.0000
  C   C255      1.0  0.12260  0.29349  0.93539  1.0000
  Fe  Fe53      1.0  0.11893  0.42186  0.98777  1.0000
  N   N23       1.0  0.11558  0.29018  0.90387  1.0000
  C   C256      1.0  0.11672  0.30587  0.89065  1.0000
  S   S109      1.0  0.05658  0.47090  0.66264  1.0000
  H   H409      1.0  0.26939  0.37534  0.95851  1.0000
  H   H410      1.0  0.18582  0.39365  0.92157  1.0000
  N   N24       1.0  0.25699  0.46425  0.87650  1.0000
  H   H411      1.0  0.29123  0.43360  0.69957  1.0000
  C   C257      1.0  0.11442  0.49255  0.81809  1.0000
  C   C258      1.0  0.26460  0.45922  0.85128  1.0000
  H   H412      1.0  0.29880  0.41470  0.75079  1.0000
  C   C259      1.0  0.29140  0.26432  0.71920  1.0000
  H   H413      1.0  0.11109  0.30372  0.86711  1.0000
  H   H414      1.0  0.07071  0.40579  0.82977  1.0000
  Fe  Fe54      1.0  0.02561  0.24837  0.90306  1.0000
  H   H415      1.0  0.23413  0.45451  0.89974  1.0000
  H   H416      1.0  0.26594  0.44741  0.85577  1.0000
  C   C260      1.0  0.32318  0.45085  0.71943  1.0000
  H   H417      1.0  0.24988  0.48410  0.88847  1.0000
  C   C261      1.0  0.25552  0.47998  0.86973  1.0000
  C   C262      1.0  0.22585  0.25404  0.73108  1.0000
  H   H418      1.0  0.10364  0.48993  0.74312  1.0000
  N   N25       1.0  0.27605  0.24880  0.71824  1.0000
  H   H419      1.0  0.07784  0.37446  0.83730  1.0000
  C   C263      1.0  0.06813  0.39807  0.88791  1.0000
  N   N26       1.0  0.28972  0.36878  0.97188  1.0000
  H   H420      1.0  0.07899  0.40998  0.88467  1.0000
  H   H421      1.0  0.32021  0.43358  0.86472  1.0000
  H   H422      1.0  0.04901  0.39608  0.83756  1.0000
  H   H423      1.0  0.05803  0.38535  0.81427  1.0000
  N   N27       1.0  0.06481  0.38641  0.86169  1.0000
  C   C264      1.0  0.07994  0.38338  0.85665  1.0000
  H   H424      1.0  0.23172  0.44886  0.86014  1.0000
  H   H425      1.0  0.26801  0.49010  0.86652  1.0000
  N   N28       1.0  0.31358  0.43269  0.71997  1.0000
  S   S110      1.0  0.12219  0.39832  0.97667  1.0000
  C   C265      1.0  0.30174  0.38149  0.95348  1.0000
  C   C266      1.0  0.27618  0.37390  0.97931  1.0000
  C   C267      1.0  0.99599  0.41493  0.76530  1.0000
  C   C268      1.0  0.29993  0.42746  0.69609  1.0000
  Fe  Fe55      1.0  0.17133  0.25342  0.85532  1.0000
  C   C269      1.0  0.28249  0.35270  0.95467  1.0000
  H   H426      1.0  0.10055  0.47320  0.76787  1.0000
  H   H427      1.0  0.30504  0.43079  0.67340  1.0000
  H   H428      1.0  0.27356  0.24924  0.76622  1.0000
  H   H429      1.0  0.17923  0.25513  0.75414  1.0000
  H   H430      1.0  0.26182  0.25836  0.68949  1.0000
  H   H431      1.0  0.11551  0.25205  0.81308  1.0000
  C   C270      1.0  0.10835  0.48656  0.76457  1.0000
  H   H432      1.0  0.30714  0.39389  0.96553  1.0000
  C   C271      1.0  0.26771  0.46665  0.90437  1.0000
  H   H433      1.0  0.26230  0.25903  0.74494  1.0000
  H   H434      1.0  0.29858  0.43496  0.75545  1.0000
  H   H435      1.0  0.08206  0.48153  0.79803  1.0000
  C   C272      1.0  0.21958  0.24921  0.75963  1.0000
  H   H436      1.0  0.28065  0.47615  0.90197  1.0000
  H   H437      1.0  0.26241  0.47037  0.92407  1.0000
  H   H438      1.0  0.28835  0.27542  0.71879  1.0000
  H   H439      1.0  0.27291  0.24843  0.66992  1.0000
  C   C273      1.0  0.11344  0.24727  0.83550  1.0000
  H   H440      1.0  0.12133  0.48777  0.76149  1.0000
  H   H441      1.0  0.21587  0.45113  0.96337  1.0000
  C   C274      1.0  0.32335  0.46646  0.82259  1.0000
  Fe  Fe56      1.0  0.03074  0.24656  0.83526  1.0000
  H   H442      1.0  0.08827  0.24624  0.83553  1.0000
  S   S111      1.0  0.05392  0.50544  0.20979  1.0000
  C   C275      1.0  0.08265  0.68176  0.24206  1.0000
  C   C276      1.0  0.10447  0.66164  0.29267  1.0000
  Fe  Fe57      1.0  0.07835  0.60243  0.19269  1.0000
  S   S112      1.0  0.06335  0.60608  0.15297  1.0000
  S   S113      1.0  0.08980  0.58337  0.18818  1.0000
  Fe  Fe58      1.0  0.07173  0.62760  0.23309  1.0000
  S   S114      1.0  0.05550  0.63192  0.19638  1.0000
  S   S115      1.0  0.07142  0.63939  0.27924  1.0000
  Fe  Fe59      1.0  0.04460  0.60433  0.18728  1.0000
  S   S116      1.0  0.01824  0.58443  0.17909  1.0000
  Fe  Fe60      1.0  0.07581  0.63346  0.16521  1.0000
  S   S117      1.0  0.08435  0.65665  0.13621  1.0000
  S   S118      1.0  0.05920  0.59976  0.22617  1.0000
  S   S119      1.0  0.09251  0.63014  0.20277  1.0000
  H   H443      1.0  0.07361  0.66848  0.24077  1.0000
  C   C277      1.0  0.00109  0.58378  0.19943  1.0000
  C   C278      1.0  0.00039  0.59824  0.21140  1.0000
  H   H444      1.0  0.07267  0.69242  0.19133  1.0000
  H   H445      1.0  0.11325  0.70588  0.23650  1.0000
  H   H446      1.0  0.01040  0.61017  0.20785  1.0000
  H   H447      1.0  0.08613  0.68779  0.16677  1.0000
  C   C279      1.0  0.10500  0.67237  0.04166  1.0000
  C   C280      1.0  0.10215  0.65641  0.05190  1.0000
  C   C281      1.0  0.09575  0.65131  0.08047  1.0000
  C   C282      1.0  0.09212  0.66213  0.09943  1.0000
  C   C283      1.0  0.09493  0.67806  0.08917  1.0000
  C   C284      1.0  0.10126  0.68314  0.06055  1.0000
  H   H448      1.0  0.10503  0.64796  0.03769  1.0000
  H   H449      1.0  0.09378  0.63907  0.08790  1.0000
  H   H450      1.0  0.09219  0.68659  0.10343  1.0000
  H   H451      1.0  0.10333  0.69542  0.05318  1.0000
  H   H452      1.0  0.09140  0.68340  0.26208  1.0000
  C   C285      1.0  0.08785  0.65543  0.30080  1.0000
  H   H453      1.0  0.07038  0.67136  0.18511  1.0000
  H   H454      1.0  0.10767  0.65653  0.27283  1.0000
  C   C286      1.0  0.10066  0.67567  0.20886  1.0000
  C   C287      1.0  0.06477  0.52722  0.20550  1.0000
  C   C288      1.0  0.05683  0.53771  0.21307  1.0000
  C   C289      1.0  0.06459  0.55498  0.20907  1.0000
  C   C290      1.0  0.08034  0.56199  0.19703  1.0000
  C   C291      1.0  0.08839  0.55152  0.18986  1.0000
  C   C292      1.0  0.08067  0.53425  0.19404  1.0000
  H   H455      1.0  0.04458  0.53246  0.22213  1.0000
  H   H456      1.0  0.05828  0.56283  0.21504  1.0000
  H   H457      1.0  0.10060  0.55677  0.18061  1.0000
  H   H458      1.0  0.08698  0.52638  0.18816  1.0000
  H   H459      1.0  0.12990  0.67904  0.30415  1.0000
  N   N29       1.0  0.04920  0.55676  0.11880  1.0000
  C   C293      1.0  0.04437  0.56176  0.14752  1.0000
  C   C294      1.0  0.05735  0.57160  0.10087  1.0000
  C   C295      1.0  0.03406  0.54483  0.10182  1.0000
  C   C296      1.0  0.06103  0.54890  0.12506  1.0000
  H   H460      1.0  0.03824  0.55094  0.16181  1.0000
  H   H461      1.0  0.03551  0.56784  0.14372  1.0000
  H   H462      1.0  0.05549  0.57076  0.16090  1.0000
  H   H463      1.0  0.06897  0.58072  0.11305  1.0000
  H   H464      1.0  0.06102  0.56831  0.07886  1.0000
  H   H465      1.0  0.04895  0.57810  0.09624  1.0000
  H   H466      1.0  0.03716  0.54089  0.07982  1.0000
  H   H467      1.0  0.02482  0.55036  0.09707  1.0000
  H   H468      1.0  0.02776  0.53345  0.11475  1.0000
  H   H469      1.0  0.06417  0.54404  0.10403  1.0000
  H   H470      1.0  0.05588  0.53839  0.14049  1.0000
  H   H471      1.0  0.07304  0.55796  0.13601  1.0000
  H   H472      1.0  0.10751  0.67872  0.18773  1.0000
  S   S120      1.0  0.11322  0.67804  0.00526  1.0000
  H   H473      1.0  0.04796  0.61405  0.32115  1.0000
  H   H474      1.0  0.09765  0.71249  0.22122  1.0000
  C   C297      1.0  0.07969  0.68447  0.18829  1.0000
  H   H475      1.0  0.07548  0.68942  0.24650  1.0000
  C   C298      1.0  0.10396  0.70397  0.21722  1.0000
  H   H476      1.0  0.09173  0.66244  0.20627  1.0000
  H   H477      1.0  0.04026  0.59176  0.32141  1.0000
  C   C299      1.0  0.01713  0.58553  0.27534  1.0000
  N   N30       1.0  0.02508  0.60099  0.29424  1.0000
  H   H478      1.0  0.10983  0.67676  0.22787  1.0000
  H   H479      1.0  0.11103  0.70788  0.19649  1.0000
  N   N31       1.0  0.09173  0.68648  0.21412  1.0000
  H   H480      1.0  0.01533  0.61528  0.26674  1.0000
  H   H481      1.0  0.03421  0.62738  0.28885  1.0000
  C   C300      1.0  0.02749  0.61547  0.27564  1.0000
  H   H482      1.0  0.00430  0.58359  0.26674  1.0000
  H   H483      1.0  0.03508  0.61576  0.25603  1.0000
  H   H484      1.0  0.02445  0.58576  0.25534  1.0000
  C   C301      1.0  0.01417  0.60062  0.31891  1.0000
  C   C302      1.0  0.11706  0.67439  0.31052  1.0000
  C   C303      1.0  0.04151  0.60239  0.30710  1.0000
  H   H485      1.0  0.05003  0.60274  0.28903  1.0000
  H   H486      1.0  0.01593  0.57442  0.28823  1.0000
  H   H487      1.0  0.01887  0.49784  0.22426  1.0000
  H   H488      1.0  0.00163  0.59953  0.30988  1.0000
  Fe  Fe61      1.0  0.12972  0.70989  0.40374  1.0000
  S   S121      1.0  0.10759  0.70523  0.43171  1.0000
  S   S122      1.0  0.12973  0.69681  0.35866  1.0000
  Fe  Fe62      1.0  0.15478  0.73448  0.45172  1.0000
  Fe  Fe63      1.0  0.12409  0.70288  0.47059  1.0000
  Fe  Fe64      1.0  0.11950  0.73277  0.44256  1.0000
  C   C304      1.0  0.13094  0.65849  0.45096  1.0000
  S   S123      1.0  0.14601  0.70688  0.44206  1.0000
  C   C305      1.0  0.11322  0.68108  0.33667  1.0000
  H   H489      1.0  0.01973  0.61215  0.33354  1.0000
  H   H490      1.0  0.08604  0.50063  0.64437  1.0000
  H   H491      1.0  0.08653  0.51750  0.62185  1.0000
  H   H492      1.0  0.10567  0.51703  0.63731  1.0000
  H   H493      1.0  0.09340  0.68005  0.36454  1.0000
  S   S124      1.0  0.13417  0.73009  0.48359  1.0000
  S   S125      1.0  0.11234  0.67845  0.49566  1.0000
  S   S126      1.0  0.10377  0.65630  0.63341  1.0000
  C   C306      1.0  0.10966  0.67283  0.53426  1.0000
  C   C307      1.0  0.09935  0.65631  0.54072  1.0000
  C   C308      1.0  0.09713  0.65108  0.57077  1.0000
  C   C309      1.0  0.10539  0.66225  0.59491  1.0000
  C   C310      1.0  0.11573  0.67876  0.58843  1.0000
  C   C311      1.0  0.11779  0.68405  0.55841  1.0000
  H   H494      1.0  0.09298  0.64748  0.52235  1.0000
  H   H495      1.0  0.08917  0.63835  0.57522  1.0000
  H   H496      1.0  0.12222  0.68756  0.60679  1.0000
  H   H497      1.0  0.12581  0.69676  0.55396  1.0000
  H   H498      1.0  0.10237  0.66073  0.39864  1.0000
  H   H499      1.0  0.14068  0.65340  0.45188  1.0000
  H   H500      1.0  0.01564  0.74304  0.48141  1.0000
  C   C312      1.0  0.13425  0.66368  0.39787  1.0000
  H   H501      1.0  0.14083  0.67732  0.40257  1.0000
  H   H502      1.0  0.09723  0.52014  0.57048  1.0000
  C   C313      1.0  0.09658  0.67492  0.34469  1.0000
  H   H503      1.0  0.14397  0.65859  0.39706  1.0000
  H   H504      1.0  0.10435  0.63127  0.43054  1.0000
  H   H505      1.0  0.03376  0.73310  0.45258  1.0000
  H   H506      1.0  0.10035  0.65747  0.43850  1.0000
  H   H507      1.0  0.12282  0.63180  0.41357  1.0000
  H   H508      1.0  0.13723  0.67197  0.45731  1.0000
  H   H509      1.0  0.10435  0.50510  0.55600  1.0000
  H   H510      1.0  0.12211  0.65269  0.46887  1.0000
  H   H511      1.0  0.12796  0.66201  0.37492  1.0000
  C   C314      1.0  0.11367  0.63763  0.41367  1.0000
  H   H512      1.0  0.10690  0.63510  0.39104  1.0000
  S   S127      1.0  0.14033  0.73782  0.41120  1.0000
  N   N32       1.0  0.09400  0.49991  0.59948  1.0000
  N   N33       1.0  0.12210  0.65566  0.42083  1.0000
  H   H513      1.0  0.11546  0.67643  0.42558  1.0000
  C   C315      1.0  0.10947  0.66282  0.42082  1.0000
  C   C316      1.0  0.09303  0.50918  0.62686  1.0000
  H   H514      1.0  0.01062  0.73839  0.42588  1.0000
  H   H515      1.0  0.08807  0.73304  0.39865  1.0000
  C   C317      1.0  0.08629  0.74443  0.40145  1.0000
  H   H516      1.0  0.01206  0.58986  0.33343  1.0000
  H   H517      1.0  0.01672  0.56252  0.65512  1.0000
  S   S128      1.0  0.06498  0.60942  0.64767  1.0000
  H   H518      1.0  0.11638  0.51966  0.58583  1.0000
  C   C318      1.0  0.10341  0.51173  0.57693  1.0000
  H   H519      1.0  0.05746  0.53500  0.64967  1.0000
  H   H520      1.0  0.07118  0.65750  0.33335  1.0000
  H   H521      1.0  0.06736  0.73832  0.36495  1.0000
  C   C319      1.0  0.08400  0.66213  0.32690  1.0000
  H   H522      1.0  0.07002  0.49741  0.58009  1.0000
  H   H523      1.0  0.11562  0.49628  0.61694  1.0000
  S   S129      1.0  0.09062  0.51109  0.71005  1.0000
  Fe  Fe65      1.0  0.11374  0.70460  0.90761  1.0000
  S   S130      1.0  0.09871  0.70348  0.94802  1.0000
  S   S131      1.0  0.09843  0.69076  0.86486  1.0000
  Fe  Fe66      1.0  0.14649  0.72928  0.94104  1.0000
  H   H524      1.0  0.09553  0.56886  0.71167  1.0000
  Fe  Fe67      1.0  0.11360  0.73095  0.95335  1.0000
  H   H525      1.0  0.06463  0.65348  0.93658  1.0000
  S   S132      1.0  0.13437  0.70120  0.93470  1.0000
  S   S133      1.0  0.12678  0.73249  0.91081  1.0000
  Fe  Fe68      1.0  0.07627  0.59678  0.68035  1.0000
  C   C320      1.0  0.11007  0.67538  0.71692  1.0000
  C   C321      1.0  0.03363  0.56017  0.72448  1.0000
  Fe  Fe69      1.0  0.08639  0.62620  0.72685  1.0000
  S   S134      1.0  0.07488  0.63987  0.69789  1.0000
  S   S135      1.0  0.10229  0.63689  0.77076  1.0000
  Fe  Fe70      1.0  0.05361  0.61498  0.68847  1.0000
  S   S136      1.0  0.02616  0.61044  0.68276  1.0000
  S   S137      1.0  0.07048  0.56972  0.66563  1.0000
  S   S138      1.0  0.06398  0.60164  0.72062  1.0000
  S   S139      1.0  0.09969  0.62037  0.68880  1.0000
  H   H526      1.0  0.13497  0.70307  0.70014  1.0000
  C   C322      1.0  0.01216  0.59889  0.70954  1.0000
  C   C323      1.0  0.01808  0.59602  0.73770  1.0000
  C   C324      1.0  0.00675  0.58641  0.75836  1.0000
  H   H527      1.0  0.04681  0.56381  0.71818  1.0000
  H   H528      1.0  0.03136  0.60142  0.74374  1.0000
  H   H529      1.0  0.01142  0.58434  0.78021  1.0000
  C   C325      1.0  0.10029  0.67631  0.83841  1.0000
  C   C326      1.0  0.11297  0.67048  0.84131  1.0000
  C   C327      1.0  0.11332  0.65836  0.82050  1.0000
  C   C328      1.0  0.10115  0.65206  0.79641  1.0000
  C   C329      1.0  0.08862  0.65804  0.79330  1.0000
  C   C330      1.0  0.08818  0.67004  0.81425  1.0000
  H   H530      1.0  0.12249  0.67529  0.85954  1.0000
  H   H531      1.0  0.12312  0.65387  0.82304  1.0000
  H   H532      1.0  0.07914  0.65329  0.77498  1.0000
  H   H533      1.0  0.07829  0.67441  0.81182  1.0000
  C   C331      1.0  0.08425  0.52708  0.69873  1.0000
  C   C332      1.0  0.09294  0.54330  0.71119  1.0000
  C   C333      1.0  0.08870  0.55646  0.70194  1.0000
  C   C334      1.0  0.07594  0.55360  0.67959  1.0000
  H   H534      1.0  0.02326  0.73504  0.92631  1.0000
  C   C335      1.0  0.02332  0.53896  0.68469  1.0000
  H   H535      1.0  0.10306  0.54576  0.72805  1.0000
  N   N34       1.0  0.08651  0.65003  0.92403  1.0000
  H   H536      1.0  0.02095  0.73255  0.98216  1.0000
  C   C336      1.0  0.10457  0.66018  0.92178  1.0000
  H   H537      1.0  0.11295  0.51863  0.76348  1.0000
  H   H538      1.0  0.07043  0.73944  0.86772  1.0000
  C   C337      1.0  0.07826  0.66071  0.93433  1.0000
  H   H539      1.0  0.03627  0.54210  0.67762  1.0000
  H   H540      1.0  0.08030  0.65201  0.87729  1.0000
  N   N35       1.0  0.12800  0.67858  0.71708  1.0000
  H   H541      1.0  0.07962  0.67063  0.91809  1.0000
  H   H542      1.0  0.03275  0.57132  0.73505  1.0000
  H   H543      1.0  0.07080  0.62909  0.94842  1.0000
  H   H544      1.0  0.03110  0.55074  0.74204  1.0000
  H   H545      1.0  0.11760  0.52311  0.80320  1.0000
  H   H546      1.0  0.09047  0.62877  0.93906  1.0000
  H   H547      1.0  0.14944  0.68718  0.74863  1.0000
  C   C338      1.0  0.12977  0.66307  0.70888  1.0000
  C   C339      1.0  0.02567  0.56667  0.67519  1.0000
  H   H548      1.0  0.11118  0.65271  0.91307  1.0000
  H   H549      1.0  0.10381  0.67116  0.69405  1.0000
  H   H550      1.0  0.10821  0.68670  0.72363  1.0000
  H   H551      1.0  0.06542  0.63443  0.89493  1.0000
  H   H552      1.0  0.12383  0.65810  0.68611  1.0000
  H   H553      1.0  0.13458  0.69614  0.75475  1.0000
  S   S140      1.0  0.13380  0.72882  0.98427  1.0000
  H   H554      1.0  0.12990  0.67513  0.76465  1.0000
  C   C340      1.0  0.08428  0.63699  0.94601  1.0000
  C   C341      1.0  0.00449  0.54920  0.70713  1.0000
  C   C342      1.0  0.13619  0.69123  0.69486  1.0000
  S   S141      1.0  0.17391  0.74479  0.93107  1.0000
  H   H555      1.0  0.00289  0.56018  0.71668  1.0000
  H   H556      1.0  0.14975  0.69398  0.69426  1.0000
  H   H557      1.0  0.00329  0.74352  0.95103  1.0000
  C   C343      1.0  0.99484  0.59203  0.70218  1.0000
  Fe  Fe71      1.0  0.11973  0.70101  0.97572  1.0000
  H   H558      1.0  0.08521  0.63455  0.88512  1.0000
  C   C344      1.0  0.07902  0.64236  0.89408  1.0000
  H   H559      1.0  0.13041  0.68688  0.67164  1.0000
  N   N36       1.0  0.02176  0.55374  0.69787  1.0000
  H   H560      1.0  0.01464  0.53384  0.66441  1.0000
  H   H561      1.0  0.08380  0.66688  0.95673  1.0000
  H   H562      1.0  0.11073  0.66579  0.94414  1.0000
  H   H563      1.0  0.08986  0.64257  0.96879  1.0000
  H   H564      1.0  0.06432  0.51176  0.66721  1.0000
  H   H565      1.0  0.10670  0.67054  0.90634  1.0000
  C   C345      1.0  0.07123  0.52415  0.67689  1.0000
  H   H566      1.0  0.99515  0.54414  0.68772  1.0000
  H   H567      1.0  0.12370  0.65320  0.72506  1.0000
  H   H568      1.0  0.00117  0.53973  0.72476  1.0000
  H   H569      1.0  0.14314  0.66502  0.70865  1.0000
  H   H570      1.0  0.08828  0.73344  0.90676  1.0000
  H   H571      1.0  0.02517  0.57817  0.68468  1.0000
  H   H572      1.0  0.10341  0.66560  0.73291  1.0000
  H   H573      1.0  0.13109  0.51704  0.78115  1.0000
  C   C346      1.0  0.13587  0.68457  0.74759  1.0000
  C   C347      1.0  0.06728  0.53737  0.66712  1.0000
  H   H574      1.0  0.99128  0.72872  0.69896  1.0000
  C   C348      1.0  0.11781  0.51476  0.78431  1.0000
  C   C349      1.0  0.08517  0.74405  0.90985  1.0000
  N   N37       1.0  0.10768  0.49714  0.79021  1.0000
  H   H575      1.0  0.02049  0.52894  0.70118  1.0000
  H   H576      1.0  0.03849  0.57024  0.66722  1.0000
  H   H577      1.0  0.04312  0.74468  0.98774  1.0000
  H   H578      1.0  0.11395  0.50015  0.83802  1.0000
  C   C350      1.0  0.03074  0.74546  0.98490  1.0000
  H   H579      1.0  0.08909  0.50247  0.81291  1.0000
  H   H580      1.0  0.08470  0.49813  0.77307  1.0000
  Fe  Fe72      1.0  0.08734  0.63339  0.65928  1.0000
  S   S142      1.0  0.01570  0.80785  0.29295  1.0000
  H   H581      1.0  0.27549  0.93014  0.04330  1.0000
  S   S143      1.0  0.29165  0.86021  0.02349  1.0000
  N   N38       1.0  0.20010  0.98646  0.11541  1.0000
  H   H582      1.0  0.30004  0.86086  0.08703  1.0000
  H   H583      1.0  0.27640  0.82232  0.03668  1.0000
  C   C351      1.0  0.30743  0.87552  0.04763  1.0000
  H   H584      1.0  0.31403  0.93247  0.31880  1.0000
  H   H585      1.0  0.25739  0.89693  0.00747  1.0000
  C   C352      1.0  0.31877  0.89052  0.03697  1.0000
  H   H586      1.0  0.22262  0.98433  0.27472  1.0000
  H   H587      1.0  0.19800  0.96342  0.13435  1.0000
  C   C353      1.0  0.00656  0.77821  0.25914  1.0000
  H   H588      1.0  0.26289  0.88460  0.03414  1.0000
  C   C354      1.0  0.21791  0.99018  0.25758  1.0000
  H   H589      1.0  0.11958  0.87123  0.31640  1.0000
  H   H590      1.0  0.04820  0.81459  0.26352  1.0000
  H   H591      1.0  0.07214  0.86658  0.24879  1.0000
  C   C355      1.0  0.00652  0.79405  0.26107  1.0000
  H   H592      1.0  0.23299  0.81818  0.01820  1.0000
  C   C356      1.0  0.18607  0.97856  0.09263  1.0000
  H   H593      1.0  0.27581  0.92662  0.00344  1.0000
  C   C357      1.0  0.24587  0.79746  0.04125  1.0000
  H   H594      1.0  0.31838  0.89291  0.01321  1.0000
  H   H595      1.0  0.18547  0.96638  0.08406  1.0000
  H   H596      1.0  0.25133  0.80426  0.06316  1.0000
  H   H597      1.0  0.17383  0.97643  0.10204  1.0000
  H   H598      1.0  0.07761  0.83079  0.28303  1.0000
  C   C358      1.0  0.30864  0.87245  0.07848  1.0000
  H   H599      1.0  0.29770  0.87760  0.28461  1.0000
  H   H600      1.0  0.01243  0.77407  0.27733  1.0000
  H   H601      1.0  0.05092  0.85484  0.23459  1.0000
  C   C359      1.0  0.28962  0.90937  0.06090  1.0000
  C   C360      1.0  0.26381  0.89736  0.02996  1.0000
  C   C361      1.0  0.07831  0.84059  0.26694  1.0000
  C   C362      1.0  0.19806  0.97562  0.14135  1.0000
  C   C363      1.0  0.06322  0.85416  0.23950  1.0000
  S   S144      1.0  0.18652  0.97431  0.28132  1.0000
  H   H602      1.0  0.04295  0.84480  0.28590  1.0000
  N   N39       1.0  0.06173  0.84103  0.26088  1.0000
  H   H603      1.0  0.28326  0.91267  0.07943  1.0000
  H   H604      1.0  0.21620  0.97745  0.09282  1.0000
  H   H605      1.0  0.99607  0.78258  0.04590  1.0000
  H   H606      1.0  0.27521  0.82312  0.99658  1.0000
  H   H607      1.0  0.28944  0.89687  0.06531  1.0000
  H   H608      1.0  0.20844  0.98148  0.15898  1.0000
  H   H609      1.0  0.08753  0.85257  0.27740  1.0000
  C   C364      1.0  0.01060  0.79234  0.00703  1.0000
  H   H610      1.0  0.02210  0.79913  0.02045  1.0000
  H   H611      1.0  0.25661  0.90052  0.04714  1.0000
  C   C365      1.0  0.20090  0.98711  0.25557  1.0000
  H   H612      1.0  0.05407  0.82153  0.22632  1.0000
  C   C366      1.0  0.24686  0.82248  0.01847  1.0000
  H   H613      1.0  0.27459  0.80458  0.01367  1.0000
  C   C367      1.0  0.04982  0.82477  0.24775  1.0000
  H   H614      1.0  0.18615  0.97323  0.15230  1.0000
  N   N40       1.0  0.28145  0.90952  0.03106  1.0000
  C   C368      1.0  0.99586  0.78294  0.02156  1.0000
  C   C369      1.0  0.99093  0.77257  0.20989  1.0000
  H   H615      1.0  0.29515  0.93574  0.02604  1.0000
  H   H616      1.0  0.06781  0.85184  0.21767  1.0000
  C   C370      1.0  0.21604  0.98926  0.10164  1.0000
  C   C371      1.0  0.32086  0.88424  0.09850  1.0000
  C   C372      1.0  0.27030  0.81481  0.01566  1.0000
  Fe  Fe73      1.0  0.19089  0.96171  0.32399  1.0000
  H   H617      1.0  0.32332  0.92170  0.25794  1.0000
  H   H618      1.0  0.23198  0.79251  0.04186  1.0000
  H   H619      1.0  0.99889  0.81146  0.23813  1.0000
  H   H620      1.0  0.32157  0.88169  0.12215  1.0000
  C   C373      1.0  0.05556  0.84462  0.28939  1.0000
  C   C374      1.0  0.30773  0.88098  0.30199  1.0000
  C   C375      1.0  0.29034  0.90503  0.00737  1.0000
  H   H621      1.0  0.08345  0.83801  0.24598  1.0000
  H   H622      1.0  0.03716  0.82465  0.24293  1.0000
  H   H623      1.0  0.05437  0.83500  0.30599  1.0000
  C   C376      1.0  0.28203  0.92627  0.02581  1.0000
  H   H624      1.0  0.22690  0.99502  0.11832  1.0000
  H   H625      1.0  0.30389  0.91340  0.00847  1.0000
  C   C377      1.0  0.99886  0.79917  0.23703  1.0000
  H   H626      1.0  0.24932  0.78663  0.03970  1.0000
  H   H627      1.0  0.06430  0.85672  0.30019  1.0000
  H   H628      1.0  0.30300  0.91833  0.06248  1.0000
  N   N41       1.0  0.25184  0.80840  0.01561  1.0000
  H   H629      1.0  0.25243  0.83011  0.03954  1.0000
  H   H630      1.0  0.02867  0.75100  0.00623  1.0000
  H   H631      1.0  0.29182  0.83843  0.31890  1.0000
  H   H632      1.0  0.31563  0.93751  0.26395  1.0000
  C   C378      1.0  0.99125  0.78857  0.21147  1.0000
  H   H633      1.0  0.28923  0.89208  0.00947  1.0000
  H   H634      1.0  0.32082  0.91612  0.31242  1.0000
  H   H635      1.0  0.99869  0.75524  0.23276  1.0000
  C   C379      1.0  0.99876  0.76755  0.23378  1.0000
  H   H636      1.0  0.18195  0.99258  0.23114  1.0000
  H   H637      1.0  0.18746  0.98653  0.07276  1.0000
  H   H638      1.0  0.25111  0.83086  0.99935  1.0000
  C   C380      1.0  0.19507  0.99479  0.23285  1.0000
  H   H639      1.0  0.26317  0.81576  0.32207  1.0000
  H   H640      1.0  0.02532  0.75220  0.40130  1.0000
  Fe  Fe74      1.0  0.05227  0.78863  0.36583  1.0000
  S   S145      1.0  0.06445  0.80967  0.39999  1.0000
  S   S146      1.0  0.05618  0.76474  0.36348  1.0000
  C   C381      1.0  0.02474  0.75592  0.47759  1.0000
  S   S147      1.0  0.04220  0.82740  0.36633  1.0000
  Fe  Fe75      1.0  0.06747  0.82676  0.36124  1.0000
  S   S148      1.0  0.09067  0.84776  0.34347  1.0000
  Fe  Fe76      1.0  0.03819  0.80853  0.40245  1.0000
  S   S149      1.0  0.02889  0.81005  0.44942  1.0000
  C   C382      1.0  0.01967  0.75145  0.42354  1.0000
  S   S150      1.0  0.02594  0.78670  0.36985  1.0000
  Fe  Fe77      1.0  0.17233  0.93669  0.37254  1.0000
  C   C383      1.0  0.18006  0.89819  0.37236  1.0000
  S   S151      1.0  0.14852  0.91742  0.39180  1.0000
  Fe  Fe78      1.0  0.20186  0.97042  0.39124  1.0000
  C   C384      1.0  0.20145  0.97314  0.61631  1.0000
  H   H641      1.0  0.16007  0.76796  0.49552  1.0000
  H   H642      1.0  0.16046  0.78871  0.42367  1.0000
  Fe  Fe79      1.0  0.20780  0.94244  0.35896  1.0000
  S   S152      1.0  0.22435  0.92865  0.35156  1.0000
  S   S153      1.0  0.17720  0.96351  0.36489  1.0000
  S   S154      1.0  0.19611  0.94383  0.40229  1.0000
  Fe  Fe80      1.0  0.25667  0.84339  0.44006  1.0000
  S   S155      1.0  0.25538  0.85709  0.48237  1.0000
  S   S156      1.0  0.23727  0.81885  0.41796  1.0000
  Fe  Fe81      1.0  0.28978  0.87194  0.42331  1.0000
  S   S157      1.0  0.29061  0.88771  0.46451  1.0000
  S   S158      1.0  0.31264  0.88008  0.39414  1.0000
  Fe  Fe82      1.0  0.28324  0.86434  0.49038  1.0000
  Fe  Fe83      1.0  0.26290  0.87959  0.45372  1.0000
  S   S159      1.0  0.24962  0.89680  0.45998  1.0000
  S   S160      1.0  0.28397  0.84886  0.44988  1.0000
  S   S161      1.0  0.26259  0.86567  0.41077  1.0000
  C   C385      1.0  0.23160  0.92015  0.38193  1.0000
  C   C386      1.0  0.22963  0.92382  0.41186  1.0000
  C   C387      1.0  0.23521  0.91655  0.43552  1.0000
  C   C388      1.0  0.24288  0.90565  0.42949  1.0000
  C   C389      1.0  0.24487  0.90200  0.39955  1.0000
  C   C390      1.0  0.23925  0.90924  0.37587  1.0000
  H   H643      1.0  0.22404  0.93243  0.41681  1.0000
  H   H644      1.0  0.23374  0.91951  0.45865  1.0000
  H   H645      1.0  0.25078  0.89366  0.39465  1.0000
  H   H646      1.0  0.24083  0.90638  0.35276  1.0000
  H   H647      1.0  0.26214  0.83570  0.37751  1.0000
  H   H648      1.0  0.29094  0.87451  0.33854  1.0000
  C   C391      1.0  0.09530  0.75597  0.42458  1.0000
  S   S162      1.0  0.21563  0.96951  0.34996  1.0000
  H   H649      1.0  0.17807  0.88974  0.35232  1.0000
  C   C392      1.0  0.10666  0.86704  0.35767  1.0000
  H   H650      1.0  0.05019  0.77556  0.42238  1.0000
  C   C393      1.0  0.13238  0.89155  0.34873  1.0000
  C   C394      1.0  0.13248  0.89818  0.37763  1.0000
  C   C395      1.0  0.11968  0.88904  0.39651  1.0000
  C   C396      1.0  0.10687  0.87359  0.38667  1.0000
  C   C397      1.0  0.31664  0.88323  0.35528  1.0000
  H   H651      1.0  0.09709  0.86684  0.40145  1.0000
  C   C398      1.0  0.19623  0.77159  0.45459  1.0000
  C   C399      1.0  0.20927  0.78265  0.47415  1.0000
  C   C400      1.0  0.22159  0.79741  0.46365  1.0000
  C   C401      1.0  0.22129  0.80114  0.43318  1.0000
  C   C402      1.0  0.20826  0.79006  0.41361  1.0000
  C   C403      1.0  0.19573  0.77550  0.42423  1.0000
  H   H652      1.0  0.20791  0.79271  0.38996  1.0000
  H   H653      1.0  0.18592  0.76712  0.40877  1.0000
  H   H654      1.0  0.20497  0.96233  0.61596  1.0000
  H   H655      1.0  0.20752  0.97396  0.47014  1.0000
  H   H656      1.0  0.19001  0.87520  0.42421  1.0000
  C   C404      1.0  0.07206  0.76213  0.38600  1.0000
  C   C405      1.0  0.08142  0.77384  0.40866  1.0000
  C   C406      1.0  0.09283  0.77066  0.42810  1.0000
  C   C407      1.0  0.14605  0.79664  0.47088  1.0000
  H   H657      1.0  0.13275  0.78790  0.46557  1.0000
  H   H658      1.0  0.07975  0.78526  0.41148  1.0000
  H   H659      1.0  0.15295  0.78080  0.51758  1.0000
  C   C408      1.0  0.01171  0.79533  0.46781  1.0000
  C   C409      1.0  0.01049  0.79756  0.49894  1.0000
  S   S163      1.0  0.10920  0.75228  0.45049  1.0000
  H   H660      1.0  0.02002  0.80813  0.51117  1.0000
  H   H661      1.0  0.19166  0.99502  0.64429  1.0000
  S   S164      1.0  0.29514  0.86099  0.53574  1.0000
  C   C410      1.0  0.99706  0.78626  0.51445  1.0000
  C   C411      1.0  0.30888  0.87594  0.56312  1.0000
  H   H662      1.0  0.19273  0.90836  0.37143  1.0000
  N   N42       1.0  0.03268  0.75696  0.44858  1.0000
  C   C412      1.0  0.30383  0.87913  0.33258  1.0000
  H   H663      1.0  0.16351  0.77200  0.44167  1.0000
  H   H664      1.0  0.20988  0.77979  0.49766  1.0000
  H   H665      1.0  0.23156  0.80566  0.47902  1.0000
  H   H666      1.0  0.99635  0.78820  0.53836  1.0000
  H   H667      1.0  0.30071  0.82564  0.33760  1.0000
  H   H668      1.0  0.23287  0.98091  0.63940  1.0000
  C   C413      1.0  0.19060  0.88167  0.40271  1.0000
  H   H669      1.0  0.15804  0.86746  0.38182  1.0000
  H   H670      1.0  0.14949  0.80619  0.45342  1.0000
  H   H671      1.0  0.11960  0.89398  0.41894  1.0000
  H   H672      1.0  0.29019  0.81369  0.38735  1.0000
  H   H673      1.0  0.09976  0.77963  0.44596  1.0000
  Fe  Fe84      1.0  0.03188  0.80537  0.33321  1.0000
  H   H674      1.0  0.14659  0.80294  0.49305  1.0000
  C   C414      1.0  0.28542  0.82357  0.38951  1.0000
  H   H675      1.0  0.14209  0.89837  0.33388  1.0000
  S   S165      1.0  0.21306  0.99536  0.41810  1.0000
  C   C415      1.0  0.21528  0.99066  0.50962  1.0000
  H   H676      1.0  0.29557  0.83454  0.40126  1.0000
  H   H677      1.0  0.25613  0.80759  0.35810  1.0000
  S   S166      1.0  0.18088  0.75329  0.46944  1.0000
  C   C416      1.0  0.15595  0.77954  0.44162  1.0000
  H   H678      1.0  0.18842  0.87250  0.38373  1.0000
  H   H679      1.0  0.05453  0.77894  0.46239  1.0000
  N   N43       1.0  0.15720  0.78774  0.47147  1.0000
  C   C417      1.0  0.17469  0.79960  0.47862  1.0000
  C   C418      1.0  0.15205  0.77509  0.49471  1.0000
  H   H680      1.0  0.18327  0.79311  0.47979  1.0000
  H   H681      1.0  0.17609  0.80621  0.50080  1.0000
  H   H682      1.0  0.17923  0.80908  0.46116  1.0000
  H   H683      1.0  0.13889  0.76597  0.49011  1.0000
  H   H684      1.0  0.17082  0.90387  0.36989  1.0000
  H   H685      1.0  0.14280  0.77100  0.43498  1.0000
  N   N44       1.0  0.28035  0.82791  0.35979  1.0000
  C   C419      1.0  0.07458  0.74745  0.38240  1.0000
  H   H686      1.0  0.15177  0.88190  0.40088  1.0000
  H   H687      1.0  0.21229  0.98071  0.52524  1.0000
  H   H688      1.0  0.26970  0.84434  0.34216  1.0000
  C   C420      1.0  0.31343  0.87042  0.59035  1.0000
  H   H689      1.0  0.18763  0.96830  0.61773  1.0000
  C   C421      1.0  0.27343  0.84049  0.36405  1.0000
  H   H690      1.0  0.99980  0.77992  0.42828  1.0000
  C   C422      1.0  0.99925  0.78164  0.45230  1.0000
  H   H691      1.0  0.27211  0.80307  0.34092  1.0000
  H   H692      1.0  0.18027  0.89502  0.44851  1.0000
  C   C423      1.0  0.18167  0.90126  0.42662  1.0000
  H   H693      1.0  0.20452  0.97919  0.59421  1.0000
  C   C424      1.0  0.31552  0.89301  0.55841  1.0000
  H   H694      1.0  0.20367  0.89116  0.40168  1.0000
  N   N45       1.0  0.17838  0.88935  0.40082  1.0000
  C   C425      1.0  0.16119  0.87636  0.40153  1.0000
  H   H695      1.0  0.03772  0.78278  0.44443  1.0000
  H   H696      1.0  0.15952  0.86921  0.42241  1.0000
  C   C426      1.0  0.11955  0.87613  0.33886  1.0000
  H   H697      1.0  0.03424  0.75993  0.49693  1.0000
  S   S167      1.0  0.18391  0.93427  0.32959  1.0000
  H   H698      1.0  0.19461  0.91111  0.42699  1.0000
  C   C427      1.0  0.22856  0.99117  0.63877  1.0000
  H   H699      1.0  0.30829  0.85726  0.59434  1.0000
  C   C428      1.0  0.26739  0.81291  0.34447  1.0000
  H   H700      1.0  0.17287  0.90755  0.42553  1.0000
  H   H701      1.0  0.27469  0.81901  0.40449  1.0000
  H   H702      1.0  0.28273  0.85182  0.37620  1.0000
  H   H703      1.0  0.30505  0.84613  0.35258  1.0000
  C   C429      1.0  0.04431  0.77432  0.44433  1.0000
  H   H704      1.0  0.01246  0.75936  0.42265  1.0000
  H   H705      1.0  0.01780  0.76408  0.47834  1.0000
  C   C430      1.0  0.21255  0.98677  0.47834  1.0000
  H   H706      1.0  0.31216  0.89746  0.53765  1.0000
  C   C431      1.0  0.29511  0.83477  0.34135  1.0000
  H   H707      1.0  0.05243  0.75044  0.46649  1.0000
  N   N46       1.0  0.21029  0.98496  0.64170  1.0000
  H   H708      1.0  0.18553  0.99536  0.33130  1.0000
  S   S168      1.0  0.05714  0.80541  0.32675  1.0000
  H   H709      1.0  0.04776  0.74645  0.42672  1.0000
  C   C432      1.0  0.04204  0.74625  0.44868  1.0000
  H   H710      1.0  0.05939  0.85046  0.83689  1.0000
  Fe  Fe85      1.0  0.05085  0.78675  0.86852  1.0000
  S   S169      1.0  0.06287  0.80756  0.90286  1.0000
  S   S170      1.0  0.05747  0.76452  0.86403  1.0000
  Fe  Fe86      1.0  0.02773  0.80184  0.84064  1.0000
  S   S171      1.0  0.03822  0.82398  0.87381  1.0000
  S   S172      1.0  0.00601  0.79927  0.80675  1.0000
  Fe  Fe87      1.0  0.06380  0.82464  0.86522  1.0000
  S   S173      1.0  0.08847  0.84516  0.85113  1.0000
  Fe  Fe88      1.0  0.03647  0.80512  0.90904  1.0000
  S   S174      1.0  0.02968  0.80480  0.95833  1.0000
  S   S175      1.0  0.05319  0.80360  0.82998  1.0000
  S   S176      1.0  0.02446  0.78317  0.87671  1.0000
  Fe  Fe89      1.0  0.16626  0.93588  0.87170  1.0000
  S   S177      1.0  0.17693  0.93381  0.82751  1.0000
  S   S178      1.0  0.13906  0.92085  0.88407  1.0000
  Fe  Fe90      1.0  0.19962  0.96421  0.89624  1.0000
  S   S179      1.0  0.21258  0.96310  0.85390  1.0000
  H   H711      1.0  0.18972  0.80123  0.97650  1.0000
  Fe  Fe91      1.0  0.18927  0.96189  0.82856  1.0000
  S   S180      1.0  0.18804  0.97876  0.79011  1.0000
  Fe  Fe92      1.0  0.19947  0.93542  0.85655  1.0000
  S   S181      1.0  0.21117  0.91729  0.84627  1.0000
  S   S182      1.0  0.17670  0.96398  0.87077  1.0000
  S   S183      1.0  0.18840  0.93638  0.90080  1.0000
  Fe  Fe93      1.0  0.24689  0.84186  0.94188  1.0000
  Fe  Fe94      1.0  0.28120  0.86230  0.97612  1.0000
  S   S184      1.0  0.22146  0.82207  0.95446  1.0000
  Fe  Fe95      1.0  0.27864  0.86014  0.90671  1.0000
  S   S185      1.0  0.28963  0.88158  0.94065  1.0000
  S   S186      1.0  0.28941  0.85842  0.86138  1.0000
  H   H712      1.0  0.21279  0.98509  0.69008  1.0000
  Fe  Fe96      1.0  0.26334  0.88021  0.93949  1.0000
  S   S187      1.0  0.25963  0.90411  0.94310  1.0000
  S   S188      1.0  0.27212  0.84058  0.94227  1.0000
  S   S189      1.0  0.25260  0.85978  0.90396  1.0000
  C   C433      1.0  0.22359  0.91329  0.87481  1.0000
  C   C434      1.0  0.23198  0.92499  0.89812  1.0000
  C   C435      1.0  0.24286  0.92198  0.91919  1.0000
  C   C436      1.0  0.24517  0.90713  0.91741  1.0000
  C   C437      1.0  0.23636  0.89521  0.89470  1.0000
  C   C438      1.0  0.22580  0.89838  0.87323  1.0000
  H   H713      1.0  0.23035  0.93652  0.89948  1.0000
  H   H714      1.0  0.24955  0.93125  0.93677  1.0000
  H   H715      1.0  0.23770  0.88358  0.89357  1.0000
  H   H716      1.0  0.21920  0.88922  0.85542  1.0000
  H   H717      1.0  0.02871  0.84149  0.79416  1.0000
  H   H718      1.0  0.02445  0.79104  0.75975  1.0000
  H   H719      1.0  0.30184  0.85742  0.80290  1.0000
  H   H720      1.0  0.05048  0.86466  0.82557  1.0000
  C   C439      1.0  0.26774  0.91199  0.83242  1.0000
  H   H721      1.0  0.04094  0.77892  0.98363  1.0000
  H   H722      1.0  0.04537  0.74687  0.93275  1.0000
  C   C440      1.0  0.10246  0.86608  0.86159  1.0000
  C   C441      1.0  0.11793  0.87306  0.84804  1.0000
  C   C442      1.0  0.12934  0.88964  0.85491  1.0000
  C   C443      1.0  0.12536  0.89962  0.87523  1.0000
  C   C444      1.0  0.10982  0.89267  0.88860  1.0000
  C   C445      1.0  0.09848  0.87602  0.88199  1.0000
  H   H723      1.0  0.12120  0.86557  0.83220  1.0000
  H   H724      1.0  0.14118  0.89473  0.84436  1.0000
  H   H725      1.0  0.10656  0.90024  0.90433  1.0000
  H   H726      1.0  0.08668  0.87094  0.89265  1.0000
  C   C446      1.0  0.18668  0.76642  0.93717  1.0000
  C   C447      1.0  0.18241  0.77658  0.95658  1.0000
  C   C448      1.0  0.19310  0.79357  0.96117  1.0000
  C   C449      1.0  0.20819  0.80070  0.94647  1.0000
  C   C450      1.0  0.21245  0.79056  0.92704  1.0000
  C   C451      1.0  0.20179  0.77354  0.92255  1.0000
  H   H727      1.0  0.22398  0.79577  0.91552  1.0000
  H   H728      1.0  0.20527  0.76581  0.90756  1.0000
  C   C452      1.0  0.00776  0.78422  0.71946  1.0000
  N   N47       1.0  0.05534  0.85117  0.78897  1.0000
  H   H729      1.0  0.24799  0.80690  0.96722  1.0000
  C   C453      1.0  0.07095  0.76119  0.89145  1.0000
  C   C454      1.0  0.07702  0.77150  0.91741  1.0000
  C   C455      1.0  0.08687  0.76793  0.93975  1.0000
  H   H730      1.0  0.25814  0.91099  0.84877  1.0000
  S   S190      1.0  0.21725  0.98478  0.92939  1.0000
  H   H731      1.0  0.07399  0.78212  0.92044  1.0000
  H   H732      1.0  0.09142  0.77589  0.95988  1.0000
  H   H733      1.0  0.31601  0.89094  0.88042  1.0000
  H   H734      1.0  0.27165  0.89839  0.88417  1.0000
  H   H735      1.0  0.04335  0.78019  0.94392  1.0000
  C   C456      1.0  0.20297  0.99214  0.76575  1.0000
  C   C457      1.0  0.21437  0.99439  0.96299  1.0000
  S   S191      1.0  0.25581  0.86271  0.97713  1.0000
  C   C458      1.0  0.00087  0.79205  0.76827  1.0000
  C   C459      1.0  0.03863  0.83725  0.78833  1.0000
  H   H736      1.0  0.03833  0.82780  0.80485  1.0000
  H   H737      1.0  0.06562  0.83903  0.75840  1.0000
  H   H738      1.0  0.29185  0.91195  0.87245  1.0000
  N   N48       1.0  0.27394  0.89877  0.83619  1.0000
  C   C460      1.0  0.25994  0.88234  0.83044  1.0000
  C   C461      1.0  0.01059  0.79308  0.97538  1.0000
  H   H739      1.0  0.26417  0.87208  0.83371  1.0000
  H   H740      1.0  0.24975  0.88041  0.84597  1.0000
  H   H741      1.0  0.01059  0.76120  0.97677  1.0000
  H   H742      1.0  0.28514  0.90590  0.98450  1.0000
  C   C462      1.0  0.28697  0.90088  0.81462  1.0000
  H   H743      1.0  0.27804  0.92455  0.83615  1.0000
  C   C463      1.0  0.20595  0.97657  0.67060  1.0000
  H   H744      1.0  0.26182  0.91135  0.80943  1.0000
  H   H745      1.0  0.08090  0.85470  0.78356  1.0000
  H   H746      1.0  0.29142  0.89073  0.81609  1.0000
  H   H747      1.0  0.04587  0.86848  0.77152  1.0000
  H   H748      1.0  0.25437  0.88097  0.80698  1.0000
  C   C464      1.0  0.06798  0.84473  0.78160  1.0000
  H   H749      1.0  0.17102  0.77125  0.96844  1.0000
  H   H750      1.0  0.05586  0.77251  0.96692  1.0000
  H   H751      1.0  0.28573  0.88989  0.87100  1.0000
  C   C465      1.0  0.09097  0.75420  0.93604  1.0000
  H   H752      1.0  0.12637  0.77870  0.87023  1.0000
  H   H753      1.0  0.07234  0.86954  0.82110  1.0000
  H   H754      1.0  0.06790  0.83501  0.79733  1.0000
  C   C466      1.0  0.30717  0.87276  0.84364  1.0000
  C   C467      1.0  0.04316  0.77247  0.96360  1.0000
  H   H755      1.0  0.29811  0.91280  0.81908  1.0000
  S   S192      1.0  0.10368  0.75033  0.96414  1.0000
  N   N49       1.0  0.14262  0.78538  0.91068  1.0000
  C   C468      1.0  0.14165  0.78120  0.94283  1.0000
  C   C469      1.0  0.12608  0.77626  0.89473  1.0000
  C   C470      1.0  0.15525  0.78067  0.89702  1.0000
  C   C471      1.0  0.14748  0.80344  0.90821  1.0000
  H   H756      1.0  0.13848  0.76774  0.94559  1.0000
  H   H757      1.0  0.13175  0.78395  0.95361  1.0000
  H   H758      1.0  0.15374  0.78825  0.95581  1.0000
  H   H759      1.0  0.22408  0.98788  0.78376  1.0000
  H   H760      1.0  0.11636  0.77988  0.90396  1.0000
  H   H761      1.0  0.03496  0.83071  0.76579  1.0000
  H   H762      1.0  0.15595  0.78311  0.87253  1.0000
  H   H763      1.0  0.15236  0.76724  0.89953  1.0000
  H   H764      1.0  0.16798  0.78776  0.90788  1.0000
  H   H765      1.0  0.15995  0.81074  0.91989  1.0000
  H   H766      1.0  0.13825  0.80741  0.91849  1.0000
  H   H767      1.0  0.14821  0.80702  0.88423  1.0000
  C   C472      1.0  0.99560  0.78427  0.95837  1.0000
  H   H768      1.0  0.01283  0.76413  0.93712  1.0000
  H   H769      1.0  0.20726  0.99217  0.85380  1.0000
  H   H770      1.0  0.28215  0.90070  0.79093  1.0000
  C   C473      1.0  0.31012  0.86905  0.81406  1.0000
  C   C474      1.0  0.05954  0.85936  0.81937  1.0000
  H   H771      1.0  0.05212  0.85761  0.74337  1.0000
  H   H772      1.0  0.99533  0.78475  0.93404  1.0000
  C   C475      1.0  0.28112  0.89981  0.86732  1.0000
  C   C476      1.0  0.01219  0.78919  0.75019  1.0000
  H   H773      1.0  0.01674  0.78230  0.70566  1.0000
  C   C477      1.0  0.05526  0.86336  0.76658  1.0000
  H   H774      1.0  0.06773  0.87399  0.76658  1.0000
  H   H775      1.0  0.12168  0.76262  0.89705  1.0000
  C   C478      1.0  0.31799  0.88788  0.85768  1.0000
  C   C479      1.0  0.21980  0.99448  0.76741  1.0000
  C   C480      1.0  0.19851  0.99161  0.97279  1.0000
  H   H776      1.0  0.23037  0.79357  0.98666  1.0000
  H   H777      1.0  0.20925  0.96564  0.67169  1.0000
  C   C481      1.0  0.01347  0.75605  0.95576  1.0000
  H   H778      1.0  0.18744  0.98302  0.96012  1.0000
  H   H779      1.0  0.03302  0.75523  0.91102  1.0000
  H   H780      1.0  0.24812  0.78841  0.98356  1.0000
  C   C482      1.0  0.99189  0.78176  0.70643  1.0000
  C   C483      1.0  0.24430  0.79888  0.98705  1.0000
  C   C484      1.0  0.07510  0.74749  0.88773  1.0000
  H   H781      1.0  0.19234  0.97221  0.67414  1.0000
  C   C485      1.0  0.03304  0.74779  0.93105  1.0000
  N   N50       1.0  0.03010  0.75543  0.95882  1.0000
  C   C486      1.0  0.32373  0.88023  0.79873  1.0000
  H   H782      1.0  0.99272  0.74677  0.72059  1.0000
  H   H783      1.0  0.41823  0.05131  0.14479  1.0000
  Fe  Fe97      1.0  0.62203  0.09203  0.22633  1.0000
  S   S193      1.0  0.62969  0.08278  0.26909  1.0000
  S   S194      1.0  0.63381  0.09100  0.18158  1.0000
  Fe  Fe98      1.0  0.58835  0.08945  0.25235  1.0000
  S   S195      1.0  0.59399  0.07996  0.29635  1.0000
  S   S196      1.0  0.56291  0.08751  0.23266  1.0000
  Fe  Fe99      1.0  0.62036  0.09961  0.29378  1.0000
  Fe  Fe100     1.0  0.60295  0.06408  0.26824  1.0000
  S   S197      1.0  0.59655  0.03692  0.27657  1.0000
  S   S198      1.0  0.61415  0.11017  0.25061  1.0000
  S   S199      1.0  0.59582  0.07227  0.22475  1.0000
  Fe  Fe101     1.0  0.47491  0.08977  0.27674  1.0000
  S   S200      1.0  0.50285  0.09946  0.29106  1.0000
  Fe  Fe102     1.0  0.44587  0.08543  0.23058  1.0000
  S   S201      1.0  0.42647  0.07031  0.26215  1.0000
  S   S202      1.0  0.43753  0.08565  0.18095  1.0000
  C   C487      1.0  0.32483  0.08172  0.08249  1.0000
  Fe  Fe103     1.0  0.44334  0.05740  0.27285  1.0000
  S   S203      1.0  0.43695  0.02982  0.27713  1.0000
  S   S204      1.0  0.46027  0.10545  0.26599  1.0000
  S   S205      1.0  0.46189  0.07107  0.23916  1.0000
  Fe  Fe104     1.0  0.40345  0.15957  0.01417  1.0000
  H   H784      1.0  0.33637  0.21671  0.03396  1.0000
  Fe  Fe105     1.0  0.40749  0.13652  0.06140  1.0000
  S   S206      1.0  0.38954  0.11340  0.03608  1.0000
  S   S207      1.0  0.42114  0.13983  0.10782  1.0000
  H   H785      1.0  0.56012  0.10192  0.29140  1.0000
  Fe  Fe106     1.0  0.37349  0.12754  0.02746  1.0000
  S   S208      1.0  0.34511  0.11774  0.02216  1.0000
  S   S209      1.0  0.42174  0.14747  0.02035  1.0000
  S   S210      1.0  0.39022  0.14985  0.05617  1.0000
  C   C488      1.0  0.33100  0.10191  0.04335  1.0000
  C   C489      1.0  0.33654  0.09419  0.06597  1.0000
  H   H786      1.0  0.34982  0.09789  0.07090  1.0000
  C   C490      1.0  0.43260  0.10078  0.16152  1.0000
  C   C491      1.0  0.42591  0.09716  0.13152  1.0000
  C   C492      1.0  0.42207  0.10883  0.11495  1.0000
  C   C493      1.0  0.42505  0.12437  0.12811  1.0000
  C   C494      1.0  0.43174  0.12800  0.15812  1.0000
  C   C495      1.0  0.43542  0.11626  0.17481  1.0000
  H   H787      1.0  0.42373  0.08527  0.12094  1.0000
  H   H788      1.0  0.41701  0.10587  0.09188  1.0000
  H   H789      1.0  0.43410  0.13997  0.16856  1.0000
  H   H790      1.0  0.44058  0.11925  0.19782  1.0000
  C   C496      1.0  0.40334  0.01390  0.25823  1.0000
  C   C497      1.0  0.41869  0.01268  0.26341  1.0000
  H   H791      1.0  0.38313  0.22668  0.08184  1.0000
  H   H792      1.0  0.40240  0.02560  0.26258  1.0000
  H   H793      1.0  0.64776  0.07130  0.22466  1.0000
  C   C498      1.0  0.54628  0.09055  0.24982  1.0000
  C   C499      1.0  0.54820  0.09784  0.27873  1.0000
  C   C500      1.0  0.51912  0.09531  0.27488  1.0000
  C   C501      1.0  0.51711  0.08763  0.24626  1.0000
  C   C502      1.0  0.53064  0.08539  0.23377  1.0000
  H   H794      1.0  0.50523  0.08379  0.23349  1.0000
  H   H795      1.0  0.52897  0.07973  0.21140  1.0000
  H   H796      1.0  0.53847  0.05148  0.31011  1.0000
  H   H797      1.0  0.55252  0.02157  0.27341  1.0000
  C   C503      1.0  0.58276  0.02068  0.25192  1.0000
  C   C504      1.0  0.57603  0.02395  0.22488  1.0000
  H   H798      1.0  0.60879  0.03405  0.20301  1.0000
  C   C505      1.0  0.57843  0.00411  0.25967  1.0000
  H   H799      1.0  0.57922  0.03659  0.21858  1.0000
  N   N51       1.0  0.54120  0.03914  0.26975  1.0000
  H   H800      1.0  0.42166  0.01113  0.15813  1.0000
  H   H801      1.0  0.53647  0.10632  0.31312  1.0000
  H   H802      1.0  0.51960  0.02266  0.29164  1.0000
  C   C506      1.0  0.61962  0.04631  0.20255  1.0000
  C   C507      1.0  0.41228  0.23350  0.04627  1.0000
  C   C508      1.0  0.65608  0.12277  0.16664  1.0000
  S   S211      1.0  0.45722  0.07522  0.31145  1.0000
  C   C509      1.0  0.40993  0.20364  0.01708  1.0000
  C   C510      1.0  0.40904  0.20453  0.04838  1.0000
  C   C511      1.0  0.41058  0.21948  0.06292  1.0000
  H   H803      1.0  0.40758  0.19382  0.06137  1.0000
  H   H804      1.0  0.41047  0.22023  0.08724  1.0000
  H   H805      1.0  0.34172  0.22804  0.06946  1.0000
  C   C512      1.0  0.36877  0.23653  0.03598  1.0000
  H   H806      1.0  0.54929  0.02959  0.30885  1.0000
  H   H807      1.0  0.36898  0.23468  0.09596  1.0000
  Fe  Fe107     1.0  0.44172  0.08945  0.29845  1.0000
  S   S212      1.0  0.41041  0.18593  0.99805  1.0000
  N   N52       1.0  0.44830  0.18889  0.08416  1.0000
  C   C513      1.0  0.44612  0.19393  0.05320  1.0000
  C   C514      1.0  0.43205  0.18267  0.09836  1.0000
  C   C515      1.0  0.46046  0.20336  0.10210  1.0000
  C   C516      1.0  0.45454  0.17561  0.08307  1.0000
  H   H808      1.0  0.45803  0.19839  0.04146  1.0000
  H   H809      1.0  0.44161  0.20407  0.05313  1.0000
  H   H810      1.0  0.43674  0.18342  0.03916  1.0000
  H   H811      1.0  0.43303  0.17803  0.12125  1.0000
  H   H812      1.0  0.42717  0.19247  0.10052  1.0000
  H   H813      1.0  0.42248  0.17205  0.08488  1.0000
  H   H814      1.0  0.46232  0.19999  0.12563  1.0000
  H   H815      1.0  0.45612  0.21362  0.10328  1.0000
  H   H816      1.0  0.47289  0.20835  0.09204  1.0000
  N   N53       1.0  0.63543  0.04520  0.21275  1.0000
  H   H817      1.0  0.46680  0.17978  0.07255  1.0000
  H   H818      1.0  0.44563  0.16448  0.06983  1.0000
  N   N54       1.0  0.59819  0.11023  0.15115  1.0000
  C   C517      1.0  0.59308  0.11658  0.12360  1.0000
  C   C518      1.0  0.59715  0.09332  0.14468  1.0000
  C   C519      1.0  0.58695  0.10971  0.17532  1.0000
  C   C520      1.0  0.61559  0.12129  0.16105  1.0000
  H   H819      1.0  0.59381  0.12937  0.12767  1.0000
  H   H820      1.0  0.57996  0.10856  0.11565  1.0000
  H   H821      1.0  0.60128  0.11703  0.10488  1.0000
  H   H822      1.0  0.60048  0.08801  0.16523  1.0000
  H   H823      1.0  0.58429  0.08468  0.13647  1.0000
  H   H824      1.0  0.60599  0.09331  0.12742  1.0000
  H   H825      1.0  0.59060  0.10515  0.19650  1.0000
  H   H826      1.0  0.57371  0.10122  0.16907  1.0000
  H   H827      1.0  0.58725  0.12220  0.18080  1.0000
  H   H828      1.0  0.61989  0.11673  0.18163  1.0000
  H   H829      1.0  0.61687  0.13414  0.16649  1.0000
  H   H830      1.0  0.62444  0.12200  0.14334  1.0000
  H   H831      1.0  0.53838  0.04883  0.22668  1.0000
  H   H832      1.0  0.61695  0.05508  0.21742  1.0000
  C   C521      1.0  0.36962  0.22392  0.08339  1.0000
  H   H833      1.0  0.35687  0.19560  0.04921  1.0000
  C   C522      1.0  0.41233  0.23234  0.01485  1.0000
  H   H834      1.0  0.36406  0.21278  0.09715  1.0000
  H   H835      1.0  0.41872  0.03311  0.12681  1.0000
  N   N55       1.0  0.42240  0.03444  0.17516  1.0000
  C   C523      1.0  0.44083  0.04302  0.17485  1.0000
  C   C524      1.0  0.41658  0.04074  0.20131  1.0000
  C   C525      1.0  0.41758  0.01638  0.17757  1.0000
  C   C526      1.0  0.41467  0.03772  0.14711  1.0000
  C   C527      1.0  0.64853  0.10579  0.15879  1.0000
  H   H836      1.0  0.44707  0.04073  0.19566  1.0000
  H   H837      1.0  0.37583  0.20971  0.03390  1.0000
  H   H838      1.0  0.40291  0.03376  0.20361  1.0000
  H   H839      1.0  0.42325  0.03979  0.22261  1.0000
  H   H840      1.0  0.41889  0.05402  0.19922  1.0000
  H   H841      1.0  0.42334  0.01362  0.19852  1.0000
  H   H842      1.0  0.64600  0.03883  0.25286  1.0000
  H   H843      1.0  0.40376  0.00950  0.17840  1.0000
  H   H844      1.0  0.40076  0.03162  0.14679  1.0000
  C   C528      1.0  0.53474  0.10032  0.29102  1.0000
  H   H845      1.0  0.35406  0.07059  0.99917  1.0000
  H   H846      1.0  0.35646  0.09149  0.00684  1.0000
  C   C529      1.0  0.52394  0.02615  0.26859  1.0000
  H   H847      1.0  0.65340  0.12727  0.18768  1.0000
  Fe  Fe108     1.0  0.40250  0.12521  0.99416  1.0000
  H   H848      1.0  0.44568  0.03878  0.15517  1.0000
  H   H849      1.0  0.37719  0.00081  0.24413  1.0000
  C   C530      1.0  0.63441  0.04007  0.24440  1.0000
  H   H850      1.0  0.38213  0.23936  0.03238  1.0000
  C   C531      1.0  0.64949  0.06160  0.21059  1.0000
  H   H851      1.0  0.63254  0.04925  0.25967  1.0000
  H   H852      1.0  0.44491  0.05672  0.17361  1.0000
  H   H853      1.0  0.40621  0.06305  0.32340  1.0000
  H   H854      1.0  0.62361  0.02796  0.24697  1.0000
  H   H855      1.0  0.52306  0.01467  0.25630  1.0000
  C   C532      1.0  0.54181  0.05408  0.28632  1.0000
  C   C533      1.0  0.36247  0.20729  0.03687  1.0000
  H   H856      1.0  0.62013  0.05085  0.17921  1.0000
  H   H857      1.0  0.56023  0.01338  0.18455  1.0000
  H   H858      1.0  0.45604  0.17130  0.10603  1.0000
  C   C534      1.0  0.56525  0.01077  0.20562  1.0000
  C   C535      1.0  0.41960  0.99730  0.25823  1.0000
  H   H859      1.0  0.33664  0.20617  0.06827  1.0000
  C   C536      1.0  0.54636  0.04343  0.23872  1.0000
  C   C537      1.0  0.55269  0.03288  0.28529  1.0000
  C   C538      1.0  0.34313  0.21785  0.05632  1.0000
  C   C539      1.0  0.38907  0.99983  0.24788  1.0000
  N   N56       1.0  0.36098  0.22136  0.05313  1.0000
  H   H860      1.0  0.41370  0.24301  0.00171  1.0000
  H   H861      1.0  0.58353  0.00145  0.28060  1.0000
  H   H862      1.0  0.53295  0.05887  0.27565  1.0000
  H   H863      1.0  0.32919  0.07589  0.10020  1.0000
  H   H864      1.0  0.56586  0.04233  0.28635  1.0000
  H   H865      1.0  0.62774  0.02028  0.19464  1.0000
  H   H866      1.0  0.55949  0.05286  0.23879  1.0000
  H   H867      1.0  0.54562  0.03236  0.22526  1.0000
  H   H868      1.0  0.51497  0.03046  0.25683  1.0000
  H   H869      1.0  0.65054  0.06592  0.18703  1.0000
  H   H870      1.0  0.55453  0.06436  0.28669  1.0000
  C   C540      1.0  0.65241  0.10023  0.13146  1.0000
  C   C541      1.0  0.63813  0.03280  0.19342  1.0000
  H   H871      1.0  0.65002  0.03169  0.20038  1.0000
  H   H872      1.0  0.36223  0.23547  0.01342  1.0000
  H   H873      1.0  0.63881  0.03626  0.16936  1.0000
  H   H874      1.0  0.35609  0.20511  0.01394  1.0000
  C   C542      1.0  0.41143  0.21758  0.00043  1.0000
  H   H875      1.0  0.64669  0.08714  0.12505  1.0000
  H   H876      1.0  0.42352  0.04755  0.31858  1.0000
  H   H877      1.0  0.43140  0.99621  0.26241  1.0000
  H   H878      1.0  0.43777  0.20674  0.56381  1.0000
  S   S213      1.0  0.63380  0.11725  0.33439  1.0000
  N   N57       1.0  0.44317  0.19102  0.59534  1.0000
  S   S214      1.0  0.38998  0.13596  0.48373  1.0000
  S   S215      1.0  0.42624  0.11926  0.46716  1.0000
  C   C543      1.0  0.42535  0.11265  0.42868  1.0000
  C   C544      1.0  0.43919  0.11038  0.41780  1.0000
  C   C545      1.0  0.43947  0.10585  0.38725  1.0000
  C   C546      1.0  0.42587  0.10349  0.36708  1.0000
  C   C547      1.0  0.41201  0.10571  0.37797  1.0000
  C   C548      1.0  0.41171  0.11022  0.40853  1.0000
  H   H879      1.0  0.44985  0.11228  0.43310  1.0000
  H   H880      1.0  0.45028  0.10430  0.37930  1.0000
  H   H881      1.0  0.40138  0.10389  0.36262  1.0000
  H   H882      1.0  0.40089  0.11175  0.41647  1.0000
  H   H883      1.0  0.33199  0.21140  0.53650  1.0000
  C   C549      1.0  0.33843  0.22200  0.55293  1.0000
  H   H884      1.0  0.41009  0.03272  0.39491  1.0000
  C   C550      1.0  0.65463  0.09877  0.50322  1.0000
  H   H885      1.0  0.41856  0.18980  0.60278  1.0000
  C   C551      1.0  0.63609  0.10148  0.46376  1.0000
  H   H886      1.0  0.62401  0.11282  0.50984  1.0000
  H   H887      1.0  0.33552  0.23252  0.54506  1.0000
  H   H888      1.0  0.41541  0.21570  0.47266  1.0000
  H   H889      1.0  0.37757  0.23613  0.52713  1.0000
  Fe  Fe109     1.0  0.40371  0.15814  0.51513  1.0000
  S   S216      1.0  0.41101  0.18402  0.49615  1.0000
  Fe  Fe110     1.0  0.40872  0.13614  0.56470  1.0000
  S   S217      1.0  0.39544  0.11242  0.53661  1.0000
  S   S218      1.0  0.42207  0.14092  0.61167  1.0000
  Fe  Fe111     1.0  0.40960  0.12673  0.49757  1.0000
  Fe  Fe112     1.0  0.37670  0.12339  0.52462  1.0000
  S   S219      1.0  0.34836  0.11048  0.51700  1.0000
  S   S220      1.0  0.42417  0.14968  0.52680  1.0000
  S   S221      1.0  0.38910  0.14630  0.55497  1.0000
  C   C552      1.0  0.33444  0.09974  0.54473  1.0000
  C   C553      1.0  0.33996  0.09426  0.57071  1.0000
  H   H890      1.0  0.35311  0.09696  0.57463  1.0000
  H   H891      1.0  0.42466  0.17607  0.62511  1.0000
  C   C554      1.0  0.42516  0.12544  0.63317  1.0000
  C   C555      1.0  0.41834  0.10875  0.62339  1.0000
  C   C556      1.0  0.40195  0.03769  0.38218  1.0000
  H   H892      1.0  0.41101  0.10502  0.60217  1.0000
  C   C557      1.0  0.42557  0.18171  0.60264  1.0000
  N   N58       1.0  0.41111  0.04883  0.35855  1.0000
  H   H893      1.0  0.63789  0.11065  0.53896  1.0000
  H   H894      1.0  0.39744  0.04436  0.39875  1.0000
  C   C558      1.0  0.40994  0.23150  0.53992  1.0000
  C   C559      1.0  0.41272  0.23070  0.50930  1.0000
  C   C560      1.0  0.41269  0.21598  0.49612  1.0000
  C   C561      1.0  0.40940  0.20175  0.51311  1.0000
  C   C562      1.0  0.40585  0.20232  0.54337  1.0000
  C   C563      1.0  0.40649  0.21721  0.55683  1.0000
  H   H895      1.0  0.40299  0.19140  0.55654  1.0000
  H   H896      1.0  0.40433  0.21768  0.58054  1.0000
  C   C564      1.0  0.65491  0.12997  0.38540  1.0000
  H   H897      1.0  0.64159  0.12057  0.60798  1.0000
  C   C565      1.0  0.36459  0.24038  0.57824  1.0000
  N   N59       1.0  0.43325  0.16499  0.42441  1.0000
  C   C566      1.0  0.44129  0.16708  0.45510  1.0000
  C   C567      1.0  0.44136  0.15752  0.40389  1.0000
  C   C568      1.0  0.43495  0.18136  0.41365  1.0000
  C   C569      1.0  0.41530  0.15399  0.42519  1.0000
  H   H898      1.0  0.45484  0.17537  0.45549  1.0000
  H   H899      1.0  0.44024  0.15494  0.46389  1.0000
  H   H900      1.0  0.43531  0.17249  0.47123  1.0000
  H   H901      1.0  0.43531  0.15529  0.38068  1.0000
  H   H902      1.0  0.45487  0.16559  0.40236  1.0000
  H   H903      1.0  0.44053  0.14531  0.41189  1.0000
  H   H904      1.0  0.42886  0.18021  0.39066  1.0000
  H   H905      1.0  0.44833  0.19003  0.41275  1.0000
  H   H906      1.0  0.42895  0.18726  0.42890  1.0000
  H   H907      1.0  0.40887  0.15158  0.40230  1.0000
  H   H908      1.0  0.40871  0.15954  0.43973  1.0000
  H   H909      1.0  0.41355  0.14174  0.43432  1.0000
  C   C570      1.0  0.32835  0.08489  0.59134  1.0000
  H   H910      1.0  0.35449  0.20168  0.54775  1.0000
  H   H911      1.0  0.42203  0.06995  0.38960  1.0000
  H   H912      1.0  0.45677  0.20422  0.55807  1.0000
  C   C571      1.0  0.41674  0.03953  0.33688  1.0000
  C   C572      1.0  0.63180  0.10589  0.51608  1.0000
  H   H913      1.0  0.43686  0.18763  0.54756  1.0000
  H   H914      1.0  0.41894  0.17129  0.58595  1.0000
  H   H915      1.0  0.37837  0.24409  0.58097  1.0000
  H   H916      1.0  0.44506  0.21356  0.61780  1.0000
  N   N60       1.0  0.35670  0.22667  0.55543  1.0000
  C   C573      1.0  0.42098  0.09680  0.64109  1.0000
  H   H917      1.0  0.64833  0.13307  0.48398  1.0000
  H   H918      1.0  0.44606  0.16919  0.57945  1.0000
  H   H919      1.0  0.64922  0.09382  0.34864  1.0000
  H   H920      1.0  0.64540  0.10262  0.44673  1.0000
  H   H921      1.0  0.45123  0.20023  0.64098  1.0000
  C   C574      1.0  0.36373  0.23213  0.52592  1.0000
  H   H922      1.0  0.33271  0.08044  0.61111  1.0000
  C   C575      1.0  0.36009  0.21223  0.56460  1.0000
  H   H923      1.0  0.64682  0.08528  0.50478  1.0000
  N   N61       1.0  0.64445  0.10796  0.49378  1.0000
  C   C576      1.0  0.39996  0.05532  0.34245  1.0000
  C   C577      1.0  0.45143  0.20487  0.61777  1.0000
  H   H924      1.0  0.62329  0.09259  0.51798  1.0000
  C   C578      1.0  0.45197  0.17978  0.59613  1.0000
  H   H925      1.0  0.36112  0.24285  0.51813  1.0000
  H   H926      1.0  0.63116  0.03458  0.65600  1.0000
  H   H927      1.0  0.46534  0.18634  0.59104  1.0000
  C   C579      1.0  0.64880  0.11567  0.62213  1.0000
  C   C580      1.0  0.44370  0.19769  0.56489  1.0000
  H   H928      1.0  0.41563  0.08392  0.63324  1.0000
  H   H929      1.0  0.45149  0.17422  0.61861  1.0000
  H   H930      1.0  0.62752  0.08812  0.46416  1.0000
  H   H931      1.0  0.41548  0.24158  0.49601  1.0000
  C   C581      1.0  0.65396  0.10398  0.36527  1.0000
  C   C582      1.0  0.65541  0.12578  0.49218  1.0000
  H   H932      1.0  0.46475  0.21220  0.61293  1.0000
  H   H933      1.0  0.35832  0.22203  0.50821  1.0000
  H   H934      1.0  0.42548  0.03470  0.34791  1.0000
  H   H935      1.0  0.35935  0.23690  0.60068  1.0000
  H   H936      1.0  0.37380  0.21548  0.56681  1.0000
  H   H937      1.0  0.39637  0.06339  0.35761  1.0000
  H   H938      1.0  0.35488  0.20775  0.58674  1.0000
  H   H939      1.0  0.62868  0.10844  0.45543  1.0000
  H   H940      1.0  0.39084  0.02691  0.37234  1.0000
  C   C583      1.0  0.64853  0.11688  0.36340  1.0000
  H   H941      1.0  0.33273  0.21845  0.57503  1.0000
  C   C584      1.0  0.42579  0.06282  0.37271  1.0000
  H   H942      1.0  0.43478  0.05852  0.38433  1.0000
  H   H943      1.0  0.43271  0.07176  0.35568  1.0000
  H   H944      1.0  0.38831  0.04512  0.33279  1.0000
  H   H945      1.0  0.65088  0.14006  0.38418  1.0000
  C   C585      1.0  0.64236  0.10828  0.64940  1.0000
  S   S222      1.0  0.42532  0.09761  0.32829  1.0000
  H   H946      1.0  0.63032  0.10752  0.65590  1.0000
  H   H947      1.0  0.40605  0.02877  0.32587  1.0000
  Fe  Fe113     1.0  0.62067  0.08747  0.72925  1.0000
  S   S223      1.0  0.62444  0.07625  0.77270  1.0000
  S   S224      1.0  0.64408  0.09232  0.70273  1.0000
  Fe  Fe114     1.0  0.58632  0.08578  0.74906  1.0000
  S   S225      1.0  0.58845  0.07450  0.79319  1.0000
  S   S226      1.0  0.56519  0.09397  0.73627  1.0000
  Fe  Fe115     1.0  0.61531  0.09326  0.79659  1.0000
  H   H948      1.0  0.35451  0.10900  0.96496  1.0000
  Fe  Fe116     1.0  0.59748  0.05851  0.76514  1.0000
  S   S227      1.0  0.59183  0.03143  0.77339  1.0000
  S   S228      1.0  0.61280  0.10548  0.75364  1.0000
  S   S229      1.0  0.59396  0.06869  0.72057  1.0000
  Fe  Fe117     1.0  0.46956  0.07995  0.78076  1.0000
  S   S230      1.0  0.45201  0.07289  0.81898  1.0000
  S   S231      1.0  0.49375  0.07600  0.79159  1.0000
  Fe  Fe118     1.0  0.44264  0.08407  0.73804  1.0000
  S   S232      1.0  0.42353  0.07676  0.77312  1.0000
  S   S233      1.0  0.43327  0.08561  0.68984  1.0000
  Fe  Fe119     1.0  0.44446  0.09341  0.80520  1.0000
  S   S234      1.0  0.44056  0.11308  0.83472  1.0000
  Fe  Fe120     1.0  0.43238  0.05685  0.78414  1.0000
  S   S235      1.0  0.41424  0.03097  0.79549  1.0000
  S   S236      1.0  0.46350  0.10197  0.76922  1.0000
  S   S237      1.0  0.45005  0.06272  0.74694  1.0000
  C   C586      1.0  0.40473  0.10879  0.78807  1.0000
  S   S238      1.0  0.40460  0.10644  0.95973  1.0000
  H   H949      1.0  0.44616  0.03426  0.79253  1.0000
  H   H950      1.0  0.40862  0.09842  0.79215  1.0000
  H   H951      1.0  0.55675  0.00497  0.68128  1.0000
  H   H952      1.0  0.44516  0.12176  0.69920  1.0000
  S   S239      1.0  0.62779  0.11233  0.83559  1.0000
  C   C587      1.0  0.41490  0.10873  0.92519  1.0000
  C   C588      1.0  0.41472  0.09446  0.91007  1.0000
  C   C589      1.0  0.42257  0.09554  0.88259  1.0000
  C   C590      1.0  0.43067  0.11095  0.86968  1.0000
  C   C591      1.0  0.43073  0.12520  0.88464  1.0000
  C   C592      1.0  0.42296  0.12413  0.91222  1.0000
  H   H953      1.0  0.40857  0.08247  0.91980  1.0000
  H   H954      1.0  0.42236  0.08444  0.87146  1.0000
  H   H955      1.0  0.43694  0.13720  0.87496  1.0000
  H   H956      1.0  0.42321  0.13523  0.92342  1.0000
  C   C593      1.0  0.41686  0.01638  0.74158  1.0000
  C   C594      1.0  0.41059  0.01398  0.77031  1.0000
  C   C595      1.0  0.64875  0.12614  0.88629  1.0000
  H   H957      1.0  0.42358  0.02882  0.73408  1.0000
  C   C596      1.0  0.45785  0.03418  0.80308  1.0000
  C   C597      1.0  0.54493  0.08794  0.75072  1.0000
  C   C598      1.0  0.53983  0.07742  0.77496  1.0000
  C   C599      1.0  0.52415  0.07394  0.78699  1.0000
  C   C600      1.0  0.51319  0.08067  0.77474  1.0000
  C   C601      1.0  0.51817  0.09097  0.75021  1.0000
  C   C602      1.0  0.53397  0.09464  0.73844  1.0000
  H   H958      1.0  0.54799  0.07203  0.78458  1.0000
  H   H959      1.0  0.52049  0.06599  0.80601  1.0000
  H   H960      1.0  0.50994  0.09627  0.74052  1.0000
  H   H961      1.0  0.53773  0.10280  0.71971  1.0000
  C   C603      1.0  0.65151  0.10191  0.66805  1.0000
  H   H962      1.0  0.61835  0.05685  0.68988  1.0000
  C   C604      1.0  0.57894  0.01446  0.74914  1.0000
  C   C605      1.0  0.57155  0.01677  0.72198  1.0000
  C   C606      1.0  0.43468  0.13003  0.66085  1.0000
  C   C607      1.0  0.40506  0.10549  0.73392  1.0000
  H   H963      1.0  0.57297  0.02910  0.71599  1.0000
  H   H964      1.0  0.64378  0.05429  0.67451  1.0000
  H   H965      1.0  0.32576  0.07733  0.94099  1.0000
  H   H966      1.0  0.46671  0.04736  0.80713  1.0000
  H   H967      1.0  0.44048  0.00579  0.77173  1.0000
  H   H968      1.0  0.37261  0.08763  0.98876  1.0000
  H   H969      1.0  0.37102  0.10554  0.94756  1.0000
  N   N62       1.0  0.46477  0.02507  0.78358  1.0000
  C   C608      1.0  0.33237  0.07735  0.96302  1.0000
  C   C609      1.0  0.48120  0.02677  0.79693  1.0000
  H   H970      1.0  0.62578  0.04287  0.74920  1.0000
  C   C610      1.0  0.42995  0.12403  0.76270  1.0000
  H   H971      1.0  0.39081  0.10353  0.78711  1.0000
  C   C611      1.0  0.45310  0.00735  0.78108  1.0000
  C   C612      1.0  0.46690  0.03209  0.75327  1.0000
  C   C613      1.0  0.41423  0.00264  0.72231  1.0000
  C   C614      1.0  0.61745  0.01890  0.70587  1.0000
  H   H972      1.0  0.36808  0.07694  0.93626  1.0000
  H   H973      1.0  0.60370  0.04103  0.71154  1.0000
  H   H974      1.0  0.40946  0.11737  0.80834  1.0000
  H   H975      1.0  0.44016  0.14293  0.66848  1.0000
  H   H976      1.0  0.48009  0.02191  0.82006  1.0000
  C   C615      1.0  0.56233  0.00307  0.70236  1.0000
  H   H977      1.0  0.41080  0.14031  0.77545  1.0000
  N   N63       1.0  0.58095  0.12283  0.81835  1.0000
  C   C616      1.0  0.58731  0.13256  0.84706  1.0000
  C   C617      1.0  0.57709  0.10518  0.82351  1.0000
  C   C618      1.0  0.59384  0.12897  0.79594  1.0000
  C   C619      1.0  0.56559  0.12453  0.80685  1.0000
  H   H978      1.0  0.59889  0.13145  0.85621  1.0000
  H   H979      1.0  0.57789  0.12819  0.86450  1.0000
  H   H980      1.0  0.59041  0.14599  0.84406  1.0000
  H   H981      1.0  0.57247  0.09757  0.80218  1.0000
  H   H982      1.0  0.58839  0.10344  0.83237  1.0000
  H   H983      1.0  0.56720  0.09996  0.83991  1.0000
  H   H984      1.0  0.58936  0.12192  0.77394  1.0000
  H   H985      1.0  0.60552  0.12763  0.80372  1.0000
  H   H986      1.0  0.59717  0.14230  0.79155  1.0000
  H   H987      1.0  0.56077  0.11763  0.78480  1.0000
  H   H988      1.0  0.56791  0.13773  0.80324  1.0000
  H   H989      1.0  0.55534  0.11947  0.82264  1.0000
  C   C620      1.0  0.43742  0.11806  0.67846  1.0000
  C   C621      1.0  0.35719  0.10048  0.94938  1.0000
  C   C622      1.0  0.64209  0.11239  0.86572  1.0000
  H   H990      1.0  0.48680  0.01998  0.78298  1.0000
  N   N64       1.0  0.41146  0.11733  0.76018  1.0000
  H   H991      1.0  0.43520  0.13254  0.78292  1.0000
  H   H992      1.0  0.45485  0.02855  0.82545  1.0000
  H   H993      1.0  0.43442  0.11392  0.76508  1.0000
  H   H994      1.0  0.41910  0.00461  0.70009  1.0000
  H   H995      1.0  0.64439  0.04106  0.73772  1.0000
  C   C623      1.0  0.40613  0.13112  0.75606  1.0000
  H   H996      1.0  0.40950  0.09531  0.73538  1.0000
  C   C624      1.0  0.64715  0.09933  0.86938  1.0000
  H   H997      1.0  0.65169  0.12112  0.74614  1.0000
  C   C625      1.0  0.63755  0.04067  0.67794  1.0000
  H   H998      1.0  0.43552  0.13099  0.74251  1.0000
  S   S240      1.0  0.38553  0.13822  0.98470  1.0000
  H   H999      1.0  0.64211  0.08860  0.85399  1.0000
  H   H1000     1.0  0.47248  0.02581  0.73811  1.0000
  N   N65       1.0  0.35064  0.08338  0.96026  1.0000
  H   H1001     1.0  0.39224  0.12651  0.75410  1.0000
  C   C626      1.0  0.43045  0.10134  0.66874  1.0000
  H   H1002     1.0  0.64678  0.12648  0.78261  1.0000
  H   H1003     1.0  0.45467  0.03071  0.74230  1.0000
  H   H1004     1.0  0.49022  0.04007  0.79874  1.0000
  H   H1005     1.0  0.47523  0.04559  0.75445  1.0000
  H   H1006     1.0  0.64754  0.03622  0.68356  1.0000
  N   N66       1.0  0.62556  0.03703  0.70196  1.0000
  H   H1007     1.0  0.40936  0.11169  0.71239  1.0000
  H   H1008     1.0  0.41214  0.21705  0.97620  1.0000
  H   H1009     1.0  0.35149  0.10104  0.92676  1.0000
  H   H1010     1.0  0.34837  0.07228  0.91589  1.0000
  H   H1011     1.0  0.39114  0.09964  0.73201  1.0000
  C   C627      1.0  0.63452  0.04540  0.73059  1.0000
  C   C628      1.0  0.35431  0.07251  0.93869  1.0000
  H   H1012     1.0  0.64062  0.05912  0.72850  1.0000
  H   H1013     1.0  0.41100  0.13784  0.73520  1.0000
  H   H1014     1.0  0.61010  0.01219  0.68502  1.0000
  H   H1015     1.0  0.64499  0.13635  0.88374  1.0000
  H   H1016     1.0  0.60528  0.03693  0.67245  1.0000
  H   H1017     1.0  0.34968  0.05952  0.94626  1.0000
  C   C629      1.0  0.61266  0.04324  0.69351  1.0000
  H   H1018     1.0  0.62680  0.01368  0.71178  1.0000
  H   H1019     1.0  0.45129  0.00159  0.80348  1.0000
  H   H1020     1.0  0.60858  0.01587  0.72430  1.0000
  H   H1021     1.0  0.65411  0.10448  0.80416  1.0000
  H   H1022     1.0  0.32698  0.06451  0.97136  1.0000
  H   H1023     1.0  0.32936  0.08541  0.97928  1.0000
  H   H1024     1.0  0.45764  0.00008  0.76593  1.0000
  C   C630      1.0  0.40154  0.99773  0.77947  1.0000
  C   C631      1.0  0.35880  0.08326  0.99007  1.0000
  C   C632      1.0  0.57669  0.99830  0.75673  1.0000
  H   H1025     1.0  0.58235  0.99638  0.77771  1.0000
  C   C633      1.0  0.65709  0.12898  0.76709  1.0000
  H   H1026     1.0  0.43261  0.31389  0.25080  1.0000
  Fe  Fe121     1.0  0.48063  0.41140  0.29083  1.0000
  H   H1027     1.0  0.45356  0.47032  0.25338  1.0000
  Fe  Fe122     1.0  0.46408  0.37876  0.25197  1.0000
  S   S241      1.0  0.44187  0.36809  0.28023  1.0000
  S   S242      1.0  0.46713  0.36325  0.21310  1.0000
  Fe  Fe123     1.0  0.44265  0.39391  0.27987  1.0000
  S   S243      1.0  0.41881  0.39806  0.27485  1.0000
  H   H1028     1.0  0.35232  0.27119  0.09140  1.0000
  S   S244      1.0  0.46353  0.40408  0.24858  1.0000
  S   S245      1.0  0.48304  0.38689  0.29176  1.0000
  S   S246      1.0  0.39283  0.48034  0.15947  1.0000
  Fe  Fe124     1.0  0.36903  0.46298  0.23250  1.0000
  S   S247      1.0  0.36574  0.44704  0.19042  1.0000
  S   S248      1.0  0.35596  0.44887  0.27351  1.0000
  Fe  Fe125     1.0  0.39369  0.45998  0.18884  1.0000
  S   S249      1.0  0.41071  0.44704  0.17867  1.0000
  Fe  Fe126     1.0  0.36492  0.46849  0.16463  1.0000
  S   S250      1.0  0.34383  0.46639  0.12953  1.0000
  S   S251      1.0  0.39729  0.47442  0.23256  1.0000
  H   H1029     1.0  0.33197  0.41925  0.05635  1.0000
  Fe  Fe127     1.0  0.40656  0.30581  0.07377  1.0000
  S   S252      1.0  0.39100  0.30713  0.03247  1.0000
  S   S253      1.0  0.40839  0.32287  0.11476  1.0000
  Fe  Fe128     1.0  0.40894  0.27393  0.04901  1.0000
  N   N67       1.0  0.45355  0.32594  0.28288  1.0000
  H   H1030     1.0  0.46606  0.31158  0.26485  1.0000
  Fe  Fe129     1.0  0.37698  0.27957  0.03605  1.0000
  S   S254      1.0  0.34900  0.26431  0.02637  1.0000
  S   S255      1.0  0.42583  0.30138  0.04679  1.0000
  S   S256      1.0  0.39102  0.27857  0.07876  1.0000
  H   H1031     1.0  0.48162  0.48005  0.28147  1.0000
  C   C634      1.0  0.44932  0.45980  0.26891  1.0000
  C   C635      1.0  0.45810  0.31153  0.28374  1.0000
  C   C636      1.0  0.33890  0.44761  0.29519  1.0000
  S   S257      1.0  0.57025  0.48792  0.25540  1.0000
  S   S258      1.0  0.39408  0.27363  0.00637  1.0000
  C   C637      1.0  0.33465  0.45386  0.09598  1.0000
  H   H1032     1.0  0.47616  0.34251  0.30744  1.0000
  H   H1033     1.0  0.33545  0.45861  0.19412  1.0000
  H   H1034     1.0  0.44058  0.33615  0.25261  1.0000
  H   H1035     1.0  0.48025  0.44653  0.25804  1.0000
  C   C638      1.0  0.42489  0.33268  0.14270  1.0000
  C   C639      1.0  0.42118  0.33872  0.16968  1.0000
  C   C640      1.0  0.43397  0.34818  0.19125  1.0000
  C   C641      1.0  0.45066  0.35144  0.18637  1.0000
  C   C642      1.0  0.45435  0.34487  0.15996  1.0000
  C   C643      1.0  0.44155  0.33561  0.13812  1.0000
  H   H1036     1.0  0.40829  0.33614  0.17372  1.0000
  H   H1037     1.0  0.43093  0.35287  0.21172  1.0000
  H   H1038     1.0  0.46722  0.34721  0.15607  1.0000
  H   H1039     1.0  0.44461  0.33104  0.11750  1.0000
  C   C644      1.0  0.41687  0.41188  0.24822  1.0000
  C   C645      1.0  0.40431  0.41780  0.25078  1.0000
  C   C646      1.0  0.40247  0.42883  0.22985  1.0000
  C   C647      1.0  0.41310  0.43385  0.20604  1.0000
  C   C648      1.0  0.42571  0.42797  0.20351  1.0000
  C   C649      1.0  0.42755  0.41696  0.22448  1.0000
  H   H1040     1.0  0.39597  0.41388  0.26906  1.0000
  H   H1041     1.0  0.39272  0.43332  0.23198  1.0000
  H   H1042     1.0  0.43397  0.43187  0.18513  1.0000
  H   H1043     1.0  0.43709  0.41228  0.22203  1.0000
  C   C650      1.0  0.55095  0.47407  0.26969  1.0000
  C   C651      1.0  0.54477  0.47769  0.29612  1.0000
  H   H1044     1.0  0.47726  0.34235  0.26686  1.0000
  C   C652      1.0  0.51960  0.45150  0.28974  1.0000
  C   C653      1.0  0.52577  0.44789  0.26329  1.0000
  C   C654      1.0  0.54127  0.45915  0.25330  1.0000
  H   H1045     1.0  0.51863  0.43644  0.25050  1.0000
  H   H1046     1.0  0.54588  0.45616  0.23283  1.0000
  C   C655      1.0  0.33530  0.25606  0.05559  1.0000
  H   H1047     1.0  0.43879  0.44934  0.25683  1.0000
  C   C656      1.0  0.44424  0.32546  0.25395  1.0000
  H   H1048     1.0  0.45075  0.44323  0.31798  1.0000
  N   N68       1.0  0.40432  0.37720  0.15914  1.0000
  C   C657      1.0  0.41131  0.37578  0.18941  1.0000
  C   C658      1.0  0.40751  0.39476  0.15431  1.0000
  C   C659      1.0  0.38608  0.36704  0.15707  1.0000
  C   C660      1.0  0.41232  0.37123  0.13579  1.0000
  H   H1049     1.0  0.42515  0.38284  0.19159  1.0000
  H   H1050     1.0  0.40862  0.36264  0.19428  1.0000
  H   H1051     1.0  0.40592  0.38066  0.20753  1.0000
  H   H1052     1.0  0.40157  0.39965  0.17145  1.0000
  H   H1053     1.0  0.42116  0.40279  0.15585  1.0000
  H   H1054     1.0  0.40242  0.39639  0.13174  1.0000
  H   H1055     1.0  0.38324  0.35368  0.16052  1.0000
  H   H1056     1.0  0.38038  0.36783  0.13453  1.0000
  H   H1057     1.0  0.37965  0.37118  0.17443  1.0000
  H   H1058     1.0  0.40813  0.37310  0.11264  1.0000
  H   H1059     1.0  0.40914  0.35771  0.13722  1.0000
  H   H1060     1.0  0.42623  0.37775  0.13800  1.0000
  H   H1061     1.0  0.47495  0.46094  0.23634  1.0000
  H   H1062     1.0  0.44677  0.29962  0.28184  1.0000
  S   S259      1.0  0.36689  0.48398  0.20706  1.0000
  H   H1063     1.0  0.46524  0.31163  0.30522  1.0000
  H   H1064     1.0  0.44406  0.46361  0.28856  1.0000
  C   C661      1.0  0.44299  0.32543  0.30825  1.0000
  H   H1065     1.0  0.46676  0.43693  0.30654  1.0000
  C   C662      1.0  0.33395  0.43593  0.31796  1.0000
  C   C663      1.0  0.52916  0.46654  0.30591  1.0000
  C   C664      1.0  0.32949  0.42998  0.06209  1.0000
  S   S260      1.0  0.41476  0.25220  0.06589  1.0000
  S   S261      1.0  0.49980  0.43813  0.30305  1.0000
  C   C665      1.0  0.33997  0.26168  0.08559  1.0000
  Fe  Fe130     1.0  0.40937  0.30136  0.00550  1.0000
  H   H1066     1.0  0.34054  0.42798  0.32171  1.0000
  N   N69       1.0  0.46307  0.45492  0.27846  1.0000
  C   C666      1.0  0.46893  0.34142  0.28559  1.0000
  C   C667      1.0  0.33772  0.43993  0.08812  1.0000
  H   H1067     1.0  0.43119  0.31399  0.30698  1.0000
  H   H1068     1.0  0.34640  0.43681  0.10210  1.0000
  H   H1069     1.0  0.46017  0.43984  0.23834  1.0000
  H   H1070     1.0  0.33390  0.46683  0.27322  1.0000
  H   H1071     1.0  0.43953  0.33628  0.30858  1.0000
  C   C668      1.0  0.47651  0.46891  0.29541  1.0000
  H   H1072     1.0  0.45200  0.32622  0.23435  1.0000
  C   C669      1.0  0.32845  0.25533  0.10808  1.0000
  C   C670      1.0  0.33017  0.45769  0.29043  1.0000
  C   C671      1.0  0.46991  0.45039  0.25161  1.0000
  H   H1073     1.0  0.33279  0.43279  0.21830  1.0000
  H   H1074     1.0  0.33205  0.25998  0.13118  1.0000
  Fe  Fe131     1.0  0.46045  0.37726  0.32016  1.0000
  H   H1075     1.0  0.36840  0.24747  0.04815  1.0000
  H   H1076     1.0  0.47188  0.47248  0.31613  1.0000
  Fe  Fe132     1.0  0.39502  0.49426  0.20354  1.0000
  C   C672      1.0  0.45659  0.44054  0.29803  1.0000
  H   H1077     1.0  0.44694  0.42950  0.28569  1.0000
  H   H1078     1.0  0.48712  0.46557  0.30263  1.0000
  H   H1079     1.0  0.55205  0.48902  0.30914  1.0000
  H   H1080     1.0  0.33012  0.43394  0.16203  1.0000
  S   S262      1.0  0.45935  0.40235  0.32227  1.0000
  H   H1081     1.0  0.46585  0.35242  0.28461  1.0000
  H   H1082     1.0  0.44054  0.36455  0.62400  1.0000
  S   S263      1.0  0.46217  0.36124  0.35963  1.0000
  S   S264      1.0  0.41094  0.31151  0.44899  1.0000
  H   H1083     1.0  0.41499  0.36062  0.50623  1.0000
  H   H1084     1.0  0.43511  0.35466  0.45836  1.0000
  C   C673      1.0  0.44767  0.34765  0.38443  1.0000
  C   C674      1.0  0.45378  0.34101  0.40848  1.0000
  C   C675      1.0  0.44283  0.32994  0.42838  1.0000
  C   C676      1.0  0.42552  0.32523  0.42442  1.0000
  C   C677      1.0  0.41941  0.33179  0.40026  1.0000
  C   C678      1.0  0.43037  0.34296  0.38050  1.0000
  H   H1085     1.0  0.46711  0.34442  0.41167  1.0000
  H   H1086     1.0  0.44780  0.32489  0.44650  1.0000
  H   H1087     1.0  0.40606  0.32826  0.39688  1.0000
  H   H1088     1.0  0.42539  0.34787  0.36217  1.0000
  C   C679      1.0  0.34075  0.26761  0.59110  1.0000
  H   H1089     1.0  0.44311  0.36370  0.55376  1.0000
  H   H1090     1.0  0.44969  0.32588  0.33044  1.0000
  Fe  Fe133     1.0  0.41278  0.30854  0.56356  1.0000
  S   S265      1.0  0.39453  0.30902  0.52643  1.0000
  S   S266      1.0  0.42478  0.33361  0.59009  1.0000
  Fe  Fe134     1.0  0.40873  0.27352  0.54186  1.0000
  S   S267      1.0  0.39123  0.27280  0.50271  1.0000
  Fe  Fe135     1.0  0.40852  0.29950  0.49542  1.0000
  Fe  Fe136     1.0  0.37877  0.28259  0.53646  1.0000
  S   S268      1.0  0.35030  0.26997  0.53181  1.0000
  S   S269      1.0  0.42737  0.29963  0.53226  1.0000
  S   S270      1.0  0.39568  0.28271  0.57603  1.0000
  C   C680      1.0  0.33583  0.26373  0.56053  1.0000
  H   H1091     1.0  0.45613  0.34612  0.50745  1.0000
  C   C681      1.0  0.35656  0.46677  0.38829  1.0000
  C   C682      1.0  0.43253  0.32581  0.64789  1.0000
  H   H1092     1.0  0.33255  0.26539  0.63659  1.0000
  H   H1093     1.0  0.36258  0.25158  0.57168  1.0000
  C   C683      1.0  0.33341  0.44924  0.59736  1.0000
  C   C684      1.0  0.41927  0.35042  0.50910  1.0000
  C   C685      1.0  0.43291  0.33818  0.62825  1.0000
  C   C686      1.0  0.33108  0.46225  0.41266  1.0000
  C   C687      1.0  0.34483  0.44370  0.42094  1.0000
  H   H1094     1.0  0.42721  0.31295  0.63994  1.0000
  H   H1095     1.0  0.35077  0.46763  0.46345  1.0000
  N   N70       1.0  0.34747  0.46112  0.41600  1.0000
  S   S271      1.0  0.41155  0.25017  0.55867  1.0000
  H   H1096     1.0  0.35884  0.47990  0.38392  1.0000
  H   H1097     1.0  0.43915  0.37477  0.47434  1.0000
  H   H1098     1.0  0.41544  0.34508  0.53149  1.0000
  C   C688      1.0  0.44630  0.36899  0.53109  1.0000
  H   H1099     1.0  0.36891  0.46589  0.38973  1.0000
  H   H1100     1.0  0.41229  0.34053  0.49151  1.0000
  C   C689      1.0  0.44249  0.34227  0.50995  1.0000
  C   C690      1.0  0.35732  0.47170  0.44217  1.0000
  H   H1101     1.0  0.34903  0.46752  0.53195  1.0000
  C   C691      1.0  0.32871  0.26215  0.61303  1.0000
  H   H1102     1.0  0.36979  0.47117  0.44538  1.0000
  S   S272      1.0  0.33758  0.45054  0.63734  1.0000
  H   H1103     1.0  0.33248  0.47511  0.40813  1.0000
  H   H1104     1.0  0.41159  0.38529  0.65377  1.0000
  H   H1105     1.0  0.34934  0.45916  0.36808  1.0000
  C   C692      1.0  0.34460  0.45995  0.57786  1.0000
  C   C693      1.0  0.34031  0.45897  0.54658  1.0000
  H   H1106     1.0  0.35375  0.27500  0.59781  1.0000
  C   C694      1.0  0.44212  0.36371  0.47707  1.0000
  C   C695      1.0  0.43999  0.35485  0.63907  1.0000
  H   H1107     1.0  0.43958  0.33674  0.53243  1.0000
  H   H1108     1.0  0.43570  0.33222  0.49269  1.0000
  H   H1109     1.0  0.45570  0.36759  0.47377  1.0000
  H   H1110     1.0  0.46013  0.37373  0.52999  1.0000
  N   N71       1.0  0.43756  0.35637  0.50677  1.0000
  H   H1111     1.0  0.35650  0.46916  0.58696  1.0000
  H   H1112     1.0  0.44276  0.37977  0.52968  1.0000
  H   H1113     1.0  0.33799  0.43906  0.44173  1.0000
  H   H1114     1.0  0.35942  0.48491  0.43940  1.0000
  H   H1115     1.0  0.35692  0.44234  0.42354  1.0000
  H   H1116     1.0  0.52460  0.46947  0.32646  1.0000
  C   C696      1.0  0.32489  0.44712  0.53419  1.0000
  H   H1117     1.0  0.33736  0.43533  0.40167  1.0000
  H   H1118     1.0  0.39336  0.35544  0.65833  1.0000
  H   H1119     1.0  0.32397  0.45834  0.43331  1.0000
  S   S273      1.0  0.57879  0.47907  0.76814  1.0000
  Fe  Fe137     1.0  0.48207  0.40714  0.78981  1.0000
  S   S274      1.0  0.46289  0.40399  0.82391  1.0000
  S   S275      1.0  0.50394  0.43250  0.80076  1.0000
  Fe  Fe138     1.0  0.45985  0.37307  0.75994  1.0000
  S   S276      1.0  0.43968  0.36792  0.79286  1.0000
  S   S277      1.0  0.45498  0.35135  0.72659  1.0000
  Fe  Fe139     1.0  0.44362  0.39435  0.78576  1.0000
  S   S278      1.0  0.42068  0.40011  0.78629  1.0000
  Fe  Fe140     1.0  0.46035  0.37782  0.82911  1.0000
  S   S279      1.0  0.46104  0.37142  0.87902  1.0000
  S   S280      1.0  0.46256  0.39915  0.75060  1.0000
  S   S281      1.0  0.48070  0.38128  0.79703  1.0000
  H   H1120     1.0  0.41469  0.37270  0.83091  1.0000
  Fe  Fe141     1.0  0.36907  0.46515  0.73707  1.0000
  S   S282      1.0  0.36632  0.44626  0.70021  1.0000
  S   S283      1.0  0.35652  0.45250  0.77970  1.0000
  Fe  Fe142     1.0  0.39364  0.46027  0.69472  1.0000
  S   S284      1.0  0.41132  0.44765  0.68788  1.0000
  H   H1121     1.0  0.44318  0.34268  0.97388  1.0000
  S   S285      1.0  0.39711  0.47815  0.73367  1.0000
  S   S286      1.0  0.36357  0.48205  0.70484  1.0000
  S   S287      1.0  0.41470  0.31082  0.95716  1.0000
  C   C697      1.0  0.34186  0.45408  0.80484  1.0000
  H   H1122     1.0  0.45247  0.37199  0.67688  1.0000
  H   H1123     1.0  0.42489  0.39697  0.68538  1.0000
  C   C698      1.0  0.44664  0.35911  0.66913  1.0000
  H   H1124     1.0  0.51832  0.40947  0.81446  1.0000
  C   C699      1.0  0.43925  0.33009  0.67789  1.0000
  C   C700      1.0  0.44626  0.34672  0.68878  1.0000
  H   H1125     1.0  0.38858  0.37164  0.87398  1.0000
  H   H1126     1.0  0.43906  0.32041  0.69275  1.0000
  H   H1127     1.0  0.42690  0.37001  0.91159  1.0000
  C   C701      1.0  0.44813  0.35429  0.90020  1.0000
  C   C702      1.0  0.45088  0.35501  0.93182  1.0000
  C   C703      1.0  0.44081  0.34195  0.94967  1.0000
  C   C704      1.0  0.42782  0.32790  0.93612  1.0000
  C   C705      1.0  0.42502  0.32726  0.90451  1.0000
  C   C706      1.0  0.43505  0.34032  0.88667  1.0000
  H   H1128     1.0  0.46092  0.36572  0.94267  1.0000
  H   H1129     1.0  0.50640  0.47868  0.75711  1.0000
  H   H1130     1.0  0.41508  0.31643  0.89371  1.0000
  H   H1131     1.0  0.43280  0.33939  0.86243  1.0000
  C   C707      1.0  0.41879  0.41419  0.76002  1.0000
  C   C708      1.0  0.42991  0.41989  0.73705  1.0000
  C   C709      1.0  0.42750  0.43017  0.71513  1.0000
  C   C710      1.0  0.41417  0.43513  0.71637  1.0000
  C   C711      1.0  0.40319  0.42965  0.73963  1.0000
  C   C712      1.0  0.40541  0.41908  0.76123  1.0000
  H   H1132     1.0  0.44033  0.41634  0.73598  1.0000
  H   H1133     1.0  0.43607  0.43445  0.69727  1.0000
  H   H1134     1.0  0.39289  0.43343  0.74079  1.0000
  H   H1135     1.0  0.39674  0.41474  0.77892  1.0000
  C   C713      1.0  0.55819  0.46602  0.77817  1.0000
  C   C714      1.0  0.54998  0.47092  0.80013  1.0000
  C   C715      1.0  0.53349  0.46039  0.80683  1.0000
  C   C716      1.0  0.52492  0.44486  0.79165  1.0000
  C   C717      1.0  0.53322  0.43980  0.77006  1.0000
  C   C718      1.0  0.54976  0.45030  0.76349  1.0000
  H   H1136     1.0  0.55637  0.48281  0.81203  1.0000
  H   H1137     1.0  0.52729  0.46439  0.82381  1.0000
  H   H1138     1.0  0.52688  0.42789  0.75821  1.0000
  H   H1139     1.0  0.55602  0.44631  0.74661  1.0000
  H   H1140     1.0  0.42672  0.36532  0.85587  1.0000
  H   H1141     1.0  0.44206  0.39310  0.87939  1.0000
  H   H1142     1.0  0.39988  0.38869  0.85081  1.0000
  H   H1143     1.0  0.43090  0.40461  0.89368  1.0000
  C   C719      1.0  0.53495  0.48182  0.73244  1.0000
  H   H1144     1.0  0.43076  0.40099  0.85372  1.0000
  C   C720      1.0  0.33623  0.44235  0.82740  1.0000
  C   C721      1.0  0.32428  0.44265  0.84742  1.0000
  H   H1145     1.0  0.40451  0.36040  0.90918  1.0000
  N   N72       1.0  0.40858  0.37187  0.69465  1.0000
  N   N73       1.0  0.52088  0.40744  0.86244  1.0000
  C   C722      1.0  0.50284  0.40250  0.86639  1.0000
  C   C723      1.0  0.52331  0.40312  0.83124  1.0000
  C   C724      1.0  0.52745  0.39855  0.88386  1.0000
  C   C725      1.0  0.52990  0.42556  0.86828  1.0000
  H   H1146     1.0  0.50043  0.40543  0.88970  1.0000
  H   H1147     1.0  0.49560  0.38891  0.86204  1.0000
  H   H1148     1.0  0.49747  0.40903  0.85069  1.0000
  H   H1149     1.0  0.53680  0.40689  0.82727  1.0000
  H   H1150     1.0  0.51674  0.38953  0.82607  1.0000
  C   C726      1.0  0.40115  0.35538  0.67883  1.0000
  H   H1151     1.0  0.54103  0.40193  0.88147  1.0000
  H   H1152     1.0  0.52080  0.38484  0.88009  1.0000
  H   H1153     1.0  0.52578  0.40150  0.90764  1.0000
  H   H1154     1.0  0.54352  0.42983  0.86486  1.0000
  H   H1155     1.0  0.52849  0.42925  0.89170  1.0000
  H   H1156     1.0  0.52501  0.43258  0.85278  1.0000
  N   N74       1.0  0.53025  0.49538  0.74229  1.0000
  H   H1157     1.0  0.40034  0.38904  0.71627  1.0000
  H   H1158     1.0  0.54881  0.48582  0.73386  1.0000
  H   H1159     1.0  0.38708  0.36760  0.72043  1.0000
  C   C727      1.0  0.43042  0.39529  0.87606  1.0000
  H   H1160     1.0  0.33536  0.42806  0.73186  1.0000
  H   H1161     1.0  0.33377  0.45524  0.73674  1.0000
  H   H1162     1.0  0.41527  0.38095  0.92608  1.0000
  H   H1163     1.0  0.32863  0.45463  0.69721  1.0000
  H   H1164     1.0  0.42918  0.36744  0.71494  1.0000
  H   H1165     1.0  0.33948  0.47527  0.78533  1.0000
  H   H1166     1.0  0.52956  0.47087  0.74673  1.0000
  C   C728      1.0  0.33524  0.46610  0.80241  1.0000
  H   H1167     1.0  0.40432  0.35566  0.85473  1.0000
  H   H1168     1.0  0.34120  0.43297  0.82948  1.0000
  H   H1169     1.0  0.42938  0.38128  0.66623  1.0000
  H   H1170     1.0  0.41147  0.36211  0.73764  1.0000
  C   C729      1.0  0.41901  0.37118  0.72130  1.0000
  Fe  Fe143     1.0  0.36193  0.46356  0.66753  1.0000
  H   H1171     1.0  0.53036  0.47750  0.70876  1.0000
  H   H1172     1.0  0.39986  0.39213  0.89077  1.0000
  N   N75       1.0  0.41532  0.37968  0.87764  1.0000
  C   C730      1.0  0.41523  0.36780  0.85371  1.0000
  C   C731      1.0  0.41546  0.37246  0.90743  1.0000
  C   C732      1.0  0.40022  0.38317  0.87315  1.0000
  H   H1173     1.0  0.42500  0.38347  0.73344  1.0000
  H   H1174     1.0  0.50598  0.48471  0.71876  1.0000
  C   C733      1.0  0.41907  0.38439  0.67408  1.0000
  Fe  Fe144     1.0  0.39162  0.49371  0.69845  1.0000
  H   H1175     1.0  0.39308  0.34567  0.69368  1.0000
  C   C734      1.0  0.51181  0.48922  0.74179  1.0000
  H   H1176     1.0  0.41099  0.35137  0.67149  1.0000
  H   H1177     1.0  0.33022  0.42720  0.69198  1.0000
  C   C735      1.0  0.39512  0.37658  0.70447  1.0000
  H   H1178     1.0  0.38693  0.37718  0.68498  1.0000
  H   H1179     1.0  0.53217  0.49130  0.78966  1.0000
  C   C736      1.0  0.32477  0.42422  0.71444  1.0000
  S   S288      1.0  0.38942  0.47632  0.65892  1.0000
  Fe  Fe145     1.0  0.59810  0.54803  0.28922  1.0000
  S   S289      1.0  0.59789  0.53464  0.24563  1.0000
  S   S290      1.0  0.58190  0.56177  0.29972  1.0000
  H   H1180     1.0  0.54473  0.49789  0.22241  1.0000
  S   S291      1.0  0.61885  0.51696  0.28402  1.0000
  Fe  Fe146     1.0  0.62497  0.54053  0.25852  1.0000
  H   H1181     1.0  0.62927  0.56962  0.01338  1.0000
  Fe  Fe147     1.0  0.59158  0.51211  0.27418  1.0000
  S   S292      1.0  0.62568  0.55603  0.30014  1.0000
  H   H1182     1.0  0.56878  0.74101  0.03713  1.0000
  Fe  Fe148     1.0  0.52639  0.63139  0.22909  1.0000
  S   S293      1.0  0.54600  0.63845  0.19476  1.0000
  S   S294      1.0  0.52908  0.65238  0.26273  1.0000
  Fe  Fe149     1.0  0.50689  0.59626  0.19980  1.0000
  S   S295      1.0  0.52580  0.60139  0.16430  1.0000
  S   S296      1.0  0.48771  0.56904  0.19414  1.0000
  Fe  Fe150     1.0  0.54516  0.61291  0.20212  1.0000
  S   S297      1.0  0.56938  0.60931  0.20506  1.0000
  Fe  Fe151     1.0  0.52495  0.62642  0.15971  1.0000
  S   S298      1.0  0.52017  0.63519  0.11292  1.0000
  S   S299      1.0  0.52669  0.60640  0.23822  1.0000
  S   S300      1.0  0.50499  0.62086  0.19347  1.0000
  H   H1183     1.0  0.59871  0.57630  0.24555  1.0000
  S   S301      1.0  0.57041  0.68815  0.02612  1.0000
  C   C737      1.0  0.54308  0.64668  0.31685  1.0000
  S   S302      1.0  0.41056  0.52230  0.21239  1.0000
  C   C738      1.0  0.46624  0.55639  0.19987  1.0000
  C   C739      1.0  0.45525  0.56283  0.21083  1.0000
  C   C740      1.0  0.43831  0.55223  0.21442  1.0000
  C   C741      1.0  0.43206  0.53507  0.20708  1.0000
  C   C742      1.0  0.44303  0.52869  0.19586  1.0000
  C   C743      1.0  0.45997  0.53928  0.19228  1.0000
  H   H1184     1.0  0.45979  0.57593  0.21677  1.0000
  H   H1185     1.0  0.42997  0.55734  0.22313  1.0000
  H   H1186     1.0  0.43847  0.51557  0.19000  1.0000
  H   H1187     1.0  0.46827  0.53412  0.18362  1.0000
  C   C744      1.0  0.53861  0.65766  0.29987  1.0000
  H   H1188     1.0  0.56159  0.63070  0.25507  1.0000
  C   C745      1.0  0.62473  0.54018  0.03664  1.0000
  H   H1189     1.0  0.60028  0.66297  0.22695  1.0000
  C   C746      1.0  0.56329  0.71614  0.07505  1.0000
  C   C747      1.0  0.53438  0.64993  0.08906  1.0000
  C   C748      1.0  0.55148  0.65840  0.09709  1.0000
  C   C749      1.0  0.56221  0.66986  0.07743  1.0000
  C   C750      1.0  0.55612  0.67311  0.04942  1.0000
  C   C751      1.0  0.53900  0.66470  0.04141  1.0000
  C   C752      1.0  0.52825  0.65323  0.06108  1.0000
  H   H1190     1.0  0.55647  0.65604  0.11839  1.0000
  H   H1191     1.0  0.57541  0.67622  0.08397  1.0000
  H   H1192     1.0  0.53405  0.66688  0.01993  1.0000
  H   H1193     1.0  0.51508  0.64677  0.05447  1.0000
  H   H1194     1.0  0.63200  0.55402  0.12383  1.0000
  C   C753      1.0  0.63870  0.55210  0.17059  1.0000
  H   H1195     1.0  0.62600  0.54782  0.17754  1.0000
  C   C754      1.0  0.57831  0.57454  0.27263  1.0000
  C   C755      1.0  0.56502  0.57938  0.27581  1.0000
  C   C756      1.0  0.56183  0.58961  0.25469  1.0000
  C   C757      1.0  0.57214  0.59535  0.23058  1.0000
  C   C758      1.0  0.58543  0.59047  0.22741  1.0000
  C   C759      1.0  0.58840  0.57994  0.24817  1.0000
  H   H1196     1.0  0.55713  0.57520  0.29465  1.0000
  H   H1197     1.0  0.55158  0.59328  0.25742  1.0000
  H   H1198     1.0  0.59349  0.59490  0.20885  1.0000
  H   H1199     1.0  0.53056  0.70437  0.08491  1.0000
  H   H1200     1.0  0.56838  0.72359  0.09643  1.0000
  C   C760      1.0  0.55134  0.52208  0.26464  1.0000
  H   H1201     1.0  0.57402  0.71814  0.06071  1.0000
  C   C761      1.0  0.52889  0.51847  0.22776  1.0000
  H   H1202     1.0  0.56552  0.65950  0.24824  1.0000
  H   H1203     1.0  0.57022  0.54367  0.22581  1.0000
  H   H1204     1.0  0.60875  0.66994  0.28127  1.0000
  H   H1205     1.0  0.56488  0.52503  0.26877  1.0000
  N   N76       1.0  0.55054  0.72066  0.05932  1.0000
  H   H1206     1.0  0.54442  0.50947  0.27325  1.0000
  H   H1207     1.0  0.52523  0.51898  0.20357  1.0000
  H   H1208     1.0  0.57813  0.62586  0.27106  1.0000
  H   H1209     1.0  0.52663  0.72087  0.06766  1.0000
  H   H1210     1.0  0.56499  0.51368  0.21754  1.0000
  C   C762      1.0  0.64216  0.55563  0.14010  1.0000
  H   H1211     1.0  0.57286  0.66533  0.28668  1.0000
  C   C763      1.0  0.57262  0.63525  0.27150  1.0000
  C   C764      1.0  0.59089  0.65076  0.23357  1.0000
  H   H1212     1.0  0.52519  0.52724  0.24077  1.0000
  C   C765      1.0  0.59924  0.65746  0.28635  1.0000
  H   H1213     1.0  0.53814  0.69694  0.03580  1.0000
  H   H1214     1.0  0.60554  0.64871  0.28687  1.0000
  H   H1215     1.0  0.59669  0.64161  0.23258  1.0000
  H   H1216     1.0  0.62077  0.52649  0.03556  1.0000
  N   N77       1.0  0.63513  0.54815  0.01136  1.0000
  H   H1217     1.0  0.59513  0.65834  0.30945  1.0000
  N   N78       1.0  0.47339  0.58556  0.11417  1.0000
  C   C766      1.0  0.46947  0.59255  0.08631  1.0000
  C   C767      1.0  0.46065  0.56852  0.11741  1.0000
  C   C768      1.0  0.47349  0.59611  0.14042  1.0000
  C   C769      1.0  0.49007  0.58517  0.11261  1.0000
  H   H1218     1.0  0.47902  0.60539  0.08334  1.0000
  H   H1219     1.0  0.45703  0.59320  0.08682  1.0000
  H   H1220     1.0  0.46925  0.58490  0.06599  1.0000
  H   H1221     1.0  0.46014  0.56019  0.09796  1.0000
  H   H1222     1.0  0.46344  0.56293  0.13816  1.0000
  H   H1223     1.0  0.44793  0.56834  0.11922  1.0000
  H   H1224     1.0  0.48292  0.60909  0.13857  1.0000
  H   H1225     1.0  0.47656  0.59128  0.16184  1.0000
  H   H1226     1.0  0.49330  0.57967  0.13304  1.0000
  H   H1227     1.0  0.50007  0.59790  0.11094  1.0000
  H   H1228     1.0  0.49061  0.57759  0.09275  1.0000
  N   N79       1.0  0.54704  0.52278  0.23226  1.0000
  N   N80       1.0  0.58491  0.65181  0.26381  1.0000
  H   H1229     1.0  0.54860  0.53121  0.27855  1.0000
  H   H1230     1.0  0.54897  0.74219  0.03958  1.0000
  H   H1231     1.0  0.54037  0.63438  0.30755  1.0000
  H   H1232     1.0  0.54821  0.51083  0.19025  1.0000
  H   H1233     1.0  0.64827  0.57276  0.99550  1.0000
  H   H1234     1.0  0.63174  0.54487  0.05883  1.0000
  H   H1235     1.0  0.58556  0.67621  0.25692  1.0000
  H   H1236     1.0  0.53833  0.68201  0.29982  1.0000
  H   H1237     1.0  0.55320  0.54905  0.23422  1.0000
  H   H1238     1.0  0.54082  0.72524  0.10044  1.0000
  C   C770      1.0  0.53651  0.71767  0.07897  1.0000
  H   H1239     1.0  0.55456  0.71197  0.01636  1.0000
  H   H1240     1.0  0.61327  0.54274  0.03667  1.0000
  H   H1241     1.0  0.46107  0.59659  0.14257  1.0000
  H   H1242     1.0  0.52142  0.50570  0.23520  1.0000
  H   H1243     1.0  0.64686  0.53088  0.00982  1.0000
  H   H1244     1.0  0.64762  0.57159  0.03575  1.0000
  H   H1245     1.0  0.55388  0.54070  0.19743  1.0000
  H   H1246     1.0  0.53497  0.71380  0.01807  1.0000
  H   H1247     1.0  0.55802  0.70277  0.08061  1.0000
  C   C771      1.0  0.54181  0.67344  0.31267  1.0000
  H   H1248     1.0  0.56797  0.63548  0.29429  1.0000
  C   C772      1.0  0.57691  0.66374  0.26389  1.0000
  C   C773      1.0  0.54420  0.71039  0.03118  1.0000
  C   C774      1.0  0.64028  0.56632  0.01407  1.0000
  H   H1249     1.0  0.58041  0.64654  0.21598  1.0000
  C   C775      1.0  0.55815  0.73839  0.05196  1.0000
  C   C776      1.0  0.55138  0.51080  0.21478  1.0000
  S   S303      1.0  0.64829  0.55013  0.23088  1.0000
  S   S304      1.0  0.59069  0.52536  0.31689  1.0000
  C   C777      1.0  0.55647  0.53976  0.22193  1.0000
  C   C778      1.0  0.65172  0.55419  0.19201  1.0000
  C   C779      1.0  0.65018  0.54444  0.01239  1.0000
  Fe  Fe152     1.0  0.61838  0.53234  0.32488  1.0000
  S   S305      1.0  0.62806  0.52996  0.37282  1.0000
  Fe  Fe153     1.0  0.57063  0.69702  0.42380  1.0000
  S   S306      1.0  0.58968  0.69997  0.46196  1.0000
  S   S307      1.0  0.56332  0.67264  0.39620  1.0000
  Fe  Fe154     1.0  0.56702  0.72865  0.44491  1.0000
  Fe  Fe155     1.0  0.60093  0.72708  0.45263  1.0000
  H   H1250     1.0  0.62424  0.57216  0.42775  1.0000
  Fe  Fe156     1.0  0.57232  0.70532  0.49197  1.0000
  S   S308      1.0  0.58355  0.72388  0.41187  1.0000
  S   S309      1.0  0.55270  0.70136  0.45421  1.0000
  H   H1251     1.0  0.55401  0.64288  0.35915  1.0000
  H   H1252     1.0  0.60590  0.70796  0.57742  1.0000
  H   H1253     1.0  0.63066  0.72279  0.41473  1.0000
  C   C780      1.0  0.65034  0.56421  0.65615  1.0000
  H   H1254     1.0  0.61994  0.55748  0.36410  1.0000
  C   C781      1.0  0.55072  0.65151  0.34617  1.0000
  H   H1255     1.0  0.61331  0.56185  0.65255  1.0000
  H   H1256     1.0  0.59502  0.53556  0.38266  1.0000
  H   H1257     1.0  0.62773  0.70539  0.52678  1.0000
  H   H1258     1.0  0.60649  0.58638  0.40583  1.0000
  S   S310      1.0  0.52054  0.64191  0.62334  1.0000
  S   S311      1.0  0.58489  0.73289  0.48500  1.0000
  S   S312      1.0  0.57267  0.69430  0.53859  1.0000
  H   H1259     1.0  0.62204  0.72528  0.59762  1.0000
  C   C782      1.0  0.53534  0.65636  0.60001  1.0000
  C   C783      1.0  0.52940  0.66236  0.57481  1.0000
  C   C784      1.0  0.54053  0.67389  0.55575  1.0000
  C   C785      1.0  0.55786  0.67954  0.56150  1.0000
  C   C786      1.0  0.56381  0.67353  0.58664  1.0000
  C   C787      1.0  0.55267  0.66201  0.60572  1.0000
  H   H1260     1.0  0.51603  0.65825  0.57035  1.0000
  H   H1261     1.0  0.53567  0.67870  0.53715  1.0000
  H   H1262     1.0  0.57715  0.67782  0.59154  1.0000
  H   H1263     1.0  0.55748  0.65758  0.62496  1.0000
  H   H1264     1.0  0.54362  0.64220  0.42954  1.0000
  H   H1265     1.0  0.55585  0.65611  0.49486  1.0000
  H   H1266     1.0  0.51001  0.63225  0.48366  1.0000
  H   H1267     1.0  0.62670  0.70870  0.58233  1.0000
  H   H1268     1.0  0.58925  0.57508  0.37933  1.0000
  H   H1269     1.0  0.55804  0.66757  0.46107  1.0000
  H   H1270     1.0  0.58265  0.54557  0.36565  1.0000
  H   H1271     1.0  0.58113  0.54079  0.40497  1.0000
  C   C788      1.0  0.54949  0.66182  0.47935  1.0000
  H   H1272     1.0  0.54812  0.67201  0.49244  1.0000
  H   H1273     1.0  0.51255  0.64899  0.43769  1.0000
  H   H1274     1.0  0.64981  0.72933  0.55462  1.0000
  C   C789      1.0  0.52489  0.65791  0.44766  1.0000
  C   C790      1.0  0.64400  0.54486  0.39732  1.0000
  H   H1275     1.0  0.60676  0.70412  0.52275  1.0000
  H   H1276     1.0  0.65025  0.56528  0.36757  1.0000
  C   C791      1.0  0.53564  0.63665  0.44874  1.0000
  C   C792      1.0  0.55392  0.66733  0.35894  1.0000
  H   H1277     1.0  0.61218  0.58044  0.63855  1.0000
  H   H1278     1.0  0.58782  0.57030  0.41860  1.0000
  N   N81       1.0  0.62384  0.72519  0.54948  1.0000
  H   H1279     1.0  0.60015  0.72704  0.54343  1.0000
  N   N82       1.0  0.60361  0.56155  0.39454  1.0000
  H   H1280     1.0  0.64539  0.74304  0.52951  1.0000
  N   N83       1.0  0.53310  0.64953  0.46697  1.0000
  C   C793      1.0  0.64744  0.54011  0.42611  1.0000
  H   H1281     1.0  0.52274  0.66772  0.46063  1.0000
  H   H1282     1.0  0.52838  0.63568  0.50754  1.0000
  C   C794      1.0  0.64232  0.73372  0.41668  1.0000
  H   H1283     1.0  0.62566  0.57884  0.37473  1.0000
  C   C795      1.0  0.58996  0.54516  0.38664  1.0000
  H   H1284     1.0  0.61802  0.55051  0.41901  1.0000
  C   C796      1.0  0.59647  0.57389  0.39988  1.0000
  H   H1285     1.0  0.52354  0.62716  0.43896  1.0000
  H   H1286     1.0  0.58176  0.56393  0.62473  1.0000
  C   C797      1.0  0.52241  0.64179  0.49207  1.0000
  H   H1287     1.0  0.55175  0.69046  0.35143  1.0000
  H   H1288     1.0  0.58326  0.54570  0.63968  1.0000
  H   H1289     1.0  0.54194  0.63016  0.46250  1.0000
  H   H1290     1.0  0.52008  0.65119  0.50597  1.0000
  H   H1291     1.0  0.60531  0.55703  0.44182  1.0000
  H   H1292     1.0  0.53269  0.66400  0.42859  1.0000
  C   C798      1.0  0.61381  0.73509  0.54466  1.0000
  C   C799      1.0  0.61948  0.71642  0.57800  1.0000
  C   C800      1.0  0.61319  0.56031  0.42202  1.0000
  C   C801      1.0  0.61483  0.56680  0.36936  1.0000
  H   H1293     1.0  0.60811  0.56821  0.34838  1.0000
  C   C802      1.0  0.58107  0.55696  0.64565  1.0000
  H   H1294     1.0  0.64094  0.52734  0.43230  1.0000
  C   C803      1.0  0.64183  0.73635  0.55092  1.0000
  C   C804      1.0  0.54944  0.67828  0.34197  1.0000
  H   H1295     1.0  0.62295  0.71907  0.50217  1.0000
  C   C805      1.0  0.62018  0.71291  0.52418  1.0000
  H   H1296     1.0  0.61672  0.74182  0.52324  1.0000
  C   C806      1.0  0.65581  0.73457  0.39967  1.0000
  H   H1297     1.0  0.61622  0.74448  0.56332  1.0000
  C   C807      1.0  0.65250  0.56142  0.38973  1.0000
  H   H1298     1.0  0.65442  0.72425  0.38464  1.0000
  H   H1299     1.0  0.56806  0.55271  0.65314  1.0000
  H   H1300     1.0  0.64505  0.57334  0.65439  1.0000
  H   H1301     1.0  0.59100  0.58983  0.65695  1.0000
  C   C808      1.0  0.61048  0.57272  0.65870  1.0000
  H   H1302     1.0  0.64505  0.74589  0.56962  1.0000
  S   S313      1.0  0.62793  0.74586  0.45997  1.0000
  Fe  Fe157     1.0  0.58586  0.53820  0.77438  1.0000
  S   S314      1.0  0.58988  0.52247  0.73829  1.0000
  S   S315      1.0  0.56275  0.54342  0.76607  1.0000
  Fe  Fe158     1.0  0.61539  0.53834  0.81497  1.0000
  S   S316      1.0  0.62146  0.52242  0.78086  1.0000
  S   S317      1.0  0.62779  0.55146  0.86058  1.0000
  Fe  Fe159     1.0  0.61737  0.53884  0.74527  1.0000
  S   S318      1.0  0.63068  0.55353  0.70469  1.0000
  H   H1303     1.0  0.49693  0.59700  0.78697  1.0000
  S   S319      1.0  0.61286  0.55550  0.77964  1.0000
  S   S320      1.0  0.58756  0.52215  0.81200  1.0000
  Fe  Fe160     1.0  0.51896  0.62743  0.73563  1.0000
  S   S321      1.0  0.54096  0.63894  0.70678  1.0000
  S   S322      1.0  0.51425  0.63504  0.78262  1.0000
  Fe  Fe161     1.0  0.50346  0.59476  0.69617  1.0000
  Fe  Fe162     1.0  0.52243  0.62850  0.66669  1.0000
  C   C809      1.0  0.53690  0.50928  0.72169  1.0000
  Fe  Fe163     1.0  0.54179  0.61371  0.70628  1.0000
  S   S323      1.0  0.56657  0.61197  0.71736  1.0000
  H   H1304     1.0  0.64315  0.57270  0.91270  1.0000
  S   S324      1.0  0.52112  0.60298  0.73736  1.0000
  S   S325      1.0  0.49997  0.61873  0.69589  1.0000
  Fe  Fe164     1.0  0.56998  0.70655  0.91367  1.0000
  S   S326      1.0  0.58883  0.70151  0.94399  1.0000
  S   S327      1.0  0.56496  0.69728  0.86406  1.0000
  Fe  Fe165     1.0  0.56883  0.73352  0.95760  1.0000
  Fe  Fe166     1.0  0.60187  0.72933  0.94993  1.0000
  H   H1305     1.0  0.57936  0.55310  0.70544  1.0000
  H   H1306     1.0  0.58431  0.62550  0.77868  1.0000
  S   S328      1.0  0.58414  0.73453  0.91797  1.0000
  S   S329      1.0  0.55297  0.70587  0.95127  1.0000
  C   C810      1.0  0.62541  0.54167  0.98240  1.0000
  S   S330      1.0  0.40583  0.52212  0.69646  1.0000
  C   C811      1.0  0.46281  0.55503  0.69579  1.0000
  C   C812      1.0  0.45094  0.56179  0.69090  1.0000
  C   C813      1.0  0.43363  0.55155  0.69114  1.0000
  C   C814      1.0  0.42787  0.53438  0.69583  1.0000
  H   H1307     1.0  0.46602  0.53244  0.70429  1.0000
  C   C815      1.0  0.65265  0.54181  0.88422  1.0000
  H   H1308     1.0  0.53468  0.51196  0.78097  1.0000
  Fe  Fe167     1.0  0.57255  0.70218  0.98186  1.0000
  H   H1309     1.0  0.59483  0.54651  0.69180  1.0000
  C   C816      1.0  0.52833  0.65246  0.80506  1.0000
  C   C817      1.0  0.54085  0.66591  0.79232  1.0000
  C   C818      1.0  0.55183  0.67947  0.81079  1.0000
  C   C819      1.0  0.55044  0.67985  0.84222  1.0000
  C   C820      1.0  0.53788  0.66641  0.85500  1.0000
  C   C821      1.0  0.52686  0.65283  0.83648  1.0000
  H   H1310     1.0  0.54189  0.66602  0.76815  1.0000
  H   H1311     1.0  0.56139  0.68986  0.80061  1.0000
  H   H1312     1.0  0.53662  0.66652  0.87911  1.0000
  H   H1313     1.0  0.51714  0.64257  0.84661  1.0000
  H   H1314     1.0  0.53366  0.51978  0.72858  1.0000
  H   H1315     1.0  0.53183  0.50536  0.69809  1.0000
  H   H1316     1.0  0.59901  0.59007  0.69499  1.0000
  C   C822      1.0  0.64444  0.55248  0.88653  1.0000
  C   C823      1.0  0.53737  0.50125  0.77327  1.0000
  H   H1317     1.0  0.43559  0.51447  0.70407  1.0000
  H   H1318     1.0  0.62013  0.58011  0.67657  1.0000
  H   H1319     1.0  0.58352  0.62463  0.81894  1.0000
  C   C824      1.0  0.56407  0.56287  0.75425  1.0000
  C   C825      1.0  0.54947  0.56422  0.74285  1.0000
  C   C826      1.0  0.55009  0.57931  0.73195  1.0000
  C   C827      1.0  0.56532  0.59321  0.73261  1.0000
  C   C828      1.0  0.57990  0.59199  0.74462  1.0000
  C   C829      1.0  0.57931  0.57682  0.75526  1.0000
  H   H1320     1.0  0.53763  0.55350  0.74209  1.0000
  H   H1321     1.0  0.53879  0.58009  0.72257  1.0000
  H   H1322     1.0  0.59172  0.60273  0.74530  1.0000
  H   H1323     1.0  0.59060  0.57592  0.76433  1.0000
  H   H1324     1.0  0.45504  0.57487  0.68680  1.0000
  H   H1325     1.0  0.64921  0.53213  0.69877  1.0000
  H   H1326     1.0  0.60122  0.56497  0.71516  1.0000
  C   C830      1.0  0.64930  0.56428  0.91080  1.0000
  H   H1327     1.0  0.46637  0.58956  0.82379  1.0000
  Fe  Fe168     1.0  0.59317  0.50728  0.77610  1.0000
  N   N84       1.0  0.57119  0.63888  0.79825  1.0000
  H   H1328     1.0  0.45566  0.59811  0.79820  1.0000
  H   H1329     1.0  0.59725  0.64332  0.80211  1.0000
  C   C831      1.0  0.58469  0.63283  0.79961  1.0000
  H   H1330     1.0  0.55273  0.61640  0.81464  1.0000
  H   H1331     1.0  0.56183  0.65299  0.82618  1.0000
  H   H1332     1.0  0.63298  0.54732  0.96287  1.0000
  H   H1333     1.0  0.55081  0.51426  0.72185  1.0000
  C   C832      1.0  0.46741  0.59623  0.80242  1.0000
  C   C833      1.0  0.43974  0.52762  0.70042  1.0000
  H   H1334     1.0  0.56294  0.65394  0.76984  1.0000
  C   C834      1.0  0.65538  0.74118  0.88658  1.0000
  C   C835      1.0  0.57313  0.64948  0.77200  1.0000
  C   C836      1.0  0.48605  0.58478  0.78340  1.0000
  H   H1335     1.0  0.45437  0.56321  0.79335  1.0000
  C   C837      1.0  0.59208  0.55755  0.69664  1.0000
  H   H1336     1.0  0.48875  0.57801  0.76432  1.0000
  H   H1337     1.0  0.48541  0.57756  0.80394  1.0000
  H   H1338     1.0  0.46001  0.59787  0.74302  1.0000
  C   C838      1.0  0.55478  0.62454  0.79504  1.0000
  C   C839      1.0  0.47179  0.59641  0.74929  1.0000
  C   C840      1.0  0.57211  0.64862  0.82623  1.0000
  H   H1339     1.0  0.45851  0.56292  0.75436  1.0000
  H   H1340     1.0  0.55379  0.61678  0.77442  1.0000
  N   N85       1.0  0.47035  0.58695  0.77694  1.0000
  H   H1341     1.0  0.54431  0.62865  0.79324  1.0000
  H   H1342     1.0  0.44428  0.57153  0.76604  1.0000
  H   H1343     1.0  0.57271  0.64258  0.75054  1.0000
  H   H1344     1.0  0.63091  0.72770  0.90362  1.0000
  H   H1345     1.0  0.47788  0.60876  0.80607  1.0000
  H   H1346     1.0  0.57102  0.64113  0.84657  1.0000
  H   H1347     1.0  0.48204  0.60907  0.75221  1.0000
  H   H1348     1.0  0.58522  0.66060  0.77387  1.0000
  H   H1349     1.0  0.47460  0.59008  0.72980  1.0000
  C   C841      1.0  0.45625  0.57047  0.77256  1.0000
  H   H1350     1.0  0.58411  0.65985  0.82903  1.0000
  S   S331      1.0  0.48491  0.56736  0.69786  1.0000
  C   C842      1.0  0.45704  0.53788  0.70049  1.0000
  H   H1351     1.0  0.50784  0.49915  0.74922  1.0000
  N   N86       1.0  0.59341  0.56734  0.66945  1.0000
  S   S332      1.0  0.52469  0.60381  0.66464  1.0000
  C   C843      1.0  0.64556  0.55269  0.67924  1.0000
  C   C844      1.0  0.59002  0.58206  0.67686  1.0000
  H   H1352     1.0  0.42460  0.55694  0.68738  1.0000
  H   H1353     1.0  0.57718  0.57839  0.68490  1.0000
  H   H1354     1.0  0.64909  0.53267  0.86576  1.0000
  C   C845      1.0  0.64241  0.73881  0.90606  1.0000
  H   H1355     1.0  0.55125  0.50549  0.77473  1.0000
  H   H1356     1.0  0.61405  0.54440  0.98062  1.0000
  C   C846      1.0  0.65270  0.54108  0.68121  1.0000
  H   H1357     1.0  0.65377  0.73182  0.86920  1.0000
  H   H1358     1.0  0.62130  0.52799  0.97961  1.0000
  S   S333      1.0  0.58726  0.72964  0.98983  1.0000
  H   H1359     1.0  0.57515  0.89249  0.23128  1.0000
  S   S334      1.0  0.57489  0.88381  0.04799  1.0000
  Fe  Fe169     1.0  0.53921  0.92260  0.23528  1.0000
  S   S335      1.0  0.55035  0.93369  0.19181  1.0000
  S   S336      1.0  0.55648  0.91983  0.27294  1.0000
  Fe  Fe170     1.0  0.50474  0.92263  0.21717  1.0000
  S   S337      1.0  0.51329  0.93348  0.17236  1.0000
  S   S338      1.0  0.48064  0.91825  0.24114  1.0000
  Fe  Fe171     1.0  0.52605  0.91573  0.16926  1.0000
  S   S339      1.0  0.52301  0.89970  0.12621  1.0000
  Fe  Fe172     1.0  0.53708  0.95066  0.19801  1.0000
  S   S340      1.0  0.54758  0.97814  0.18791  1.0000
  S   S341      1.0  0.51567  0.90343  0.21259  1.0000
  S   S342      1.0  0.52784  0.94099  0.24286  1.0000
  Fe  Fe173     1.0  0.38604  0.91658  0.20224  1.0000
  S   S343      1.0  0.38154  0.93573  0.17448  1.0000
  S   S344      1.0  0.40926  0.91306  0.18712  1.0000
  Fe  Fe174     1.0  0.35125  0.90554  0.22874  1.0000
  S   S345      1.0  0.34505  0.92368  0.20108  1.0000
  H   H1360     1.0  0.33961  0.91388  0.04843  1.0000
  Fe  Fe175     1.0  0.35591  0.91585  0.16212  1.0000
  S   S346      1.0  0.34779  0.91475  0.11179  1.0000
  Fe  Fe176     1.0  0.37104  0.94190  0.21566  1.0000
  S   S347      1.0  0.37162  0.96704  0.23045  1.0000
  S   S348      1.0  0.36055  0.89640  0.18840  1.0000
  S   S349      1.0  0.37707  0.92414  0.24496  1.0000
  H   H1361     1.0  0.56303  0.74659  0.07258  1.0000
  H   H1362     1.0  0.56564  0.86415  0.20739  1.0000
  N   N87       1.0  0.50656  0.90949  0.31867  1.0000
  C   C847      1.0  0.33092  0.90234  0.05699  1.0000
  C   C848      1.0  0.32445  0.88738  0.29369  1.0000
  H   H1363     1.0  0.35018  0.89652  0.31047  1.0000
  C   C849      1.0  0.51162  0.92750  0.31513  1.0000
  H   H1364     1.0  0.37660  0.88696  0.06022  1.0000
  H   H1365     1.0  0.50365  0.92992  0.29711  1.0000
  H   H1366     1.0  0.41332  0.90771  0.08218  1.0000
  C   C850      1.0  0.39001  0.98446  0.24254  1.0000
  H   H1367     1.0  0.55384  0.88870  0.23764  1.0000
  C   C851      1.0  0.40537  0.98327  0.24760  1.0000
  H   H1368     1.0  0.53229  0.87967  0.19481  1.0000
  H   H1369     1.0  0.40625  0.97150  0.24371  1.0000
  C   C852      1.0  0.46121  0.91775  0.22563  1.0000
  C   C853      1.0  0.45731  0.91652  0.19454  1.0000
  C   C854      1.0  0.44145  0.91527  0.18333  1.0000
  C   C855      1.0  0.42933  0.91551  0.20292  1.0000
  C   C856      1.0  0.43333  0.91706  0.23402  1.0000
  C   C857      1.0  0.44911  0.91803  0.24526  1.0000
  H   H1370     1.0  0.46641  0.91623  0.17912  1.0000
  H   H1371     1.0  0.43856  0.91406  0.15925  1.0000
  H   H1372     1.0  0.42416  0.91717  0.24943  1.0000
  H   H1373     1.0  0.45192  0.91893  0.26935  1.0000
  H   H1374     1.0  0.58302  0.88848  0.17914  1.0000
  H   H1375     1.0  0.56430  0.97818  0.24659  1.0000
  Fe  Fe177     1.0  0.57637  0.87630  0.99864  1.0000
  C   C858      1.0  0.56043  0.88966  0.06701  1.0000
  C   C859      1.0  0.56627  0.90062  0.09251  1.0000
  C   C860      1.0  0.55511  0.90444  0.11002  1.0000
  C   C861      1.0  0.53786  0.89690  0.10290  1.0000
  C   C862      1.0  0.53204  0.88611  0.07721  1.0000
  C   C863      1.0  0.54323  0.88262  0.05922  1.0000
  H   H1376     1.0  0.57954  0.90621  0.09868  1.0000
  H   H1377     1.0  0.55984  0.91311  0.12914  1.0000
  H   H1378     1.0  0.51873  0.88023  0.07136  1.0000
  H   H1379     1.0  0.53847  0.87406  0.03991  1.0000
  C   C864      1.0  0.35126  0.93551  0.29360  1.0000
  C   C865      1.0  0.55399  0.90434  0.29964  1.0000
  H   H1380     1.0  0.57463  0.90293  0.16634  1.0000
  C   C866      1.0  0.54060  0.88871  0.29732  1.0000
  H   H1381     1.0  0.53146  0.88561  0.27848  1.0000
  H   H1382     1.0  0.53830  0.87756  0.15739  1.0000
  H   H1383     1.0  0.54500  0.89769  0.17536  1.0000
  C   C867      1.0  0.56094  0.99419  0.21328  1.0000
  C   C868      1.0  0.50780  0.90173  0.28972  1.0000
  H   H1384     1.0  0.34872  0.96102  0.32345  1.0000
  N   N88       1.0  0.55804  0.88322  0.19217  1.0000
  C   C869      1.0  0.54275  0.88455  0.17945  1.0000
  C   C870      1.0  0.57137  0.88959  0.17060  1.0000
  C   C871      1.0  0.55437  0.86563  0.19774  1.0000
  H   H1385     1.0  0.36015  0.94315  0.27715  1.0000
  H   H1386     1.0  0.55007  0.85785  0.17648  1.0000
  H   H1387     1.0  0.56637  0.90647  0.21755  1.0000
  H   H1388     1.0  0.56731  0.78477  0.00817  1.0000
  H   H1389     1.0  0.54435  0.86046  0.21395  1.0000
  H   H1390     1.0  0.56739  0.88268  0.14837  1.0000
  H   H1391     1.0  0.36618  0.89450  0.12145  1.0000
  H   H1392     1.0  0.48039  0.90382  0.31025  1.0000
  S   S350      1.0  0.32853  0.88951  0.25473  1.0000
  C   C872      1.0  0.56361  0.89313  0.22087  1.0000
  N   N89       1.0  0.33635  0.93940  0.29415  1.0000
  H   H1393     1.0  0.38377  0.89398  0.14319  1.0000
  H   H1394     1.0  0.40112  0.88645  0.09081  1.0000
  C   C873      1.0  0.40429  0.89959  0.09796  1.0000
  H   H1395     1.0  0.38294  0.92372  0.10948  1.0000
  H   H1396     1.0  0.41093  0.90177  0.12075  1.0000
  H   H1397     1.0  0.38877  0.90820  0.05150  1.0000
  C   C874      1.0  0.38054  0.90009  0.06831  1.0000
  H   H1398     1.0  0.36905  0.90265  0.06843  1.0000
  N   N90       1.0  0.38915  0.90310  0.09865  1.0000
  C   C875      1.0  0.39404  0.92063  0.10841  1.0000
  H   H1399     1.0  0.40267  0.92928  0.09273  1.0000
  H   H1400     1.0  0.40056  0.92336  0.13123  1.0000
  H   H1401     1.0  0.37367  0.87878  0.11335  1.0000
  C   C876      1.0  0.37768  0.89210  0.12007  1.0000
  C   C877      1.0  0.34170  0.95734  0.30112  1.0000
  H   H1402     1.0  0.49910  0.90300  0.27185  1.0000
  H   H1403     1.0  0.50463  0.88824  0.29169  1.0000
  C   C878      1.0  0.33207  0.89931  0.08787  1.0000
  C   C879      1.0  0.33727  0.89180  0.31641  1.0000
  C   C880      1.0  0.56751  0.99090  0.24050  1.0000
  C   C881      1.0  0.56601  0.90788  0.32382  1.0000
  H   H1404     1.0  0.52066  0.90767  0.28166  1.0000
  C   C882      1.0  0.53920  0.87689  0.31925  1.0000
  H   H1405     1.0  0.52485  0.93362  0.30876  1.0000
  H   H1406     1.0  0.52883  0.86481  0.31731  1.0000
  H   H1407     1.0  0.33078  0.96075  0.30152  1.0000
  H   H1408     1.0  0.35814  0.93787  0.31606  1.0000
  H   H1409     1.0  0.35009  0.96496  0.28388  1.0000
  H   H1410     1.0  0.34777  0.92228  0.28683  1.0000
  C   C883      1.0  0.32717  0.93509  0.26430  1.0000
  H   H1411     1.0  0.33508  0.94249  0.24635  1.0000
  C   C884      1.0  0.32531  0.92968  0.31742  1.0000
  C   C885      1.0  0.64119  0.91791  0.50812  1.0000
  Fe  Fe178     1.0  0.57649  0.84518  0.45334  1.0000
  S   S351      1.0  0.57628  0.82216  0.47718  1.0000
  Fe  Fe179     1.0  0.56708  0.86733  0.41062  1.0000
  S   S352      1.0  0.58426  0.89130  0.43478  1.0000
  S   S353      1.0  0.54886  0.86515  0.37051  1.0000
  Fe  Fe180     1.0  0.60292  0.87965  0.43594  1.0000
  S   S354      1.0  0.63110  0.89450  0.44144  1.0000
  Fe  Fe181     1.0  0.57487  0.87808  0.47761  1.0000
  S   S355      1.0  0.58646  0.85629  0.40919  1.0000
  S   S356      1.0  0.55616  0.85480  0.45355  1.0000
  H   H1412     1.0  0.55340  0.83599  0.50765  1.0000
  H   H1413     1.0  0.39201  0.87645  0.58839  1.0000
  C   C886      1.0  0.36254  0.87961  0.58461  1.0000
  C   C887      1.0  0.34263  0.95241  0.65485  1.0000
  H   H1414     1.0  0.60968  0.75893  0.41837  1.0000
  C   C888      1.0  0.33101  0.89883  0.60785  1.0000
  C   C889      1.0  0.61529  0.91752  0.48617  1.0000
  H   H1415     1.0  0.33192  0.93225  0.34018  1.0000
  N   N91       1.0  0.37473  0.88384  0.61091  1.0000
  H   H1416     1.0  0.35356  0.86634  0.58419  1.0000
  C   C890      1.0  0.56255  0.76818  0.44277  1.0000
  C   C891      1.0  0.57131  0.77412  0.47062  1.0000
  C   C892      1.0  0.57554  0.79070  0.48057  1.0000
  C   C893      1.0  0.57129  0.80164  0.46268  1.0000
  C   C894      1.0  0.56286  0.79580  0.43454  1.0000
  C   C895      1.0  0.55840  0.77914  0.42481  1.0000
  H   H1417     1.0  0.55940  0.80400  0.42058  1.0000
  H   H1418     1.0  0.55154  0.77467  0.40330  1.0000
  H   H1419     1.0  0.35672  0.86690  0.63923  1.0000
  H   H1420     1.0  0.38443  0.96811  0.64478  1.0000
  H   H1421     1.0  0.65086  0.92232  0.52712  1.0000
  H   H1422     1.0  0.58156  0.86316  0.54633  1.0000
  H   H1423     1.0  0.62497  0.94678  0.51628  1.0000
  H   H1424     1.0  0.59190  0.76382  0.42309  1.0000
  H   H1425     1.0  0.33154  0.91748  0.57653  1.0000
  S   S357      1.0  0.59437  0.86774  0.47968  1.0000
  S   S358      1.0  0.57658  0.89225  0.52234  1.0000
  H   H1426     1.0  0.58196  0.79502  0.50245  1.0000
  S   S359      1.0  0.52477  0.89252  0.61957  1.0000
  S   S360      1.0  0.34528  0.91386  0.63452  1.0000
  H   H1427     1.0  0.60157  0.76707  0.38773  1.0000
  H   H1428     1.0  0.36767  0.95180  0.62298  1.0000
  C   C896      1.0  0.64413  0.74685  0.43660  1.0000
  H   H1429     1.0  0.35500  0.88720  0.58504  1.0000
  H   H1430     1.0  0.51708  0.91236  0.36428  1.0000
  C   C897      1.0  0.64081  0.90125  0.38259  1.0000
  C   C898      1.0  0.56179  0.89241  0.54850  1.0000
  C   C899      1.0  0.54459  0.88281  0.54382  1.0000
  C   C900      1.0  0.53350  0.88301  0.56581  1.0000
  C   C901      1.0  0.53938  0.89292  0.59258  1.0000
  C   C902      1.0  0.55658  0.90254  0.59718  1.0000
  C   C903      1.0  0.56768  0.90224  0.57532  1.0000
  H   H1431     1.0  0.53977  0.87532  0.52324  1.0000
  H   H1432     1.0  0.52022  0.87557  0.56196  1.0000
  H   H1433     1.0  0.56130  0.91019  0.61764  1.0000
  H   H1434     1.0  0.58093  0.90972  0.57931  1.0000
  H   H1435     1.0  0.57441  0.76580  0.48486  1.0000
  C   C904      1.0  0.55122  0.88047  0.34352  1.0000
  H   H1436     1.0  0.37220  0.98812  0.63042  1.0000
  C   C905      1.0  0.35951  0.97794  0.63163  1.0000
  H   H1437     1.0  0.55387  0.85552  0.52127  1.0000
  H   H1438     1.0  0.60977  0.90374  0.48451  1.0000
  C   C906      1.0  0.64569  0.90241  0.41328  1.0000
  H   H1439     1.0  0.64913  0.90710  0.33752  1.0000
  H   H1440     1.0  0.53675  0.83648  0.52924  1.0000
  H   H1441     1.0  0.63032  0.78928  0.38439  1.0000
  H   H1442     1.0  0.61373  0.90346  0.53951  1.0000
  H   H1443     1.0  0.62769  0.89517  0.37534  1.0000
  H   H1444     1.0  0.35838  0.88787  0.64163  1.0000
  C   C907      1.0  0.61801  0.78560  0.45635  1.0000
  C   C908      1.0  0.65298  0.90803  0.36120  1.0000
  H   H1445     1.0  0.37691  0.86040  0.60915  1.0000
  H   H1446     1.0  0.48758  0.90746  0.34937  1.0000
  H   H1447     1.0  0.60574  0.79651  0.38934  1.0000
  C   C909      1.0  0.36566  0.88015  0.63893  1.0000
  H   H1448     1.0  0.61603  0.80966  0.42198  1.0000
  H   H1449     1.0  0.51454  0.89334  0.34486  1.0000
  N   N92       1.0  0.35963  0.96576  0.65402  1.0000
  H   H1450     1.0  0.64117  0.94720  0.49244  1.0000
  H   H1451     1.0  0.53107  0.91251  0.33583  1.0000
  H   H1452     1.0  0.58185  0.84409  0.53213  1.0000
  H   H1453     1.0  0.59557  0.79339  0.42418  1.0000
  C   C910      1.0  0.61939  0.91729  0.54015  1.0000
  C   C911      1.0  0.63177  0.78969  0.40946  1.0000
  H   H1454     1.0  0.57402  0.89895  0.36414  1.0000
  C   C912      1.0  0.60417  0.76798  0.41260  1.0000
  H   H1455     1.0  0.35078  0.98371  0.63748  1.0000
  C   C913      1.0  0.60791  0.79667  0.41425  1.0000
  N   N93       1.0  0.61547  0.78501  0.42315  1.0000
  H   H1456     1.0  0.32737  0.87727  0.63360  1.0000
  H   H1457     1.0  0.54144  0.84343  0.58348  1.0000
  H   H1458     1.0  0.36890  0.88189  0.56299  1.0000
  S   S361      1.0  0.55629  0.74719  0.42974  1.0000
  N   N94       1.0  0.62771  0.92371  0.51201  1.0000
  H   H1459     1.0  0.60593  0.78195  0.46736  1.0000
  H   H1460     1.0  0.34337  0.89275  0.36428  1.0000
  C   C914      1.0  0.51776  0.90681  0.34198  1.0000
  H   H1461     1.0  0.63614  0.90408  0.50663  1.0000
  H   H1462     1.0  0.57649  0.91988  0.32574  1.0000
  H   H1463     1.0  0.35551  0.97196  0.60867  1.0000
  H   H1464     1.0  0.62638  0.79831  0.46515  1.0000
  C   C915      1.0  0.38489  0.87395  0.60916  1.0000
  C   C916      1.0  0.56465  0.89604  0.34566  1.0000
  H   H1465     1.0  0.55851  0.86267  0.57676  1.0000
  H   H1466     1.0  0.58541  0.84932  0.57187  1.0000
  H   H1467     1.0  0.56170  0.84845  0.60207  1.0000
  N   N95       1.0  0.55979  0.84126  0.55501  1.0000
  C   C917      1.0  0.55555  0.82360  0.56099  1.0000
  C   C918      1.0  0.57797  0.84983  0.55123  1.0000
  C   C919      1.0  0.55516  0.84926  0.58047  1.0000
  C   C920      1.0  0.55052  0.84236  0.52707  1.0000
  H   H1468     1.0  0.55895  0.81731  0.54203  1.0000
  H   H1469     1.0  0.54189  0.81673  0.56368  1.0000
  H   H1470     1.0  0.56233  0.82224  0.58189  1.0000
  H   H1471     1.0  0.64756  0.92232  0.48681  1.0000
  H   H1472     1.0  0.63776  0.78107  0.41582  1.0000
  H   H1473     1.0  0.60897  0.92125  0.54353  1.0000
  C   C921      1.0  0.48906  0.90192  0.32759  1.0000
  H   H1474     1.0  0.62373  0.77696  0.46381  1.0000
  H   H1475     1.0  0.64066  0.80248  0.41690  1.0000
  H   H1476     1.0  0.33829  0.94562  0.63258  1.0000
  C   C922      1.0  0.33336  0.88961  0.34695  1.0000
  H   H1477     1.0  0.64432  0.94718  0.53273  1.0000
  H   H1478     1.0  0.62105  0.92191  0.46437  1.0000
  H   H1479     1.0  0.39418  0.87695  0.62887  1.0000
  H   H1480     1.0  0.62831  0.92167  0.56026  1.0000
  H   H1481     1.0  0.60474  0.92139  0.48838  1.0000
  H   H1482     1.0  0.37856  0.90952  0.61287  1.0000
  C   C923      1.0  0.38584  0.90170  0.61116  1.0000
  C   C924      1.0  0.63487  0.94205  0.51347  1.0000
  C   C925      1.0  0.37141  0.95848  0.64540  1.0000
  C   C926      1.0  0.32652  0.90434  0.58060  1.0000
  H   H1483     1.0  0.39286  0.90500  0.59032  1.0000
  H   H1484     1.0  0.39522  0.90528  0.63072  1.0000
  H   H1485     1.0  0.48478  0.88830  0.33017  1.0000
  C   C927      1.0  0.32433  0.88176  0.61266  1.0000
  H   H1486     1.0  0.51053  0.93376  0.33636  1.0000
  H   H1487     1.0  0.63428  0.93369  0.91288  1.0000
  Fe  Fe182     1.0  0.57634  0.85012  0.95035  1.0000
  S   S362      1.0  0.56924  0.82416  0.92845  1.0000
  Fe  Fe183     1.0  0.57043  0.88049  0.93091  1.0000
  S   S363      1.0  0.58814  0.89726  0.96754  1.0000
  S   S364      1.0  0.55382  0.88850  0.89966  1.0000
  Fe  Fe184     1.0  0.60518  0.88482  0.95612  1.0000
  S   S365      1.0  0.63342  0.89962  0.96001  1.0000
  H   H1488     1.0  0.62595  0.78504  0.89165  1.0000
  S   S366      1.0  0.58852  0.86992  0.91682  1.0000
  S   S367      1.0  0.55733  0.86016  0.96271  1.0000
  Fe  Fe185     1.0  0.54182  0.91388  0.72979  1.0000
  S   S368      1.0  0.55275  0.92564  0.68641  1.0000
  S   S369      1.0  0.55932  0.90679  0.76099  1.0000
  Fe  Fe186     1.0  0.50746  0.91478  0.71267  1.0000
  S   S370      1.0  0.48366  0.91377  0.73425  1.0000
  N   N96       1.0  0.53512  0.83857  0.86742  1.0000
  Fe  Fe187     1.0  0.53975  0.94269  0.69445  1.0000
  S   S371      1.0  0.54820  0.97013  0.68454  1.0000
  S   S372      1.0  0.51789  0.89528  0.70676  1.0000
  S   S373      1.0  0.53080  0.93243  0.73923  1.0000
  Fe  Fe188     1.0  0.38984  0.90880  0.70860  1.0000
  C   C928      1.0  0.50130  0.95337  0.70529  1.0000
  S   S374      1.0  0.40773  0.89823  0.68995  1.0000
  Fe  Fe189     1.0  0.36384  0.91265  0.74893  1.0000
  S   S375      1.0  0.35926  0.93065  0.71795  1.0000
  S   S376      1.0  0.35222  0.90991  0.79506  1.0000
  Fe  Fe190     1.0  0.35895  0.91338  0.67972  1.0000
  Fe  Fe191     1.0  0.38715  0.94253  0.71565  1.0000
  S   S377      1.0  0.40230  0.96964  0.70627  1.0000
  S   S378      1.0  0.36169  0.89436  0.71067  1.0000
  S   S379      1.0  0.39224  0.92583  0.74859  1.0000
  H   H1489     1.0  0.52302  0.98419  0.75735  1.0000
  H   H1490     1.0  0.53463  0.85212  0.90775  1.0000
  C   C929      1.0  0.52099  0.97564  0.73746  1.0000
  H   H1491     1.0  0.62867  0.89542  0.89439  1.0000
  H   H1492     1.0  0.59809  0.79397  0.91398  1.0000
  H   H1493     1.0  0.56167  0.76590  0.91677  1.0000
  H   H1494     1.0  0.51731  0.83237  0.90189  1.0000
  C   C930      1.0  0.61050  0.79918  0.92666  1.0000
  C   C931      1.0  0.40524  0.98639  0.73149  1.0000
  H   H1495     1.0  0.48348  0.94591  0.75453  1.0000
  C   C932      1.0  0.39885  0.98396  0.76012  1.0000
  C   C933      1.0  0.55341  0.84727  0.86522  1.0000
  H   H1496     1.0  0.39188  0.97149  0.76739  1.0000
  C   C934      1.0  0.46293  0.91023  0.72044  1.0000
  C   C935      1.0  0.45251  0.91407  0.73963  1.0000
  C   C936      1.0  0.43584  0.91107  0.73027  1.0000
  C   C937      1.0  0.42919  0.90378  0.70175  1.0000
  C   C938      1.0  0.43964  0.90004  0.68246  1.0000
  C   C939      1.0  0.45646  0.90343  0.69155  1.0000
  H   H1497     1.0  0.42795  0.91383  0.74555  1.0000
  C   C940      1.0  0.56015  0.98691  0.70987  1.0000
  H   H1498     1.0  0.49811  0.96251  0.77874  1.0000
  H   H1499     1.0  0.63260  0.80027  0.97175  1.0000
  H   H1500     1.0  0.56563  0.97216  0.74335  1.0000
  H   H1501     1.0  0.36553  0.96543  0.70154  1.0000
  C   C941      1.0  0.55556  0.89340  0.86103  1.0000
  C   C942      1.0  0.56822  0.89231  0.84421  1.0000
  C   C943      1.0  0.56914  0.89643  0.81361  1.0000
  C   C944      1.0  0.55736  0.90152  0.79943  1.0000
  C   C945      1.0  0.54460  0.90243  0.81620  1.0000
  C   C946      1.0  0.54375  0.89841  0.84685  1.0000
  H   H1502     1.0  0.57729  0.88831  0.85469  1.0000
  H   H1503     1.0  0.57900  0.89563  0.80072  1.0000
  H   H1504     1.0  0.53545  0.90631  0.80558  1.0000
  H   H1505     1.0  0.53387  0.89925  0.85964  1.0000
  H   H1506     1.0  0.64226  0.80196  0.93629  1.0000
  H   H1507     1.0  0.50645  0.96038  0.68484  1.0000
  C   C947      1.0  0.56445  0.77338  0.96375  1.0000
  C   C948      1.0  0.56384  0.77603  0.93282  1.0000
  C   C949      1.0  0.56539  0.79165  0.92258  1.0000
  C   C950      1.0  0.56789  0.80494  0.94300  1.0000
  C   C951      1.0  0.56884  0.80240  0.97393  1.0000
  H   H1508     1.0  0.60441  0.77102  0.89454  1.0000
  H   H1509     1.0  0.59169  0.93330  0.91586  1.0000
  H   H1510     1.0  0.63716  0.78350  0.95733  1.0000
  H   H1511     1.0  0.51588  0.81411  0.85811  1.0000
  H   H1512     1.0  0.47979  0.96639  0.72071  1.0000
  S   S380      1.0  0.38661  0.92641  0.67594  1.0000
  C   C952      1.0  0.63277  0.79330  0.95075  1.0000
  H   H1513     1.0  0.53760  0.83333  0.91409  1.0000
  N   N97       1.0  0.61605  0.78592  0.93483  1.0000
  C   C953      1.0  0.36502  0.97419  0.68413  1.0000
  H   H1514     1.0  0.50818  0.94542  0.70986  1.0000
  H   H1515     1.0  0.46423  0.90030  0.67655  1.0000
  H   H1516     1.0  0.56026  0.84121  0.87876  1.0000
  H   H1517     1.0  0.33334  0.95737  0.66121  1.0000
  H   H1518     1.0  0.61644  0.91712  0.92651  1.0000
  H   H1519     1.0  0.55703  0.84750  0.84150  1.0000
  S   S381      1.0  0.51609  0.92590  0.66817  1.0000
  C   C954      1.0  0.52657  0.84687  0.84871  1.0000
  C   C955      1.0  0.49689  0.95456  0.75832  1.0000
  H   H1520     1.0  0.53265  0.82025  0.83284  1.0000
  H   H1521     1.0  0.58493  0.92521  0.87789  1.0000
  H   H1522     1.0  0.52968  0.84707  0.82466  1.0000
  H   H1523     1.0  0.62021  0.93818  0.93612  1.0000
  Fe  Fe192     1.0  0.52840  0.90792  0.66374  1.0000
  C   C956      1.0  0.53097  0.83909  0.89918  1.0000
  H   H1524     1.0  0.50392  0.94671  0.76346  1.0000
  H   H1525     1.0  0.53033  0.86002  0.85664  1.0000
  N   N98       1.0  0.61068  0.93024  0.89035  1.0000
  C   C957      1.0  0.61175  0.91875  0.86674  1.0000
  C   C958      1.0  0.61706  0.94727  0.87914  1.0000
  H   H1526     1.0  0.58783  0.91223  0.90620  1.0000
  H   H1527     1.0  0.60709  0.90579  0.87453  1.0000
  H   H1528     1.0  0.60413  0.91866  0.84586  1.0000
  H   H1529     1.0  0.62490  0.92230  0.86045  1.0000
  H   H1530     1.0  0.63036  0.95154  0.87322  1.0000
  H   H1531     1.0  0.61641  0.95626  0.89639  1.0000
  H   H1532     1.0  0.60963  0.94796  0.85853  1.0000
  H   H1533     1.0  0.49769  0.98206  0.70499  1.0000
  N   N99       1.0  0.50313  0.96455  0.73160  1.0000
  H   H1534     1.0  0.60812  0.76459  0.96256  1.0000
  C   C959      1.0  0.64696  0.90775  0.93058  1.0000
  H   H1535     1.0  0.64823  0.90825  0.85407  1.0000
  H   H1536     1.0  0.59150  0.76791  0.94295  1.0000
  S   S382      1.0  0.56147  0.75358  0.97786  1.0000
  C   C960      1.0  0.33464  0.89529  0.81286  1.0000
  C   C961      1.0  0.62085  0.92984  0.91761  1.0000
  H   H1537     1.0  0.52871  0.96838  0.74180  1.0000
  C   C962      1.0  0.33161  0.89903  0.84238  1.0000
  C   C963      1.0  0.56726  0.98455  0.73728  1.0000
  H   H1538     1.0  0.37783  0.98430  0.68428  1.0000
  H   H1539     1.0  0.52611  0.98334  0.71771  1.0000
  C   C964      1.0  0.56694  0.78667  0.98419  1.0000
  H   H1540     1.0  0.55800  0.86035  0.87383  1.0000
  S   S383      1.0  0.62929  0.74756  0.95589  1.0000
  C   C965      1.0  0.49333  0.97452  0.72521  1.0000
  H   H1541     1.0  0.56450  0.79339  0.89861  1.0000
  H   H1542     1.0  0.51272  0.84057  0.84958  1.0000
  H   H1543     1.0  0.60914  0.80597  0.94704  1.0000
  H   H1544     1.0  0.53594  0.81460  0.87057  1.0000
  C   C966      1.0  0.59304  0.92507  0.89788  1.0000
  H   H1545     1.0  0.33999  0.91060  0.85359  1.0000
  C   C967      1.0  0.52963  0.82110  0.85671  1.0000
  H   H1546     1.0  0.32585  0.87712  0.77610  1.0000
  H   H1547     1.0  0.45723  0.91910  0.76218  1.0000
  C   C968      1.0  0.64145  0.90394  0.90027  1.0000
  H   H1548     1.0  0.62077  0.76653  0.91246  1.0000
  H   H1549     1.0  0.61948  0.80840  0.91221  1.0000
  C   C969      1.0  0.64458  0.75054  0.92924  1.0000
  C   C970      1.0  0.61684  0.77677  0.90714  1.0000
  C   C971      1.0  0.60401  0.77436  0.95480  1.0000
  H   H1550     1.0  0.43466  0.89431  0.66042  1.0000
  C   C972      1.0  0.65255  0.91118  0.87753  1.0000
  H   H1551     1.0  0.35639  0.97974  0.69161  1.0000
  H   H1552     1.0  0.48797  0.94484  0.69986  1.0000
  H   H1553     1.0  0.60235  0.78088  0.97523  1.0000
  S   S384      1.0  0.59441  0.86446  0.98882  1.0000
  H   H1554     1.0  0.34230  0.94296  0.67141  1.0000
  H   H1555     1.0  0.39662  0.99579  0.80166  1.0000
  H   H1556     1.0  0.49447  0.98316  0.74455  1.0000
  H   H1557     1.0  0.57064  0.81244  0.98996  1.0000
  H   H1558     1.0  0.37450  0.88271  0.65911  1.0000
  H   H1559     1.0  0.37179  0.94931  0.66191  1.0000
  Fe  Fe193     1.0  0.93081  0.21498  0.10711  1.0000
  S   S385      1.0  0.92587  0.19796  0.06621  1.0000
  S   S386      1.0  0.92306  0.23611  0.11645  1.0000
  Fe  Fe194     1.0  0.94616  0.19580  0.14527  1.0000
  S   S387      1.0  0.94186  0.17679  0.10743  1.0000
  S   S388      1.0  0.95558  0.19446  0.19379  1.0000
  Fe  Fe195     1.0  0.95168  0.19894  0.07753  1.0000
  S   S389      1.0  0.97220  0.19943  0.04664  1.0000
  Fe  Fe196     1.0  0.91627  0.17696  0.09862  1.0000
  S   S390      1.0  0.89037  0.15657  0.08341  1.0000
  S   S391      1.0  0.95731  0.21769  0.11619  1.0000
  S   S392      1.0  0.91986  0.19419  0.13862  1.0000
  Fe  Fe197     1.0  0.69703  0.13984  0.05286  1.0000
  S   S393      1.0  0.69676  0.11710  0.02812  1.0000
  S   S394      1.0  0.68490  0.14329  0.09592  1.0000
  Fe  Fe198     1.0  0.72171  0.16388  0.01050  1.0000
  C   C973      1.0  0.86684  0.20589  0.05951  1.0000
  H   H1560     1.0  0.85073  0.17332  0.04410  1.0000
  C   C974      1.0  0.91295  0.24234  0.08686  1.0000
  Fe  Fe199     1.0  0.72462  0.13152  0.02627  1.0000
  S   S395      1.0  0.74704  0.12472  0.02921  1.0000
  S   S396      1.0  0.69339  0.15201  0.01010  1.0000
  S   S397      1.0  0.72525  0.15323  0.05426  1.0000
  Fe  Fe200     1.0  0.81032  0.06809  0.11900  1.0000
  S   S398      1.0  0.79097  0.06768  0.15117  1.0000
  S   S399      1.0  0.83729  0.08749  0.13096  1.0000
  Fe  Fe201     1.0  0.78572  0.03475  0.08825  1.0000
  S   S400      1.0  0.76557  0.03245  0.11981  1.0000
  S   S401      1.0  0.77857  0.01193  0.05623  1.0000
  Fe  Fe202     1.0  0.77261  0.05941  0.11110  1.0000
  S   S402      1.0  0.74960  0.06511  0.10473  1.0000
  Fe  Fe203     1.0  0.78542  0.04064  0.15757  1.0000
  S   S403      1.0  0.78378  0.03360  0.20763  1.0000
  S   S404      1.0  0.79208  0.06159  0.07785  1.0000
  S   S405      1.0  0.80541  0.04118  0.12681  1.0000
  H   H1561     1.0  0.67287  0.14709  0.15347  1.0000
  H   H1562     1.0  0.85015  0.17632  0.08418  1.0000
  H   H1563     1.0  0.89462  0.20408  0.03940  1.0000
  N   N100      1.0  0.94652  0.23993  0.20505  1.0000
  H   H1564     1.0  0.76191  0.03377  0.04407  1.0000
  C   C975      1.0  0.77453  0.01494  0.22795  1.0000
  C   C976      1.0  0.73286  0.01613  0.01108  1.0000
  C   C977      1.0  0.73026  0.19957  0.07485  1.0000
  H   H1565     1.0  0.95211  0.24164  0.15833  1.0000
  C   C978      1.0  0.78251  0.23074  0.00555  1.0000
  H   H1566     1.0  0.90610  0.23935  0.01044  1.0000
  C   C979      1.0  0.67108  0.12843  0.11984  1.0000
  H   H1567     1.0  0.75672  0.05089  0.05322  1.0000
  H   H1568     1.0  0.77930  0.02825  0.27092  1.0000
  H   H1569     1.0  0.73137  0.18890  0.06296  1.0000
  H   H1570     1.0  0.80151  0.16554  0.00562  1.0000
  C   C980      1.0  0.74921  0.08181  0.08378  1.0000
  C   C981      1.0  0.76302  0.09205  0.06846  1.0000
  C   C982      1.0  0.76215  0.10513  0.05174  1.0000
  C   C983      1.0  0.74749  0.10807  0.05027  1.0000
  C   C984      1.0  0.73364  0.09776  0.06544  1.0000
  C   C985      1.0  0.73451  0.08464  0.08207  1.0000
  H   H1571     1.0  0.77440  0.08995  0.06963  1.0000
  H   H1572     1.0  0.77290  0.11306  0.04003  1.0000
  H   H1573     1.0  0.72230  0.09991  0.06443  1.0000
  H   H1574     1.0  0.72377  0.07675  0.09389  1.0000
  C   C986      1.0  0.79007  0.22846  0.03257  1.0000
  H   H1575     1.0  0.92455  0.22413  0.17828  1.0000
  H   H1576     1.0  0.73895  0.01392  0.07021  1.0000
  C   C987      1.0  0.75769  0.20491  0.01179  1.0000
  C   C988      1.0  0.76541  0.20244  0.03845  1.0000
  C   C989      1.0  0.78139  0.21421  0.04887  1.0000
  H   H1577     1.0  0.75905  0.19158  0.05129  1.0000
  H   H1578     1.0  0.66648  0.10692  0.09124  1.0000
  C   C990      1.0  0.87575  0.13750  0.09744  1.0000
  C   C991      1.0  0.87904  0.13069  0.12395  1.0000
  C   C992      1.0  0.86712  0.11547  0.13375  1.0000
  C   C993      1.0  0.85166  0.10684  0.11744  1.0000
  C   C994      1.0  0.84830  0.11375  0.09110  1.0000
  C   C995      1.0  0.86027  0.12890  0.08117  1.0000
  H   H1579     1.0  0.89084  0.13703  0.13673  1.0000
  H   H1580     1.0  0.86997  0.11031  0.15407  1.0000
  H   H1581     1.0  0.83657  0.10731  0.07815  1.0000
  H   H1582     1.0  0.85756  0.13389  0.06052  1.0000
  H   H1583     1.0  0.87746  0.21831  0.05969  1.0000
  C   C996      1.0  0.90529  0.24268  0.03368  1.0000
  C   C997      1.0  0.72603  0.03882  0.02786  1.0000
  C   C998      1.0  0.76793  0.99912  0.21379  1.0000
  H   H1584     1.0  0.74008  0.00848  0.01624  1.0000
  H   H1585     1.0  0.86260  0.16622  0.06988  1.0000
  H   H1586     1.0  0.72822  0.04867  0.04569  1.0000
  C   C999      1.0  0.98277  0.17514  0.11042  1.0000
  C   C1000     1.0  0.66365  0.11143  0.11216  1.0000
  H   H1587     1.0  0.95840  0.22898  0.23600  1.0000
  C   C1001     1.0  0.97338  0.20732  0.21736  1.0000
  C   C1002     1.0  0.77251  0.00780  0.01705  1.0000
  H   H1588     1.0  0.96346  0.19391  0.25714  1.0000
  H   H1589     1.0  0.98392  0.20617  0.10763  1.0000
  N   N101      1.0  0.83327  0.06794  0.21692  1.0000
  C   C1003     1.0  0.82162  0.07602  0.21096  1.0000
  C   C1004     1.0  0.83083  0.05529  0.19280  1.0000
  C   C1005     1.0  0.85068  0.08059  0.21754  1.0000
  H   H1590     1.0  0.82316  0.08570  0.22861  1.0000
  H   H1591     1.0  0.80835  0.06686  0.21034  1.0000
  H   H1592     1.0  0.82367  0.08213  0.18888  1.0000
  H   H1593     1.0  0.83329  0.06096  0.17037  1.0000
  H   H1594     1.0  0.83935  0.04888  0.19661  1.0000
  H   H1595     1.0  0.81779  0.04560  0.19147  1.0000
  H   H1596     1.0  0.85340  0.08683  0.19554  1.0000
  H   H1597     1.0  0.85985  0.07495  0.22176  1.0000
  H   H1598     1.0  0.85301  0.09040  0.23539  1.0000
  C   C1006     1.0  0.88353  0.19209  0.04057  1.0000
  C   C1007     1.0  0.85840  0.17643  0.06580  1.0000
  C   C1008     1.0  0.76636  0.21913  0.99545  1.0000
  N   N102      1.0  0.71565  0.19388  0.09373  1.0000
  H   H1599     1.0  0.83840  0.05352  0.25143  1.0000
  H   H1600     1.0  0.70357  0.20448  0.12339  1.0000
  C   C1009     1.0  0.70026  0.18488  0.07441  1.0000
  H   H1601     1.0  0.72898  0.18898  0.13173  1.0000
  H   H1602     1.0  0.69840  0.19286  0.05671  1.0000
  S   S406      1.0  0.73724  0.19076  0.99818  1.0000
  H   H1603     1.0  0.74219  0.20640  0.08847  1.0000
  C   C1010     1.0  0.71449  0.20837  0.10897  1.0000
  H   H1604     1.0  0.70654  0.17776  0.13075  1.0000
  H   H1605     1.0  0.89393  0.20802  0.09408  1.0000
  H   H1606     1.0  0.71303  0.21708  0.09231  1.0000
  H   H1607     1.0  0.85988  0.20403  0.03720  1.0000
  H   H1608     1.0  0.68894  0.18012  0.08785  1.0000
  N   N103      1.0  0.73608  0.02914  0.03492  1.0000
  C   C1011     1.0  0.95794  0.24109  0.18090  1.0000
  C   C1012     1.0  0.66717  0.13400  0.14718  1.0000
  C   C1013     1.0  0.75402  0.04040  0.03671  1.0000
  H   H1609     1.0  0.96606  0.22644  0.01743  1.0000
  C   C1014     1.0  0.77426  0.01612  0.25962  1.0000
  H   H1610     1.0  0.87659  0.18950  0.01815  1.0000
  H   H1611     1.0  0.83150  0.06894  0.26497  1.0000
  H   H1612     1.0  0.71939  0.00755  0.00868  1.0000
  H   H1613     1.0  0.92127  0.23117  0.05130  1.0000
  H   H1614     1.0  0.88703  0.18624  0.09945  1.0000
  C   C1015     1.0  0.91383  0.23797  0.05680  1.0000
  H   H1615     1.0  0.77611  0.15734  0.03580  1.0000
  H   H1616     1.0  0.96121  0.23014  0.18036  1.0000
  C   C1016     1.0  0.95498  0.23985  0.23462  1.0000
  C   C1017     1.0  0.88264  0.19617  0.09421  1.0000
  C   C1018     1.0  0.93125  0.22442  0.20038  1.0000
  H   H1617     1.0  0.73394  0.03075  0.08277  1.0000
  C   C1019     1.0  0.98115  0.21232  0.01588  1.0000
  H   H1618     1.0  0.72594  0.21546  0.12366  1.0000
  H   H1619     1.0  0.76751  0.00298  0.30114  1.0000
  H   H1620     1.0  0.75823  0.04583  0.01459  1.0000
  H   H1621     1.0  0.70081  0.17388  0.06272  1.0000
  H   H1622     1.0  0.87516  0.19715  0.11312  1.0000
  C   C1020     1.0  0.77474  0.02044  0.99678  1.0000
  H   H1623     1.0  0.71240  0.03077  0.02626  1.0000
  C   C1021     1.0  0.71756  0.18264  0.11656  1.0000
  H   H1624     1.0  0.80325  0.18659  0.00482  1.0000
  C   C1022     1.0  0.73151  0.02127  0.06419  1.0000
  H   H1625     1.0  0.72921  0.20793  0.05705  1.0000
  H   H1626     1.0  0.97623  0.17693  0.08951  1.0000
  H   H1627     1.0  0.66166  0.06132  0.21823  1.0000
  H   H1628     1.0  0.97322  0.17016  0.12751  1.0000
  H   H1629     1.0  0.92235  0.22305  0.21827  1.0000
  H   H1630     1.0  0.88828  0.18222  0.04404  1.0000
  H   H1631     1.0  0.85848  0.20650  0.07717  1.0000
  H   H1632     1.0  0.78708  0.21234  0.06984  1.0000
  C   C1023     1.0  0.82990  0.05982  0.24620  1.0000
  H   H1633     1.0  0.81679  0.05018  0.24605  1.0000
  N   N104      1.0  0.87284  0.19265  0.06500  1.0000
  H   H1634     1.0  0.71854  0.17159  0.10579  1.0000
  H   H1635     1.0  0.75925  0.16260  0.02305  1.0000
  C   C1024     1.0  0.97385  0.20408  0.24826  1.0000
  H   H1636     1.0  0.71804  0.01274  0.06381  1.0000
  H   H1637     1.0  0.94680  0.23912  0.25346  1.0000
  C   C1025     1.0  0.77307  0.16665  0.02309  1.0000
  H   H1638     1.0  0.98011  0.19882  0.14520  1.0000
  H   H1639     1.0  0.98792  0.21099  0.29148  1.0000
  C   C1026     1.0  0.97590  0.22457  0.00621  1.0000
  H   H1640     1.0  0.93429  0.21330  0.20063  1.0000
  H   H1641     1.0  0.77903  0.17873  0.03598  1.0000
  C   C1027     1.0  0.76754  0.00178  0.27689  1.0000
  S   S407      1.0  0.80988  0.24315  0.04789  1.0000
  H   H1642     1.0  0.98682  0.22334  0.18277  1.0000
  C   C1028     1.0  0.98695  0.22053  0.20632  1.0000
  H   H1643     1.0  0.98740  0.16544  0.10494  1.0000
  C   C1029     1.0  0.98770  0.21378  0.26787  1.0000
  H   H1644     1.0  0.78893  0.24166  0.99282  1.0000
  H   H1645     1.0  0.78087  0.03328  0.00462  1.0000
  H   H1646     1.0  0.76812  0.99791  0.18955  1.0000
  H   H1647     1.0  0.72935  0.04512  0.00613  1.0000
  C   C1030     1.0  0.98981  0.20331  0.12825  1.0000
  C   C1031     1.0  0.79719  0.17410  0.99319  1.0000
  S   S408      1.0  0.68629  0.11654  0.44012  1.0000
  C   C1032     1.0  0.67363  0.11052  0.63176  1.0000
  H   H1648     1.0  0.84303  0.21641  0.58338  1.0000
  C   C1033     1.0  0.67207  0.11738  0.41055  1.0000
  H   H1649     1.0  0.86871  0.20441  0.53134  1.0000
  H   H1650     1.0  0.96263  0.21686  0.45440  1.0000
  S   S409      1.0  0.91163  0.22575  0.62701  1.0000
  H   H1651     1.0  0.81485  0.11827  0.60499  1.0000
  C   C1034     1.0  0.77824  0.10373  0.64028  1.0000
  H   H1652     1.0  0.79727  0.20049  0.49439  1.0000
  H   H1653     1.0  0.76752  0.18241  0.50210  1.0000
  Fe  Fe204     1.0  0.92615  0.21011  0.61768  1.0000
  S   S410      1.0  0.92687  0.19590  0.57554  1.0000
  C   C1035     1.0  0.98117  0.21539  0.52293  1.0000
  C   C1036     1.0  0.96861  0.21436  0.50130  1.0000
  S   S411      1.0  0.94929  0.18109  0.61827  1.0000
  Fe  Fe205     1.0  0.95414  0.20339  0.58978  1.0000
  S   S412      1.0  0.97705  0.21040  0.56125  1.0000
  Fe  Fe206     1.0  0.92189  0.17429  0.60604  1.0000
  S   S413      1.0  0.90541  0.14790  0.58765  1.0000
  S   S414      1.0  0.95381  0.21958  0.62960  1.0000
  H   H1654     1.0  0.87021  0.23983  0.52378  1.0000
  Fe  Fe207     1.0  0.69565  0.13263  0.55187  1.0000
  S   S415      1.0  0.69866  0.11331  0.52172  1.0000
  S   S416      1.0  0.67173  0.12620  0.57811  1.0000
  Fe  Fe208     1.0  0.72525  0.16122  0.52362  1.0000
  S   S417      1.0  0.72897  0.14350  0.49079  1.0000
  S   S418      1.0  0.74062  0.18956  0.52798  1.0000
  Fe  Fe209     1.0  0.70081  0.13067  0.48379  1.0000
  Fe  Fe210     1.0  0.72638  0.12757  0.53100  1.0000
  S   S419      1.0  0.74739  0.11865  0.53485  1.0000
  S   S420      1.0  0.69712  0.14971  0.51354  1.0000
  S   S421      1.0  0.72345  0.14569  0.56429  1.0000
  Fe  Fe211     1.0  0.81387  0.07152  0.61701  1.0000
  S   S422      1.0  0.83315  0.09823  0.62870  1.0000
  Fe  Fe212     1.0  0.79576  0.03999  0.57563  1.0000
  S   S423      1.0  0.77427  0.02882  0.60571  1.0000
  S   S424      1.0  0.79797  0.03052  0.52840  1.0000
  Fe  Fe213     1.0  0.77541  0.05479  0.60924  1.0000
  S   S425      1.0  0.75160  0.05923  0.60822  1.0000
  H   H1655     1.0  0.83185  0.19328  0.54488  1.0000
  S   S426      1.0  0.79553  0.06548  0.57676  1.0000
  S   S427      1.0  0.81564  0.04669  0.61399  1.0000
  C   C1037     1.0  0.78324  0.01332  0.50655  1.0000
  C   C1038     1.0  0.78616  0.01121  0.47617  1.0000
  H   H1656     1.0  0.95590  0.21081  0.50787  1.0000
  H   H1657     1.0  0.79749  0.01986  0.46687  1.0000
  H   H1658     1.0  0.88327  0.15101  0.63309  1.0000
  C   C1039     1.0  0.66447  0.11688  0.61307  1.0000
  C   C1040     1.0  0.80136  0.11054  0.60797  1.0000
  H   H1659     1.0  0.68567  0.11130  0.62518  1.0000
  C   C1041     1.0  0.75003  0.07524  0.58679  1.0000
  C   C1042     1.0  0.73591  0.07895  0.58855  1.0000
  C   C1043     1.0  0.73472  0.09212  0.57248  1.0000
  C   C1044     1.0  0.74766  0.10158  0.55455  1.0000
  C   C1045     1.0  0.76164  0.09769  0.55251  1.0000
  C   C1046     1.0  0.76283  0.08459  0.56855  1.0000
  H   H1660     1.0  0.72595  0.07175  0.60265  1.0000
  H   H1661     1.0  0.72390  0.09506  0.57416  1.0000
  H   H1662     1.0  0.77166  0.10497  0.53857  1.0000
  H   H1663     1.0  0.77372  0.08188  0.56702  1.0000
  C   C1047     1.0  0.79664  0.22249  0.51534  1.0000
  C   C1048     1.0  0.78963  0.20563  0.50558  1.0000
  C   C1049     1.0  0.77270  0.19530  0.50987  1.0000
  C   C1050     1.0  0.76238  0.20175  0.52355  1.0000
  C   C1051     1.0  0.76940  0.21863  0.53323  1.0000
  C   C1052     1.0  0.78642  0.22890  0.52943  1.0000
  H   H1664     1.0  0.76157  0.22378  0.54383  1.0000
  H   H1665     1.0  0.66558  0.12777  0.47657  1.0000
  C   C1053     1.0  0.88531  0.13423  0.59941  1.0000
  C   C1054     1.0  0.87724  0.13884  0.62205  1.0000
  H   H1666     1.0  0.85931  0.23584  0.57440  1.0000
  C   C1055     1.0  0.85328  0.11166  0.61679  1.0000
  C   C1056     1.0  0.86132  0.10706  0.59407  1.0000
  C   C1057     1.0  0.87720  0.11827  0.58547  1.0000
  H   H1667     1.0  0.85533  0.09484  0.58320  1.0000
  H   H1668     1.0  0.88326  0.11450  0.56796  1.0000
  H   H1669     1.0  0.83852  0.22973  0.55760  1.0000
  H   H1670     1.0  0.82727  0.20670  0.51949  1.0000
  H   H1671     1.0  0.79153  0.24178  0.53717  1.0000
  C   C1058     1.0  0.97248  0.21785  0.47098  1.0000
  S   S428      1.0  0.79336  0.06238  0.64988  1.0000
  H   H1672     1.0  0.86287  0.22309  0.49601  1.0000
  H   H1673     1.0  0.83990  0.19614  0.50787  1.0000
  H   H1674     1.0  0.66141  0.13117  0.51475  1.0000
  H   H1675     1.0  0.67148  0.14054  0.42515  1.0000
  C   C1059     1.0  0.76855  0.00206  0.51829  1.0000
  N   N105      1.0  0.95001  0.15794  0.53415  1.0000
  C   C1060     1.0  0.94935  0.14964  0.50465  1.0000
  C   C1061     1.0  0.94166  0.16946  0.53078  1.0000
  C   C1062     1.0  0.96767  0.16739  0.54497  1.0000
  C   C1063     1.0  0.94133  0.14533  0.55616  1.0000
  H   H1676     1.0  0.95546  0.14077  0.50637  1.0000
  H   H1677     1.0  0.95586  0.15884  0.48759  1.0000
  H   H1678     1.0  0.93618  0.14255  0.49579  1.0000
  H   H1679     1.0  0.94264  0.17639  0.55233  1.0000
  H   H1680     1.0  0.94751  0.17886  0.51368  1.0000
  H   H1681     1.0  0.92807  0.16274  0.52419  1.0000
  H   H1682     1.0  0.96860  0.17371  0.56734  1.0000
  H   H1683     1.0  0.97445  0.17733  0.52928  1.0000
  H   H1684     1.0  0.97451  0.15921  0.54742  1.0000
  H   H1685     1.0  0.94138  0.15118  0.57860  1.0000
  H   H1686     1.0  0.94730  0.13644  0.55952  1.0000
  H   H1687     1.0  0.92792  0.13806  0.54884  1.0000
  S   S429      1.0  0.91927  0.18801  0.64695  1.0000
  N   N106      1.0  0.79599  0.11476  0.63681  1.0000
  C   C1064     1.0  0.98894  0.22257  0.46191  1.0000
  H   H1688     1.0  0.76993  0.10537  0.62203  1.0000
  H   H1689     1.0  0.77625  0.09041  0.63943  1.0000
  H   H1690     1.0  0.86087  0.20206  0.56848  1.0000
  H   H1691     1.0  0.79982  0.09737  0.60701  1.0000
  Fe  Fe214     1.0  0.79383  0.03714  0.64450  1.0000
  S   S430      1.0  0.81797  0.23497  0.50805  1.0000
  C   C1065     1.0  0.90805  0.23806  0.59896  1.0000
  H   H1692     1.0  0.79183  0.24351  0.46724  1.0000
  H   H1693     1.0  0.84961  0.23318  0.50635  1.0000
  H   H1694     1.0  0.76621  0.00336  0.54169  1.0000
  C   C1066     1.0  0.86137  0.12765  0.63060  1.0000
  N   N107      1.0  0.75498  0.04359  0.50561  1.0000
  C   C1067     1.0  0.75535  0.03661  0.53552  1.0000
  C   C1068     1.0  0.75071  0.03030  0.48192  1.0000
  C   C1069     1.0  0.77164  0.05675  0.50075  1.0000
  C   C1070     1.0  0.74228  0.05068  0.50435  1.0000
  H   H1695     1.0  0.75826  0.04624  0.55390  1.0000
  H   H1696     1.0  0.76510  0.03154  0.53757  1.0000
  H   H1697     1.0  0.74313  0.02641  0.53995  1.0000
  H   H1698     1.0  0.76035  0.02508  0.48168  1.0000
  H   H1699     1.0  0.73853  0.01981  0.48551  1.0000
  H   H1700     1.0  0.74987  0.03500  0.45908  1.0000
  H   H1701     1.0  0.77197  0.06213  0.47819  1.0000
  H   H1702     1.0  0.78158  0.05184  0.50224  1.0000
  H   H1703     1.0  0.77517  0.06707  0.51800  1.0000
  H   H1704     1.0  0.74505  0.06063  0.52215  1.0000
  H   H1705     1.0  0.72957  0.04106  0.50789  1.0000
  H   H1706     1.0  0.74176  0.05627  0.48223  1.0000
  H   H1707     1.0  0.79400  0.11237  0.58834  1.0000
  H   H1708     1.0  0.79017  0.13426  0.61803  1.0000
  H   H1709     1.0  0.77686  0.99670  0.43428  1.0000
  C   C1071     1.0  0.66660  0.13026  0.40877  1.0000
  N   N108      1.0  0.85242  0.21677  0.53935  1.0000
  C   C1072     1.0  0.83721  0.20256  0.52738  1.0000
  C   C1073     1.0  0.86527  0.21085  0.54989  1.0000
  C   C1074     1.0  0.84814  0.22504  0.56483  1.0000
  C   C1075     1.0  0.85906  0.22870  0.51531  1.0000
  H   H1710     1.0  0.87697  0.22136  0.55858  1.0000
  H   H1711     1.0  0.66125  0.10345  0.52568  1.0000
  H   H1712     1.0  0.92338  0.23350  0.56652  1.0000
  H   H1713     1.0  0.89204  0.24507  0.62628  1.0000
  H   H1714     1.0  0.81119  0.14083  0.63421  1.0000
  H   H1715     1.0  0.66970  0.09419  0.38976  1.0000
  C   C1076     1.0  0.91533  0.23979  0.57118  1.0000
  C   C1077     1.0  0.79792  0.13222  0.63688  1.0000
  C   C1078     1.0  0.66561  0.10425  0.38866  1.0000
  H   H1716     1.0  0.85538  0.13139  0.64828  1.0000
  C   C1079     1.0  0.77448  0.99810  0.45762  1.0000
  H   H1717     1.0  0.79014  0.24387  0.41160  1.0000
  Fe  Fe215     1.0  0.94715  0.19682  0.65691  1.0000
  H   H1718     1.0  0.66436  0.10011  0.48692  1.0000
  H   H1719     1.0  0.79397  0.13585  0.65830  1.0000
  S   S431      1.0  0.95538  0.19727  0.70686  1.0000
  S   S432      1.0  0.67940  0.11350  0.94427  1.0000
  C   C1080     1.0  0.97510  0.20843  0.75955  1.0000
  H   H1720     1.0  0.96384  0.23555  0.69866  1.0000
  C   C1081     1.0  0.76941  0.01644  0.96607  1.0000
  H   H1721     1.0  0.77130  0.02632  0.95062  1.0000
  C   C1082     1.0  0.78054  0.00919  0.71033  1.0000
  H   H1722     1.0  0.67452  0.10478  0.80020  1.0000
  H   H1723     1.0  0.68226  0.14936  0.80479  1.0000
  H   H1724     1.0  0.97912  0.24380  0.97442  1.0000
  H   H1725     1.0  0.81998  0.12042  0.65982  1.0000
  C   C1083     1.0  0.77975  0.03135  0.85755  1.0000
  H   H1726     1.0  0.67969  0.12163  0.73873  1.0000
  H   H1727     1.0  0.77515  0.15189  0.95290  1.0000
  H   H1728     1.0  0.93172  0.21306  0.72632  1.0000
  H   H1729     1.0  0.96104  0.23324  0.73821  1.0000
  C   C1084     1.0  0.77607  0.02632  0.80345  1.0000
  Fe  Fe216     1.0  0.69461  0.12999  0.98524  1.0000
  H   H1730     1.0  0.73663  0.02158  0.98877  1.0000
  H   H1731     1.0  0.74858  0.02274  0.83226  1.0000
  H   H1732     1.0  0.77721  0.18071  0.95179  1.0000
  H   H1733     1.0  0.74623  0.00290  0.81686  1.0000
  H   H1734     1.0  0.76939  0.01730  0.78452  1.0000
  H   H1735     1.0  0.80523  0.09947  0.66258  1.0000
  C   C1085     1.0  0.97440  0.20949  0.72794  1.0000
  H   H1736     1.0  0.77636  0.02594  0.88010  1.0000
  H   H1737     1.0  0.96423  0.20002  0.77040  1.0000
  H   H1738     1.0  0.77615  0.04207  0.85605  1.0000
  S   S433      1.0  0.72253  0.14292  0.98230  1.0000
  H   H1739     1.0  0.78972  0.03045  0.80056  1.0000
  H   H1740     1.0  0.68947  0.14253  0.75413  1.0000
  N   N109      1.0  0.94217  0.23859  0.71355  1.0000
  C   C1086     1.0  0.93113  0.22092  0.70726  1.0000
  N   N110      1.0  0.67088  0.12551  0.78136  1.0000
  C   C1087     1.0  0.65858  0.09999  0.89344  1.0000
  C   C1088     1.0  0.98973  0.21820  0.77735  1.0000
  H   H1741     1.0  0.93778  0.23744  0.76081  1.0000
  H   H1742     1.0  0.66143  0.14217  0.76079  1.0000
  C   C1089     1.0  0.75298  0.01261  0.83484  1.0000
  H   H1743     1.0  0.77468  0.14221  0.98847  1.0000
  H   H1744     1.0  0.69494  0.12662  0.77003  1.0000
  H   H1745     1.0  0.80290  0.11571  0.68422  1.0000
  H   H1746     1.0  0.79362  0.03618  0.85691  1.0000
  C   C1090     1.0  0.66457  0.10780  0.78874  1.0000
  H   H1747     1.0  0.99002  0.21724  0.80161  1.0000
  H   H1748     1.0  0.93495  0.21601  0.68714  1.0000
  H   H1749     1.0  0.66226  0.08973  0.89621  1.0000
  H   H1750     1.0  0.79010  0.00882  0.83360  1.0000
  C   C1091     1.0  0.66514  0.11365  0.91423  1.0000
  H   H1751     1.0  0.91785  0.21902  0.70261  1.0000
  N   N111      1.0  0.77132  0.01881  0.83297  1.0000
  S   S434      1.0  0.79561  0.02246  0.68602  1.0000
  H   H1752     1.0  0.75727  0.14646  0.97535  1.0000
  H   H1753     1.0  0.77365  0.99938  0.85875  1.0000
  H   H1754     1.0  0.74899  0.00692  0.85691  1.0000
  H   H1755     1.0  0.77287  0.03723  0.80062  1.0000
  H   H1756     1.0  0.67441  0.09822  0.67311  1.0000
  H   H1757     1.0  0.68769  0.13349  0.82098  1.0000
  C   C1092     1.0  0.66019  0.12678  0.91038  1.0000
  C   C1093     1.0  0.68437  0.12925  0.76018  1.0000
  H   H1758     1.0  0.75904  0.01123  0.68846  1.0000
  H   H1759     1.0  0.98825  0.22145  0.69005  1.0000
  C   C1094     1.0  0.77645  0.00484  0.83617  1.0000
  H   H1760     1.0  0.76055  0.22123  0.97481  1.0000
  C   C1095     1.0  0.76347  0.00579  0.70669  1.0000
  H   H1761     1.0  0.79912  0.00434  0.73719  1.0000
  C   C1096     1.0  0.77119  0.15145  0.97640  1.0000
  H   H1762     1.0  0.65985  0.09961  0.76802  1.0000
  C   C1097     1.0  0.98856  0.22047  0.71430  1.0000
  C   C1098     1.0  0.66717  0.10309  0.65900  1.0000
  C   C1099     1.0  0.67738  0.13590  0.80939  1.0000
  H   H1763     1.0  0.66739  0.13329  0.82571  1.0000
  C   C1100     1.0  0.80645  0.11255  0.66204  1.0000
  C   C1101     1.0  0.77355  0.17971  0.97556  1.0000
  H   H1764     1.0  0.80192  0.17524  0.97014  1.0000
  C   C1102     1.0  0.76194  0.99981  0.95511  1.0000
  C   C1103     1.0  0.78598  0.00190  0.73424  1.0000
  H   H1765     1.0  0.66509  0.13738  0.92609  1.0000
  H   H1766     1.0  0.77941  0.19242  0.98631  1.0000
  C   C1104     1.0  0.98335  0.23442  0.98173  1.0000
  H   H1767     1.0  0.75972  0.17576  0.97506  1.0000
  H   H1768     1.0  0.77385  0.10623  0.66215  1.0000
  C   C1105     1.0  0.95965  0.24038  0.71856  1.0000
  H   H1769     1.0  0.92380  0.24337  0.73781  1.0000
  H   H1770     1.0  0.94458  0.24398  0.66652  1.0000
  C   C1106     1.0  0.93697  0.24462  0.74083  1.0000
  N   N112      1.0  0.77875  0.16798  0.99204  1.0000
  Fe  Fe217     1.0  0.93313  0.39334  0.27909  1.0000
  S   S435      1.0  0.91619  0.39322  0.23911  1.0000
  S   S436      1.0  0.96144  0.40567  0.28853  1.0000
  Fe  Fe218     1.0  0.90414  0.37486  0.31961  1.0000
  S   S437      1.0  0.88487  0.37380  0.28331  1.0000
  Fe  Fe219     1.0  0.90031  0.36681  0.25081  1.0000
  S   S438      1.0  0.88589  0.34359  0.22045  1.0000
  Fe  Fe220     1.0  0.90166  0.40034  0.27326  1.0000
  S   S439      1.0  0.88986  0.41852  0.26018  1.0000
  S   S440      1.0  0.91861  0.36632  0.28790  1.0000
  H   H1771     1.0  0.92241  0.44189  0.28704  1.0000
  S   S441      1.0  0.83796  0.29226  0.02521  1.0000
  Fe  Fe221     1.0  0.86830  0.27067  0.01876  1.0000
  S   S442      1.0  0.85601  0.27144  0.06160  1.0000
  S   S443      1.0  0.88459  0.25661  0.01072  1.0000
  Fe  Fe222     1.0  0.83261  0.26509  0.03087  1.0000
  H   H1772     1.0  0.96676  0.25120  0.23869  1.0000
  Fe  Fe223     1.0  0.86223  0.29840  0.05251  1.0000
  S   S444      1.0  0.87445  0.32341  0.07931  1.0000
  S   S445      1.0  0.87658  0.29796  0.01178  1.0000
  H   H1773     1.0  0.89605  0.33346  0.02674  1.0000
  H   H1774     1.0  0.93321  0.25386  0.22188  1.0000
  C   C1107     1.0  0.98538  0.41137  0.21010  1.0000
  H   H1775     1.0  0.91199  0.35357  0.02049  1.0000
  C   C1108     1.0  0.89922  0.44059  0.26613  1.0000
  C   C1109     1.0  0.89024  0.45002  0.25686  1.0000
  C   C1110     1.0  0.89726  0.46752  0.26095  1.0000
  C   C1111     1.0  0.91342  0.47584  0.27436  1.0000
  C   C1112     1.0  0.92234  0.46639  0.28380  1.0000
  C   C1113     1.0  0.91533  0.44891  0.27971  1.0000
  H   H1776     1.0  0.87776  0.44376  0.24636  1.0000
  H   H1777     1.0  0.89020  0.47456  0.25357  1.0000
  C   C1114     1.0  0.88337  0.33827  0.18108  1.0000
  C   C1115     1.0  0.89102  0.34985  0.15935  1.0000
  C   C1116     1.0  0.88815  0.34504  0.12840  1.0000
  C   C1117     1.0  0.87785  0.32857  0.11874  1.0000
  C   C1118     1.0  0.87035  0.31699  0.14047  1.0000
  C   C1119     1.0  0.87303  0.32185  0.17139  1.0000
  H   H1778     1.0  0.89923  0.36245  0.16635  1.0000
  H   H1779     1.0  0.89411  0.35409  0.11181  1.0000
  H   H1780     1.0  0.86237  0.30430  0.13347  1.0000
  H   H1781     1.0  0.86707  0.31277  0.18794  1.0000
  C   C1120     1.0  0.89487  0.25610  0.07050  1.0000
  C   C1121     1.0  0.97681  0.41119  0.26144  1.0000
  C   C1122     1.0  0.97268  0.40699  0.23076  1.0000
  H   H1782     1.0  0.93481  0.47263  0.29431  1.0000
  H   H1783     1.0  0.95972  0.40016  0.22301  1.0000
  N   N113      1.0  0.88824  0.34821  0.99672  1.0000
  N   N114      1.0  0.86388  0.38092  0.18654  1.0000
  C   C1123     1.0  0.87441  0.39666  0.17289  1.0000
  C   C1124     1.0  0.85009  0.38300  0.20158  1.0000
  C   C1125     1.0  0.87419  0.37659  0.20911  1.0000
  C   C1126     1.0  0.85698  0.36746  0.16299  1.0000
  H   H1784     1.0  0.86707  0.40042  0.15573  1.0000
  H   H1785     1.0  0.88507  0.39556  0.16171  1.0000
  H   H1786     1.0  0.87986  0.40698  0.19035  1.0000
  H   H1787     1.0  0.84201  0.37139  0.21239  1.0000
  H   H1788     1.0  0.85504  0.39300  0.21969  1.0000
  H   H1789     1.0  0.84202  0.38639  0.18533  1.0000
  H   H1790     1.0  0.86674  0.36481  0.22016  1.0000
  H   H1791     1.0  0.87965  0.38655  0.22703  1.0000
  H   H1792     1.0  0.88472  0.37484  0.19875  1.0000
  H   H1793     1.0  0.84933  0.35535  0.17285  1.0000
  H   H1794     1.0  0.86714  0.36563  0.15129  1.0000
  H   H1795     1.0  0.84892  0.37014  0.14563  1.0000
  H   H1796     1.0  0.86644  0.34349  0.02200  1.0000
  H   H1797     1.0  0.86719  0.32548  0.00453  1.0000
  H   H1798     1.0  0.98573  0.46252  0.26030  1.0000
  C   C1127     1.0  0.94190  0.25432  0.20407  1.0000
  H   H1799     1.0  0.95240  0.37138  0.31587  1.0000
  H   H1800     1.0  0.98209  0.40788  0.18646  1.0000
  S   S446      1.0  0.91951  0.40209  0.31236  1.0000
  H   H1801     1.0  0.89517  0.35144  0.04426  1.0000
  H   H1802     1.0  0.98037  0.45857  0.22053  1.0000
  H   H1803     1.0  0.95314  0.26625  0.20732  1.0000
  H   H1804     1.0  0.88855  0.37141  0.01305  1.0000
  H   H1805     1.0  0.90282  0.25496  0.11682  1.0000
  H   H1806     1.0  0.88757  0.26307  0.07591  1.0000
  C   C1128     1.0  0.87025  0.33886  0.00144  1.0000
  C   C1129     1.0  0.90353  0.25149  0.09362  1.0000
  H   H1807     1.0  0.96983  0.25239  0.18408  1.0000
  C   C1130     1.0  0.89836  0.34667  0.02316  1.0000
  H   H1808     1.0  0.88953  0.49000  0.31455  1.0000
  H   H1809     1.0  0.93551  0.25463  0.18187  1.0000
  C   C1131     1.0  0.89572  0.25169  0.04042  1.0000
  C   C1132     1.0  0.98992  0.45940  0.23867  1.0000
  H   H1810     1.0  0.98978  0.44677  0.24052  1.0000
  C   C1133     1.0  0.89168  0.36589  0.99278  1.0000
  S   S447      1.0  0.90280  0.36659  0.36880  1.0000
  H   H1811     1.0  0.88600  0.47672  0.39406  1.0000
  S   S448      1.0  0.85525  0.30410  0.44202  1.0000
  S   S449      1.0  0.85853  0.26907  0.48827  1.0000
  C   C1134     1.0  0.98974  0.26546  0.42811  1.0000
  H   H1812     1.0  0.94214  0.34770  0.36844  1.0000
  C   C1135     1.0  0.88959  0.34876  0.38824  1.0000
  C   C1136     1.0  0.87499  0.33644  0.37464  1.0000
  C   C1137     1.0  0.86476  0.32288  0.39137  1.0000
  C   C1138     1.0  0.86903  0.32127  0.42181  1.0000
  C   C1139     1.0  0.88378  0.33345  0.43525  1.0000
  C   C1140     1.0  0.89390  0.34711  0.41863  1.0000
  H   H1813     1.0  0.87142  0.33746  0.35137  1.0000
  H   H1814     1.0  0.85342  0.31360  0.38061  1.0000
  H   H1815     1.0  0.88725  0.33251  0.45862  1.0000
  H   H1816     1.0  0.90507  0.35655  0.42958  1.0000
  Fe  Fe224     1.0  0.85828  0.29447  0.48895  1.0000
  S   S450      1.0  0.83646  0.28634  0.51916  1.0000
  Fe  Fe225     1.0  0.87634  0.27774  0.52887  1.0000
  S   S451      1.0  0.85585  0.26833  0.56115  1.0000
  C   C1141     1.0  0.88446  0.32356  0.62404  1.0000
  Fe  Fe226     1.0  0.83775  0.26136  0.52031  1.0000
  C   C1142     1.0  0.89458  0.25629  0.58295  1.0000
  Fe  Fe227     1.0  0.85613  0.29401  0.55801  1.0000
  S   S452      1.0  0.85183  0.30703  0.59967  1.0000
  S   S453      1.0  0.87782  0.30392  0.52772  1.0000
  H   H1817     1.0  0.96572  0.36372  0.33670  1.0000
  H   H1818     1.0  0.89899  0.47736  0.33121  1.0000
  H   H1819     1.0  0.88675  0.26279  0.58778  1.0000
  H   H1820     1.0  0.81697  0.24784  0.43940  1.0000
  C   C1143     1.0  0.86753  0.32024  0.62640  1.0000
  H   H1821     1.0  0.80051  0.26300  0.39287  1.0000
  H   H1822     1.0  0.88823  0.31799  0.60552  1.0000
  N   N115      1.0  0.95249  0.37425  0.36406  1.0000
  H   H1823     1.0  0.94979  0.37887  0.63866  1.0000
  H   H1824     1.0  0.95828  0.37807  0.41182  1.0000
  C   C1144     1.0  0.90199  0.25816  0.55527  1.0000
  H   H1825     1.0  0.90711  0.48047  0.38571  1.0000
  C   C1145     1.0  0.96438  0.37757  0.39057  1.0000
  H   H1826     1.0  0.95682  0.39995  0.35934  1.0000
  C   C1146     1.0  0.91238  0.24990  0.54948  1.0000
  H   H1827     1.0  0.97283  0.37015  0.65587  1.0000
  H   H1828     1.0  0.79868  0.28609  0.44341  1.0000
  C   C1147     1.0  0.79398  0.25756  0.41353  1.0000
  H   H1829     1.0  0.97531  0.38967  0.38901  1.0000
  N   N116      1.0  0.80487  0.26479  0.44105  1.0000
  H   H1830     1.0  0.98780  0.27815  0.48229  1.0000
  H   H1831     1.0  0.81700  0.28908  0.42308  1.0000
  C   C1148     1.0  0.79575  0.25723  0.46790  1.0000
  H   H1832     1.0  0.98404  0.27266  0.41488  1.0000
  H   H1833     1.0  0.96924  0.36773  0.39262  1.0000
  H   H1834     1.0  0.82851  0.26690  0.46029  1.0000
  H   H1835     1.0  0.78236  0.25984  0.41362  1.0000
  H   H1836     1.0  0.87783  0.47380  0.33895  1.0000
  H   H1837     1.0  0.81805  0.28882  0.46319  1.0000
  H   H1838     1.0  0.91816  0.25133  0.52810  1.0000
  C   C1149     1.0  0.93813  0.35815  0.36708  1.0000
  C   C1150     1.0  0.89831  0.48656  0.38888  1.0000
  C   C1151     1.0  0.80977  0.28296  0.44272  1.0000
  S   S454      1.0  0.89844  0.27056  0.52735  1.0000
  C   C1152     1.0  0.89045  0.48362  0.33557  1.0000
  H   H1839     1.0  0.93984  0.38843  0.38272  1.0000
  C   C1153     1.0  0.94643  0.38763  0.36228  1.0000
  H   H1840     1.0  0.97181  0.38571  0.33320  1.0000
  H   H1841     1.0  0.93130  0.35820  0.38763  1.0000
  H   H1842     1.0  0.97976  0.25603  0.44073  1.0000
  H   H1843     1.0  0.87237  0.49416  0.37142  1.0000
  H   H1844     1.0  0.80371  0.26214  0.48908  1.0000
  H   H1845     1.0  0.78429  0.25966  0.46978  1.0000
  C   C1154     1.0  0.89655  0.33419  0.64558  1.0000
  C   C1155     1.0  0.86286  0.32759  0.65071  1.0000
  H   H1846     1.0  0.84980  0.32517  0.65259  1.0000
  H   H1847     1.0  0.90312  0.49520  0.40901  1.0000
  H   H1848     1.0  0.82736  0.26697  0.42015  1.0000
  C   C1156     1.0  0.96100  0.37369  0.33633  1.0000
  C   C1157     1.0  0.82005  0.26140  0.44001  1.0000
  H   H1849     1.0  0.93732  0.38536  0.34274  1.0000
  H   H1850     1.0  0.90959  0.33668  0.64337  1.0000
  H   H1851     1.0  0.92881  0.35533  0.34757  1.0000
  H   H1852     1.0  0.88260  0.48423  0.64898  1.0000
  N   N117      1.0  0.89678  0.49547  0.36179  1.0000
  C   C1158     1.0  0.89766  0.24631  0.60477  1.0000
  H   H1853     1.0  0.97717  0.39976  0.65869  1.0000
  Fe  Fe228     1.0  0.93701  0.39131  0.78285  1.0000
  S   S455      1.0  0.92266  0.39709  0.74478  1.0000
  S   S456      1.0  0.96522  0.39961  0.78875  1.0000
  Fe  Fe229     1.0  0.90490  0.36455  0.80837  1.0000
  S   S457      1.0  0.88841  0.36855  0.77149  1.0000
  S   S458      1.0  0.89878  0.34256  0.83993  1.0000
  Fe  Fe230     1.0  0.90781  0.36938  0.73911  1.0000
  S   S459      1.0  0.90788  0.35512  0.69572  1.0000
  Fe  Fe231     1.0  0.90464  0.39609  0.78019  1.0000
  S   S460      1.0  0.89213  0.41427  0.78529  1.0000
  S   S461      1.0  0.92331  0.36390  0.77526  1.0000
  S   S462      1.0  0.91998  0.39188  0.81902  1.0000
  S   S463      1.0  0.85011  0.30675  0.94483  1.0000
  H   H1854     1.0  0.86222  0.33951  0.98172  1.0000
  H   H1855     1.0  0.96162  0.42183  0.74360  1.0000
  C   C1159     1.0  0.90192  0.43614  0.78114  1.0000
  C   C1160     1.0  0.91765  0.44375  0.76924  1.0000
  C   C1161     1.0  0.92472  0.46103  0.76522  1.0000
  C   C1162     1.0  0.91634  0.47101  0.77347  1.0000
  C   C1163     1.0  0.90065  0.46346  0.78559  1.0000
  C   C1164     1.0  0.89346  0.44611  0.78921  1.0000
  H   H1856     1.0  0.92431  0.43629  0.76287  1.0000
  H   H1857     1.0  0.93682  0.46670  0.75570  1.0000
  H   H1858     1.0  0.89400  0.47092  0.79193  1.0000
  H   H1859     1.0  0.88128  0.44035  0.79842  1.0000
  C   C1165     1.0  0.88017  0.48938  0.67039  1.0000
  C   C1166     1.0  0.94559  0.37643  0.66201  1.0000
  H   H1860     1.0  0.87594  0.29602  0.77759  1.0000
  H   H1861     1.0  0.94402  0.36547  0.71784  1.0000
  H   H1862     1.0  0.93673  0.36316  0.66244  1.0000
  C   C1167     1.0  0.88517  0.33307  0.86930  1.0000
  C   C1168     1.0  0.87148  0.33674  0.87555  1.0000
  C   C1169     1.0  0.86076  0.32836  0.89833  1.0000
  C   C1170     1.0  0.86368  0.31637  0.91549  1.0000
  C   C1171     1.0  0.87744  0.31278  0.90935  1.0000
  C   C1172     1.0  0.88800  0.32098  0.88630  1.0000
  H   H1863     1.0  0.86905  0.34594  0.86270  1.0000
  H   H1864     1.0  0.85018  0.33127  0.90283  1.0000
  H   H1865     1.0  0.87989  0.30360  0.92223  1.0000
  H   H1866     1.0  0.89851  0.31797  0.88167  1.0000
  N   N118      1.0  0.89205  0.48947  0.69524  1.0000
  C   C1173     1.0  0.97937  0.41347  0.76454  1.0000
  C   C1174     1.0  0.97432  0.42269  0.74413  1.0000
  H   H1867     1.0  0.96847  0.25356  0.72298  1.0000
  C   C1175     1.0  0.87497  0.33828  0.67224  1.0000
  C   C1176     1.0  0.95372  0.37822  0.71508  1.0000
  H   H1868     1.0  0.98263  0.40119  0.69839  1.0000
  H   H1869     1.0  0.96404  0.38052  0.73256  1.0000
  H   H1870     1.0  0.95948  0.35584  0.68160  1.0000
  H   H1871     1.0  0.89930  0.47206  0.71878  1.0000
  H   H1872     1.0  0.86700  0.48174  0.67566  1.0000
  C   C1177     1.0  0.89191  0.34167  0.66969  1.0000
  H   H1873     1.0  0.97915  0.37183  0.69533  1.0000
  H   H1874     1.0  0.88932  0.32786  0.97083  1.0000
  H   H1875     1.0  0.89265  0.46640  0.67997  1.0000
  H   H1876     1.0  0.87792  0.31052  0.80791  1.0000
  N   N119      1.0  0.95986  0.38034  0.68433  1.0000
  H   H1877     1.0  0.96588  0.40651  0.68462  1.0000
  H   H1878     1.0  0.88464  0.33589  0.74013  1.0000
  H   H1879     1.0  0.88413  0.36742  0.97308  1.0000
  H   H1880     1.0  0.98178  0.44020  0.70859  1.0000
  H   H1881     1.0  0.90631  0.34757  0.96589  1.0000
  H   H1882     1.0  0.89130  0.31929  0.74439  1.0000
  H   H1883     1.0  0.89368  0.33326  0.77576  1.0000
  H   H1884     1.0  0.94798  0.38705  0.72041  1.0000
  N   N120      1.0  0.86845  0.31566  0.76550  1.0000
  C   C1178     1.0  0.86078  0.32593  0.77984  1.0000
  C   C1179     1.0  0.85785  0.30647  0.73875  1.0000
  C   C1180     1.0  0.87001  0.30385  0.78744  1.0000
  C   C1181     1.0  0.88524  0.32649  0.75603  1.0000
  H   H1885     1.0  0.85923  0.33489  0.76388  1.0000
  H   H1886     1.0  0.86866  0.33327  0.79979  1.0000
  H   H1887     1.0  0.84823  0.31816  0.78785  1.0000
  H   H1888     1.0  0.86329  0.29862  0.72735  1.0000
  H   H1889     1.0  0.84502  0.29823  0.74493  1.0000
  H   H1890     1.0  0.85661  0.31512  0.72171  1.0000
  H   H1891     1.0  0.85759  0.29547  0.79519  1.0000
  H   H1892     1.0  0.94909  0.26178  0.69129  1.0000
  H   H1893     1.0  0.88593  0.34321  0.94886  1.0000
  C   C1182     1.0  0.89268  0.34144  0.96943  1.0000
  H   H1894     1.0  0.87123  0.34410  0.69042  1.0000
  H   H1895     1.0  0.90511  0.37327  0.98882  1.0000
  C   C1183     1.0  0.89024  0.47231  0.70049  1.0000
  C   C1184     1.0  0.98579  0.43315  0.72441  1.0000
  H   H1896     1.0  0.87749  0.46433  0.70744  1.0000
  C   C1185     1.0  0.96821  0.36902  0.67900  1.0000
  C   C1186     1.0  0.97191  0.39769  0.68132  1.0000
  Fe  Fe232     1.0  0.85234  0.29119  0.98471  1.0000
  H   H1897     1.0  0.94507  0.25793  0.74631  1.0000
  H   H1898     1.0  0.87543  0.48943  0.72952  1.0000
  S   S464      1.0  0.92554  0.49252  0.76573  1.0000
  H   H1899     1.0  0.91254  0.49462  0.66644  1.0000
  S   S465      1.0  0.84494  0.26355  0.98823  1.0000
  H   H1900     1.0  0.92782  0.24716  0.68293  1.0000
  H   H1901     1.0  0.93825  0.38393  0.66680  1.0000
  C   C1187     1.0  0.94090  0.24836  0.68753  1.0000
  H   H1902     1.0  0.77719  0.64402  0.10885  1.0000
  S   S466      1.0  0.84542  0.56482  0.02175  1.0000
  Fe  Fe233     1.0  0.87514  0.61143  0.01740  1.0000
  S   S467      1.0  0.86022  0.60155  0.05791  1.0000
  H   H1903     1.0  0.73083  0.55564  0.01169  1.0000
  Fe  Fe234     1.0  0.86792  0.57994  0.05279  1.0000
  S   S468      1.0  0.88208  0.56849  0.08320  1.0000
  Fe  Fe235     1.0  0.83883  0.58713  0.02382  1.0000
  H   H1904     1.0  0.75690  0.73219  0.18058  1.0000
  S   S469      1.0  0.88441  0.59119  0.01442  1.0000
  Fe  Fe236     1.0  0.93643  0.72338  0.10265  1.0000
  S   S470      1.0  0.92308  0.69568  0.10980  1.0000
  Fe  Fe237     1.0  0.89702  0.53984  0.24665  1.0000
  S   S471      1.0  0.91161  0.56237  0.27671  1.0000
  S   S472      1.0  0.87599  0.54166  0.21673  1.0000
  Fe  Fe238     1.0  0.91615  0.52012  0.27246  1.0000
  H   H1905     1.0  0.76924  0.61698  0.02469  1.0000
  H   H1906     1.0  0.74922  0.71170  0.16313  1.0000
  Fe  Fe239     1.0  0.93399  0.55788  0.26340  1.0000
  S   S473      1.0  0.95667  0.58134  0.25347  1.0000
  S   S474      1.0  0.89237  0.52214  0.28508  1.0000
  S   S475      1.0  0.91956  0.53610  0.23156  1.0000
  C   C1188     1.0  0.75554  0.72227  0.23796  1.0000
  S   S476      1.0  0.69458  0.55626  0.04391  1.0000
  Fe  Fe240     1.0  0.71315  0.60391  0.03782  1.0000
  S   S477      1.0  0.71321  0.59191  0.08206  1.0000
  S   S478      1.0  0.72665  0.63129  0.02887  1.0000
  Fe  Fe241     1.0  0.72110  0.57476  0.05471  1.0000
  S   S479      1.0  0.74203  0.56735  0.07173  1.0000
  Fe  Fe242     1.0  0.68669  0.57452  0.06748  1.0000
  H   H1907     1.0  0.75636  0.58598  0.01883  1.0000
  S   S480      1.0  0.72238  0.58762  0.01140  1.0000
  S   S481      1.0  0.68604  0.58794  0.02469  1.0000
  S   S482      1.0  0.79854  0.73245  0.14172  1.0000
  S   S483      1.0  0.76324  0.73403  0.11434  1.0000
  Fe  Fe243     1.0  0.77554  0.71605  0.11369  1.0000
  S   S484      1.0  0.76157  0.68958  0.12821  1.0000
  S   S485      1.0  0.78771  0.72496  0.07060  1.0000
  C   C1189     1.0  0.73547  0.64734  0.05703  1.0000
  C   C1190     1.0  0.73400  0.64424  0.08780  1.0000
  C   C1191     1.0  0.74201  0.65730  0.10943  1.0000
  C   C1192     1.0  0.75139  0.67353  0.10048  1.0000
  C   C1193     1.0  0.75272  0.67661  0.06974  1.0000
  C   C1194     1.0  0.74482  0.66357  0.04815  1.0000
  H   H1908     1.0  0.72670  0.63183  0.09494  1.0000
  H   H1909     1.0  0.74084  0.65482  0.13317  1.0000
  H   H1910     1.0  0.75983  0.68905  0.06254  1.0000
  H   H1911     1.0  0.74597  0.66607  0.02440  1.0000
  H   H1912     1.0  0.75346  0.60345  0.06882  1.0000
  H   H1913     1.0  0.92332  0.60151  0.15215  1.0000
  H   H1914     1.0  0.78358  0.60972  0.06850  1.0000
  H   H1915     1.0  0.86765  0.67471  0.08071  1.0000
  S   S486      1.0  0.93248  0.54202  0.30287  1.0000
  H   H1916     1.0  0.68436  0.56761  0.14515  1.0000
  S   S487      1.0  0.89160  0.63824  0.00810  1.0000
  H   H1917     1.0  0.94244  0.58507  0.19105  1.0000
  H   H1918     1.0  0.85612  0.70239  0.09956  1.0000
  H   H1919     1.0  0.96392  0.55548  0.22304  1.0000
  H   H1920     1.0  0.77477  0.70917  0.18499  1.0000
  H   H1921     1.0  0.86646  0.71632  0.07093  1.0000
  C   C1195     1.0  0.79378  0.58267  0.03217  1.0000
  C   C1196     1.0  0.78148  0.58706  0.01803  1.0000
  C   C1197     1.0  0.76560  0.58239  0.02980  1.0000
  C   C1198     1.0  0.76180  0.57325  0.05591  1.0000
  C   C1199     1.0  0.77403  0.56876  0.06997  1.0000
  C   C1200     1.0  0.78996  0.57345  0.05820  1.0000
  H   H1922     1.0  0.77122  0.56167  0.09017  1.0000
  H   H1923     1.0  0.79928  0.56998  0.06931  1.0000
  C   C1201     1.0  0.87987  0.56101  0.12032  1.0000
  C   C1202     1.0  0.89169  0.55532  0.13233  1.0000
  C   C1203     1.0  0.89062  0.54928  0.16171  1.0000
  C   C1204     1.0  0.87765  0.54882  0.17941  1.0000
  C   C1205     1.0  0.86573  0.55436  0.16731  1.0000
  C   C1206     1.0  0.86687  0.56051  0.13798  1.0000
  H   H1924     1.0  0.90174  0.55555  0.11880  1.0000
  H   H1925     1.0  0.89971  0.54482  0.17056  1.0000
  H   H1926     1.0  0.85559  0.55397  0.18078  1.0000
  H   H1927     1.0  0.85765  0.56478  0.12901  1.0000
  C   C1207     1.0  0.90063  0.65396  0.03672  1.0000
  C   C1208     1.0  0.89819  0.65062  0.06719  1.0000
  C   C1209     1.0  0.90549  0.66349  0.08932  1.0000
  C   C1210     1.0  0.91519  0.67980  0.08118  1.0000
  C   C1211     1.0  0.91768  0.68315  0.05072  1.0000
  C   C1212     1.0  0.91040  0.67026  0.02860  1.0000
  H   H1928     1.0  0.89074  0.63810  0.07368  1.0000
  H   H1929     1.0  0.90355  0.66080  0.11285  1.0000
  H   H1930     1.0  0.92522  0.69563  0.04419  1.0000
  S   S488      1.0  0.92719  0.73866  0.07306  1.0000
  H   H1931     1.0  0.73289  0.69236  0.21667  1.0000
  H   H1932     1.0  0.94330  0.61205  0.17228  1.0000
  C   C1213     1.0  0.88965  0.53229  0.03256  1.0000
  H   H1933     1.0  0.75691  0.61487  0.10402  1.0000
  H   H1934     1.0  0.76209  0.63329  0.02879  1.0000
  C   C1214     1.0  0.86553  0.53691  0.01434  1.0000
  N   N121      1.0  0.92412  0.59507  0.19853  1.0000
  H   H1935     1.0  0.74664  0.68782  0.19276  1.0000
  H   H1936     1.0  0.77948  0.71176  0.22502  1.0000
  H   H1937     1.0  0.91240  0.67290  0.00505  1.0000
  N   N122      1.0  0.75623  0.71301  0.21036  1.0000
  C   C1215     1.0  0.77381  0.71594  0.20571  1.0000
  C   C1216     1.0  0.74933  0.71880  0.18417  1.0000
  S   S489      1.0  0.96374  0.73902  0.09740  1.0000
  C   C1217     1.0  0.74627  0.69505  0.21339  1.0000
  H   H1938     1.0  0.78168  0.72938  0.20311  1.0000
  H   H1939     1.0  0.74657  0.61993  0.07233  1.0000
  H   H1940     1.0  0.73625  0.71730  0.18721  1.0000
  H   H1941     1.0  0.78949  0.65377  0.07768  1.0000
  Fe  Fe244     1.0  0.77722  0.74440  0.07274  1.0000
  H   H1942     1.0  0.86565  0.54391  0.03550  1.0000
  H   H1943     1.0  0.65762  0.54887  0.03419  1.0000
  H   H1944     1.0  0.67834  0.56147  0.19881  1.0000
  H   H1945     1.0  0.88191  0.51889  0.03557  1.0000
  C   C1218     1.0  0.66818  0.55982  0.18247  1.0000
  H   H1946     1.0  0.72018  0.53366  0.00511  1.0000
  H   H1947     1.0  0.78434  0.59421  0.99789  1.0000
  N   N123      1.0  0.87913  0.70134  0.08694  1.0000
  C   C1219     1.0  0.88938  0.71381  0.11051  1.0000
  C   C1220     1.0  0.87489  0.68450  0.09819  1.0000
  C   C1221     1.0  0.88872  0.70341  0.05964  1.0000
  C   C1222     1.0  0.86362  0.70370  0.07943  1.0000
  H   H1948     1.0  0.90089  0.71200  0.11757  1.0000
  H   H1949     1.0  0.88237  0.71320  0.13101  1.0000
  H   H1950     1.0  0.89354  0.72661  0.10226  1.0000
  H   H1951     1.0  0.79875  0.63077  0.07097  1.0000
  H   H1952     1.0  0.78414  0.63821  0.02808  1.0000
  H   H1953     1.0  0.86744  0.68239  0.11851  1.0000
  H   H1954     1.0  0.88188  0.69359  0.04196  1.0000
  H   H1955     1.0  0.90094  0.70269  0.06495  1.0000
  H   H1956     1.0  0.89150  0.71569  0.04968  1.0000
  H   H1957     1.0  0.85561  0.69450  0.06168  1.0000
  H   H1958     1.0  0.85709  0.52368  0.01710  1.0000
  H   H1959     1.0  0.88640  0.68254  0.10467  1.0000
  H   H1960     1.0  0.89906  0.58349  0.17843  1.0000
  Fe  Fe245     1.0  0.69523  0.57055  0.00201  1.0000
  C   C1223     1.0  0.67164  0.56332  0.15201  1.0000
  S   S490      1.0  0.93604  0.73762  0.14451  1.0000
  C   C1224     1.0  0.75682  0.61606  0.07912  1.0000
  H   H1961     1.0  0.92300  0.57500  0.16907  1.0000
  H   H1962     1.0  0.78744  0.62140  0.10339  1.0000
  C   C1225     1.0  0.92953  0.60722  0.17447  1.0000
  C   C1226     1.0  0.97339  0.58186  0.23202  1.0000
  H   H1963     1.0  0.92633  0.61802  0.17908  1.0000
  H   H1964     1.0  0.65852  0.55059  0.99411  1.0000
  H   H1965     1.0  0.76053  0.71816  0.25827  1.0000
  C   C1227     1.0  0.97402  0.56741  0.21983  1.0000
  H   H1966     1.0  0.92420  0.57132  0.20859  1.0000
  S   S491      1.0  0.81361  0.58935  0.01633  1.0000
  H   H1967     1.0  0.90107  0.57908  0.21734  1.0000
  H   H1968     1.0  0.92876  0.59425  0.24629  1.0000
  N   N124      1.0  0.77311  0.62801  0.06943  1.0000
  C   C1228     1.0  0.93255  0.60313  0.22770  1.0000
  H   H1969     1.0  0.89475  0.56382  0.02604  1.0000
  C   C1229     1.0  0.77707  0.64453  0.08382  1.0000
  S   S492      1.0  0.66222  0.56547  0.09182  1.0000
  H   H1970     1.0  0.89019  0.53903  0.05436  1.0000
  H   H1971     1.0  0.74251  0.72067  0.24189  1.0000
  H   H1972     1.0  0.75111  0.69019  0.23289  1.0000
  H   H1973     1.0  0.92951  0.61383  0.23387  1.0000
  C   C1230     1.0  0.77214  0.62919  0.03629  1.0000
  C   C1231     1.0  0.78632  0.62228  0.07848  1.0000
  H   H1974     1.0  0.76765  0.64945  0.07665  1.0000
  H   H1975     1.0  0.90197  0.59906  0.20712  1.0000
  C   C1232     1.0  0.92862  0.58100  0.19144  1.0000
  H   H1976     1.0  0.94642  0.60773  0.22715  1.0000
  C   C1233     1.0  0.90578  0.58893  0.20048  1.0000
  Fe  Fe246     1.0  0.90875  0.54463  0.31399  1.0000
  H   H1977     1.0  0.70927  0.73870  0.00047  1.0000
  S   S493      1.0  0.92301  0.49786  0.28081  1.0000
  H   H1978     1.0  0.90261  0.53373  0.02842  1.0000
  C   C1234     1.0  0.65864  0.56126  0.13061  1.0000
  H   H1979     1.0  0.76314  0.73583  0.23631  1.0000
  S   S494      1.0  0.76525  0.74525  0.02623  1.0000
  N   N125      1.0  0.88260  0.53883  0.00762  1.0000
  C   C1235     1.0  0.72263  0.54586  0.99505  1.0000
  C   C1236     1.0  0.89333  0.55659  0.00454  1.0000
  H   H1980     1.0  0.98604  0.60853  0.23654  1.0000
  C   C1237     1.0  0.98655  0.59727  0.22749  1.0000
  H   H1981     1.0  0.79382  0.74039  0.00671  1.0000
  Fe  Fe247     1.0  0.80996  0.74304  0.09843  1.0000
  H   H1982     1.0  0.81297  0.74021  0.02257  1.0000
  C   C1238     1.0  0.98777  0.56840  0.20341  1.0000
  H   H1983     1.0  0.98813  0.55717  0.19395  1.0000
  C   C1239     1.0  0.80736  0.74428  0.00297  1.0000
  H   H1984     1.0  0.85980  0.54167  0.99591  1.0000
  H   H1985     1.0  0.90609  0.55853  0.99799  1.0000
  H   H1986     1.0  0.71047  0.54709  0.99257  1.0000
  S   S495      1.0  0.86111  0.56964  0.44960  1.0000
  S   S496      1.0  0.85480  0.60106  0.50475  1.0000
  S   S497      1.0  0.93118  0.73946  0.56958  1.0000
  S   S498      1.0  0.68152  0.58385  0.46562  1.0000
  H   H1987     1.0  0.82667  0.69397  0.54913  1.0000
  H   H1988     1.0  0.82907  0.72364  0.62774  1.0000
  H   H1989     1.0  0.74502  0.57438  0.44257  1.0000
  C   C1240     1.0  0.88508  0.50344  0.36691  1.0000
  H   H1990     1.0  0.81867  0.55238  0.52446  1.0000
  H   H1991     1.0  0.78785  0.57279  0.59102  1.0000
  H   H1992     1.0  0.76124  0.57430  0.57260  1.0000
  C   C1241     1.0  0.87462  0.56462  0.42610  1.0000
  C   C1242     1.0  0.88951  0.56390  0.43744  1.0000
  C   C1243     1.0  0.89924  0.55885  0.41836  1.0000
  C   C1244     1.0  0.89447  0.55476  0.38754  1.0000
  C   C1245     1.0  0.87971  0.55571  0.37609  1.0000
  C   C1246     1.0  0.86980  0.56045  0.39530  1.0000
  H   H1993     1.0  0.89340  0.56696  0.46103  1.0000
  H   H1994     1.0  0.91058  0.55814  0.42760  1.0000
  H   H1995     1.0  0.87576  0.55255  0.35254  1.0000
  H   H1996     1.0  0.85833  0.56091  0.38618  1.0000
  Fe  Fe248     1.0  0.86621  0.58251  0.49679  1.0000
  S   S499      1.0  0.85565  0.56821  0.53808  1.0000
  Fe  Fe249     1.0  0.87842  0.61605  0.53286  1.0000
  S   S500      1.0  0.86844  0.60411  0.57611  1.0000
  S   S501      1.0  0.89301  0.64352  0.52522  1.0000
  Fe  Fe250     1.0  0.87924  0.58574  0.56369  1.0000
  S   S502      1.0  0.89838  0.58052  0.59382  1.0000
  Fe  Fe251     1.0  0.84549  0.58765  0.54712  1.0000
  S   S503      1.0  0.81906  0.57940  0.56424  1.0000
  S   S504      1.0  0.89048  0.59865  0.52151  1.0000
  Fe  Fe252     1.0  0.93912  0.72939  0.61038  1.0000
  S   S505      1.0  0.92851  0.70237  0.62363  1.0000
  Fe  Fe253     1.0  0.69416  0.58302  0.51182  1.0000
  S   S506      1.0  0.70206  0.56322  0.52897  1.0000
  Fe  Fe254     1.0  0.71383  0.60726  0.56509  1.0000
  S   S507      1.0  0.72339  0.58918  0.58476  1.0000
  S   S508      1.0  0.71784  0.63102  0.59147  1.0000
  Fe  Fe255     1.0  0.72798  0.58369  0.53706  1.0000
  S   S509      1.0  0.75078  0.58316  0.51385  1.0000
  Fe  Fe256     1.0  0.69675  0.57049  0.57534  1.0000
  S   S510      1.0  0.68440  0.55232  0.61215  1.0000
  S   S511      1.0  0.72018  0.60327  0.51828  1.0000
  S   S512      1.0  0.68705  0.58880  0.55749  1.0000
  H   H1997     1.0  0.71594  0.58191  0.38671  1.0000
  H   H1998     1.0  0.73456  0.72661  0.43058  1.0000
  Fe  Fe257     1.0  0.78309  0.72482  0.59763  1.0000
  S   S513      1.0  0.77927  0.70012  0.57492  1.0000
  C   C1247     1.0  0.70610  0.72845  0.44740  1.0000
  C   C1248     1.0  0.73494  0.65014  0.58644  1.0000
  C   C1249     1.0  0.74741  0.65139  0.56683  1.0000
  C   C1250     1.0  0.76089  0.66680  0.56357  1.0000
  C   C1251     1.0  0.76201  0.68109  0.57978  1.0000
  C   C1252     1.0  0.74957  0.67984  0.59945  1.0000
  C   C1253     1.0  0.73610  0.66441  0.60278  1.0000
  H   H1999     1.0  0.74666  0.64050  0.55417  1.0000
  H   H2000     1.0  0.77046  0.66766  0.54830  1.0000
  H   H2001     1.0  0.75030  0.69075  0.61204  1.0000
  H   H2002     1.0  0.72651  0.66355  0.61797  1.0000
  H   H2003     1.0  0.72093  0.56468  0.47445  1.0000
  H   H2004     1.0  0.82498  0.70205  0.63112  1.0000
  C   C1254     1.0  0.93367  0.61420  0.57108  1.0000
  H   H2005     1.0  0.85101  0.70664  0.60531  1.0000
  H   H2006     1.0  0.94515  0.61740  0.55836  1.0000
  C   C1255     1.0  0.91338  0.50834  0.35578  1.0000
  H   H2007     1.0  0.79892  0.53807  0.43369  1.0000
  C   C1256     1.0  0.80066  0.58177  0.55045  1.0000
  C   C1257     1.0  0.78686  0.57714  0.56868  1.0000
  C   C1258     1.0  0.77172  0.57801  0.55830  1.0000
  C   C1259     1.0  0.77005  0.58321  0.52921  1.0000
  C   C1260     1.0  0.78385  0.58781  0.51092  1.0000
  C   C1261     1.0  0.79912  0.58731  0.52157  1.0000
  H   H2008     1.0  0.78277  0.59194  0.48844  1.0000
  H   H2009     1.0  0.80966  0.59115  0.50743  1.0000
  C   C1262     1.0  0.89600  0.57094  0.62923  1.0000
  H   H2010     1.0  0.68251  0.59692  0.65264  1.0000
  H   H2011     1.0  0.71582  0.59488  0.45106  1.0000
  H   H2012     1.0  0.86968  0.56493  0.63130  1.0000
  H   H2013     1.0  0.82359  0.56470  0.44471  1.0000
  C   C1263     1.0  0.90195  0.65974  0.55312  1.0000
  C   C1264     1.0  0.90060  0.65683  0.58395  1.0000
  C   C1265     1.0  0.90878  0.66999  0.60536  1.0000
  C   C1266     1.0  0.91806  0.68620  0.59613  1.0000
  C   C1267     1.0  0.91916  0.68912  0.56530  1.0000
  C   C1268     1.0  0.91123  0.67594  0.54395  1.0000
  H   H2014     1.0  0.89323  0.64448  0.59125  1.0000
  H   H2015     1.0  0.90774  0.66764  0.62916  1.0000
  H   H2016     1.0  0.92632  0.70151  0.55786  1.0000
  H   H2017     1.0  0.91234  0.67830  0.52015  1.0000
  H   H2018     1.0  0.80803  0.69072  0.56830  1.0000
  H   H2019     1.0  0.79892  0.55255  0.51297  1.0000
  H   H2020     1.0  0.85500  0.72816  0.60178  1.0000
  C   C1269     1.0  0.79611  0.53789  0.45791  1.0000
  H   H2021     1.0  0.78727  0.54400  0.46033  1.0000
  H   H2022     1.0  0.78949  0.52469  0.46389  1.0000
  H   H2023     1.0  0.81719  0.52481  0.47983  1.0000
  C   C1270     1.0  0.66189  0.56403  0.63514  1.0000
  H   H2024     1.0  0.70828  0.55027  0.44498  1.0000
  C   C1271     1.0  0.80729  0.54604  0.50917  1.0000
  H   H2025     1.0  0.66520  0.57279  0.61727  1.0000
  H   H2026     1.0  0.82677  0.53841  0.44984  1.0000
  C   C1272     1.0  0.71259  0.56328  0.45392  1.0000
  C   C1273     1.0  0.73618  0.57270  0.42258  1.0000
  H   H2027     1.0  0.73261  0.55993  0.41284  1.0000
  H   H2028     1.0  0.73536  0.59457  0.46448  1.0000
  N   N126      1.0  0.81157  0.54642  0.47729  1.0000
  C   C1274     1.0  0.82300  0.53801  0.47354  1.0000
  H   H2029     1.0  0.91656  0.61602  0.61807  1.0000
  S   S514      1.0  0.96647  0.74401  0.60404  1.0000
  C   C1275     1.0  0.81991  0.56383  0.46851  1.0000
  H   H2030     1.0  0.67020  0.58592  0.40491  1.0000
  C   C1276     1.0  0.84836  0.71558  0.59080  1.0000
  C   C1277     1.0  0.66912  0.55251  0.63721  1.0000
  H   H2031     1.0  0.74314  0.58166  0.40557  1.0000
  N   N127      1.0  0.72131  0.57537  0.43122  1.0000
  H   H2032     1.0  0.70135  0.56497  0.46111  1.0000
  H   H2033     1.0  0.80091  0.53312  0.51672  1.0000
  H   H2034     1.0  0.83482  0.54423  0.48781  1.0000
  H   H2035     1.0  0.81370  0.72001  0.56247  1.0000
  H   H2036     1.0  0.83160  0.57047  0.48268  1.0000
  C   C1278     1.0  0.72670  0.59243  0.44413  1.0000
  H   H2037     1.0  0.69993  0.72792  0.42460  1.0000
  H   H2038     1.0  0.85412  0.71570  0.56894  1.0000
  C   C1279     1.0  0.82732  0.72340  0.56725  1.0000
  H   H2039     1.0  0.88380  0.51046  0.34704  1.0000
  H   H2040     1.0  0.81181  0.57071  0.47117  1.0000
  H   H2041     1.0  0.73334  0.60190  0.42766  1.0000
  C   C1280     1.0  0.69544  0.60449  0.64614  1.0000
  H   H2042     1.0  0.94561  0.65052  0.61189  1.0000
  C   C1281     1.0  0.82312  0.71119  0.61603  1.0000
  C   C1282     1.0  0.70979  0.57307  0.40445  1.0000
  H   H2043     1.0  0.70523  0.56025  0.39435  1.0000
  H   H2044     1.0  0.83305  0.72425  0.54518  1.0000
  N   N128      1.0  0.83017  0.71114  0.58644  1.0000
  H   H2045     1.0  0.94766  0.63179  0.62256  1.0000
  H   H2046     1.0  0.95841  0.64299  0.59105  1.0000
  H   H2047     1.0  0.69855  0.57517  0.41048  1.0000
  C   C1283     1.0  0.94656  0.63907  0.60293  1.0000
  H   H2048     1.0  0.90521  0.61722  0.58435  1.0000
  H   H2049     1.0  0.92259  0.50288  0.35153  1.0000
  H   H2050     1.0  0.82371  0.68483  0.58548  1.0000
  H   H2051     1.0  0.70857  0.58178  0.64656  1.0000
  S   S515      1.0  0.90685  0.54756  0.36510  1.0000
  C   C1284     1.0  0.91653  0.62425  0.59932  1.0000
  H   H2052     1.0  0.92957  0.65082  0.56480  1.0000
  H   H2053     1.0  0.66144  0.54788  0.46925  1.0000
  C   C1285     1.0  0.66721  0.56838  0.43982  1.0000
  H   H2054     1.0  0.92278  0.60646  0.55570  1.0000
  H   H2055     1.0  0.70628  0.71607  0.45120  1.0000
  C   C1286     1.0  0.93082  0.63933  0.55696  1.0000
  N   N129      1.0  0.93191  0.62922  0.58255  1.0000
  C   C1287     1.0  0.66388  0.57310  0.41095  1.0000
  H   H2056     1.0  0.93424  0.60613  0.58978  1.0000
  H   H2057     1.0  0.69800  0.73055  0.46411  1.0000
  C   C1288     1.0  0.82181  0.69443  0.57168  1.0000
  N   N130      1.0  0.72318  0.74178  0.44988  1.0000
  C   C1289     1.0  0.88061  0.56426  0.64258  1.0000
  H   H2058     1.0  0.80941  0.70793  0.61347  1.0000
  C   C1290     1.0  0.65905  0.55174  0.44717  1.0000
  H   H2059     1.0  0.94209  0.64316  0.54349  1.0000
  H   H2060     1.0  0.91972  0.63237  0.54136  1.0000
  C   C1291     1.0  0.91007  0.56994  0.64427  1.0000
  H   H2061     1.0  0.69682  0.59989  0.62338  1.0000
  S   S516      1.0  0.79595  0.73194  0.64353  1.0000
  S   S517      1.0  0.76567  0.73722  0.60667  1.0000
  H   H2062     1.0  0.91851  0.51777  0.37474  1.0000
  H   H2063     1.0  0.91502  0.63522  0.60910  1.0000
  H   H2064     1.0  0.69669  0.61750  0.64376  1.0000
  H   H2065     1.0  0.83271  0.73602  0.57838  1.0000
  H   H2066     1.0  0.72755  0.61109  0.63700  1.0000
  C   C1292     1.0  0.73094  0.74227  0.48039  1.0000
  H   H2067     1.0  0.73188  0.73033  0.48537  1.0000
  H   H2068     1.0  0.92204  0.57504  0.63414  1.0000
  H   H2069     1.0  0.72371  0.74491  0.49817  1.0000
  H   H2070     1.0  0.88961  0.51261  0.38637  1.0000
  H   H2071     1.0  0.72797  0.73821  0.40384  1.0000
  C   C1293     1.0  0.73345  0.73860  0.42713  1.0000
  H   H2072     1.0  0.91256  0.51513  0.33542  1.0000
  H   H2073     1.0  0.72643  0.62776  0.65865  1.0000
  S   S518      1.0  0.86015  0.56026  0.94255  1.0000
  H   H2074     1.0  0.88425  0.59106  0.83249  1.0000
  Fe  Fe258     1.0  0.91136  0.54286  0.75115  1.0000
  S   S519      1.0  0.92851  0.56310  0.78364  1.0000
  S   S520      1.0  0.89096  0.54545  0.72042  1.0000
  Fe  Fe259     1.0  0.92260  0.51665  0.77702  1.0000
  S   S521      1.0  0.93994  0.53502  0.81191  1.0000
  Fe  Fe260     1.0  0.91954  0.54392  0.81895  1.0000
  S   S522      1.0  0.91752  0.55419  0.86569  1.0000
  Fe  Fe261     1.0  0.94776  0.55298  0.77461  1.0000
  S   S523      1.0  0.97604  0.56698  0.77762  1.0000
  S   S524      1.0  0.90127  0.52395  0.78701  1.0000
  S   S525      1.0  0.93137  0.53433  0.73907  1.0000
  S   S526      1.0  0.68619  0.55526  0.95741  1.0000
  H   H2075     1.0  0.97148  0.70945  0.73238  1.0000
  H   H2076     1.0  0.98661  0.74455  0.68118  1.0000
  H   H2077     1.0  0.74266  0.57398  0.96951  1.0000
  C   C1294     1.0  0.72500  0.61463  0.65977  1.0000
  C   C1295     1.0  0.98348  0.58225  0.72280  1.0000
  C   C1296     1.0  0.90935  0.49965  0.68721  1.0000
  H   H2078     1.0  0.87302  0.54648  0.81460  1.0000
  H   H2079     1.0  0.88473  0.54973  0.78143  1.0000
  H   H2080     1.0  0.91175  0.58413  0.80368  1.0000
  H   H2081     1.0  0.97017  0.57695  0.71696  1.0000
  N   N131      1.0  0.73039  0.54734  0.96580  1.0000
  H   H2082     1.0  0.87265  0.57020  0.84391  1.0000
  H   H2083     1.0  0.68220  0.74013  0.93429  1.0000
  C   C1297     1.0  0.89339  0.55553  0.68551  1.0000
  H   H2084     1.0  0.72173  0.74000  0.96886  1.0000
  H   H2085     1.0  0.74410  0.53276  0.97888  1.0000
  H   H2086     1.0  0.69252  0.60064  0.70578  1.0000
  C   C1298     1.0  0.87622  0.55941  0.92041  1.0000
  C   C1299     1.0  0.89303  0.57019  0.92591  1.0000
  C   C1300     1.0  0.90544  0.56838  0.90889  1.0000
  C   C1301     1.0  0.90121  0.55600  0.88580  1.0000
  C   C1302     1.0  0.88437  0.54534  0.88002  1.0000
  C   C1303     1.0  0.87196  0.54705  0.89725  1.0000
  H   H2087     1.0  0.89652  0.57991  0.94334  1.0000
  H   H2088     1.0  0.91844  0.57669  0.91357  1.0000
  H   H2089     1.0  0.88095  0.53550  0.86289  1.0000
  H   H2090     1.0  0.85900  0.53856  0.89296  1.0000
  N   N132      1.0  0.96756  0.72895  0.70929  1.0000
  H   H2091     1.0  0.89547  0.55518  0.81787  1.0000
  C   C1304     1.0  0.66443  0.54104  0.66037  1.0000
  H   H2092     1.0  0.94452  0.71126  0.68758  1.0000
  H   H2093     1.0  0.69407  0.57757  0.67559  1.0000
  H   H2094     1.0  0.89505  0.57918  0.84790  1.0000
  H   H2095     1.0  0.71454  0.60834  0.71591  1.0000
  S   S527      1.0  0.76934  0.74446  0.69775  1.0000
  C   C1305     1.0  0.90881  0.56232  0.67228  1.0000
  H   H2096     1.0  0.72215  0.56606  0.95089  1.0000
  C   C1306     1.0  0.70517  0.60882  0.69856  1.0000
  H   H2097     1.0  0.91121  0.51273  0.68331  1.0000
  H   H2098     1.0  0.70600  0.62178  0.69870  1.0000
  H   H2099     1.0  0.86732  0.55133  0.68051  1.0000
  H   H2100     1.0  0.91864  0.49998  0.70553  1.0000
  C   C1307     1.0  0.96636  0.71897  0.73620  1.0000
  N   N133      1.0  0.88490  0.57197  0.80231  1.0000
  C   C1308     1.0  0.87042  0.57132  0.78294  1.0000
  C   C1309     1.0  0.90058  0.58301  0.78913  1.0000
  C   C1310     1.0  0.88448  0.55509  0.80414  1.0000
  C   C1311     1.0  0.88415  0.57840  0.83293  1.0000
  H   H2101     1.0  0.85838  0.56301  0.79215  1.0000
  H   H2102     1.0  0.87075  0.56650  0.75969  1.0000
  H   H2103     1.0  0.87029  0.58384  0.78097  1.0000
  H   H2104     1.0  0.90184  0.57817  0.76642  1.0000
  H   H2105     1.0  0.90114  0.59575  0.78655  1.0000
  C   C1312     1.0  0.73384  0.56393  0.95394  1.0000
  H   H2106     1.0  0.94707  0.73524  0.72036  1.0000
  C   C1313     1.0  0.67020  0.55464  0.93028  1.0000
  H   H2107     1.0  0.73948  0.56540  0.93166  1.0000
  H   H2108     1.0  0.91974  0.56164  0.68352  1.0000
  C   C1314     1.0  0.96052  0.74130  0.71537  1.0000
  N   N134      1.0  0.70809  0.60355  0.66840  1.0000
  H   H2109     1.0  0.97353  0.72696  0.75612  1.0000
  H   H2110     1.0  0.66584  0.57475  0.95058  1.0000
  H   H2111     1.0  0.70674  0.53590  0.94047  1.0000
  H   H2112     1.0  0.69613  0.72985  0.93400  1.0000
  C   C1315     1.0  0.71878  0.53444  0.94421  1.0000
  C   C1316     1.0  0.66212  0.56542  0.93244  1.0000
  H   H2113     1.0  0.96296  0.70850  0.67778  1.0000
  H   H2114     1.0  0.67157  0.53449  0.90395  1.0000
  H   H2115     1.0  0.73493  0.61426  0.67593  1.0000
  H   H2116     1.0  0.75260  0.54641  0.94855  1.0000
  H   H2117     1.0  0.81661  0.73961  0.73474  1.0000
  C   C1317     1.0  0.66541  0.54288  0.90598  1.0000
  H   H2118     1.0  0.87642  0.53429  0.96002  1.0000
  C   C1318     1.0  0.70668  0.58626  0.66909  1.0000
  H   H2119     1.0  0.72421  0.53511  0.92186  1.0000
  H   H2120     1.0  0.75518  0.55463  0.98658  1.0000
  H   H2121     1.0  0.95313  0.71237  0.74223  1.0000
  C   C1319     1.0  0.88186  0.52963  0.97907  1.0000
  Fe  Fe262     1.0  0.86183  0.57701  0.98387  1.0000
  H   H2122     1.0  0.80826  0.73727  0.98258  1.0000
  H   H2123     1.0  0.88787  0.56211  0.98700  1.0000
  S   S528      1.0  0.85374  0.59811  0.98363  1.0000
  H   H2124     1.0  0.87394  0.51614  0.98054  1.0000
  C   C1320     1.0  0.95802  0.71797  0.68331  1.0000
  H   H2125     1.0  0.71569  0.52175  0.95257  1.0000
  C   C1321     1.0  0.98532  0.73759  0.70227  1.0000
  H   H2126     1.0  0.71612  0.58504  0.68538  1.0000
  H   H2127     1.0  0.89454  0.53104  0.97291  1.0000
  C   C1322     1.0  0.74625  0.54517  0.97007  1.0000
  H   H2128     1.0  0.75247  0.74047  0.75294  1.0000
  H   H2129     1.0  0.75426  0.74528  0.96480  1.0000
  C   C1323     1.0  0.69106  0.73683  0.94877  1.0000
  H   H2130     1.0  0.68364  0.72826  0.96588  1.0000
  H   H2131     1.0  0.66990  0.53203  0.66221  1.0000
  H   H2132     1.0  0.88118  0.50220  0.66621  1.0000
  H   H2133     1.0  0.89008  0.50972  0.72010  1.0000
  C   C1324     1.0  0.87932  0.55656  0.67052  1.0000
  C   C1325     1.0  0.98944  0.57945  0.75101  1.0000
  H   H2134     1.0  0.99020  0.59421  0.68039  1.0000
  H   H2135     1.0  0.95862  0.72516  0.66268  1.0000
  H   H2136     1.0  0.80079  0.74201  0.71062  1.0000
  H   H2137     1.0  0.89696  0.49653  0.74231  1.0000
  C   C1326     1.0  0.88845  0.49661  0.72297  1.0000
  C   C1327     1.0  0.94791  0.75991  0.22883  1.0000
  S   S529      1.0  0.95517  0.77206  0.11008  1.0000
  H   H2138     1.0  0.67715  0.93531  0.27606  1.0000
  H   H2139     1.0  0.95728  0.78823  0.19743  1.0000
  H   H2140     1.0  0.91447  0.74926  0.23063  1.0000
  S   S530      1.0  0.96166  0.76251  0.02144  1.0000
  H   H2141     1.0  0.74959  0.85038  0.30334  1.0000
  H   H2142     1.0  0.80087  0.76774  0.03173  1.0000
  H   H2143     1.0  0.70308  0.97108  0.28637  1.0000
  Fe  Fe263     1.0  0.96265  0.75454  0.13770  1.0000
  H   H2144     1.0  0.77493  0.83191  0.26320  1.0000
  H   H2145     1.0  0.67914  0.93403  0.23610  1.0000
  C   C1328     1.0  0.94456  0.77841  0.19206  1.0000
  H   H2146     1.0  0.70630  0.96947  0.23144  1.0000
  H   H2147     1.0  0.75665  0.97264  0.21981  1.0000
  H   H2148     1.0  0.67892  0.95257  0.25330  1.0000
  S   S531      1.0  0.79997  0.76302  0.09906  1.0000
  S   S532      1.0  0.73786  0.77843  0.27082  1.0000
  H   H2149     1.0  0.74183  0.84778  0.24858  1.0000
  S   S533      1.0  0.75288  0.96723  0.28318  1.0000
  C   C1329     1.0  0.76199  0.82312  0.26760  1.0000
  H   H2150     1.0  0.82025  0.78485  0.02541  1.0000
  S   S534      1.0  0.78840  0.76327  0.18758  1.0000
  H   H2151     1.0  0.75413  0.76120  0.17579  1.0000
  C   C1330     1.0  0.85448  0.74940  0.09425  1.0000
  H   H2152     1.0  0.76279  0.81592  0.28751  1.0000
  Fe  Fe264     1.0  0.95471  0.75550  0.07001  1.0000
  H   H2153     1.0  0.70155  0.92836  0.28574  1.0000
  C   C1331     1.0  0.81425  0.77113  0.02721  1.0000
  H   H2154     1.0  0.77446  0.78082  0.03898  1.0000
  Fe  Fe265     1.0  0.92832  0.75387  0.11471  1.0000
  C   C1332     1.0  0.77396  0.76711  0.21031  1.0000
  C   C1333     1.0  0.75799  0.76505  0.19916  1.0000
  C   C1334     1.0  0.74711  0.76842  0.21810  1.0000
  C   C1335     1.0  0.75190  0.77363  0.24854  1.0000
  C   C1336     1.0  0.76775  0.77542  0.25984  1.0000
  C   C1337     1.0  0.77873  0.77229  0.24077  1.0000
  C   C1338     1.0  0.75770  0.84365  0.29888  1.0000
  C   C1339     1.0  0.88700  0.75503  0.11888  1.0000
  H   H2155     1.0  0.77169  0.77948  0.28311  1.0000
  C   C1340     1.0  0.70993  0.95889  0.23530  1.0000
  H   H2156     1.0  0.72857  0.81031  0.25934  1.0000
  H   H2157     1.0  0.91985  0.74792  0.19247  1.0000
  H   H2158     1.0  0.70654  0.95090  0.21431  1.0000
  Fe  Fe266     1.0  0.73690  0.78306  0.32164  1.0000
  N   N135      1.0  0.75098  0.83189  0.27258  1.0000
  C   C1341     1.0  0.87434  0.75477  0.13757  1.0000
  H   H2159     1.0  0.94567  0.77029  0.17370  1.0000
  H   H2160     1.0  0.76335  0.98131  0.02143  1.0000
  H   H2161     1.0  0.77187  0.80261  0.00674  1.0000
  H   H2162     1.0  0.75713  0.81399  0.24813  1.0000
  H   H2163     1.0  0.72385  0.96420  0.23882  1.0000
  C   C1342     1.0  0.75010  0.84109  0.24550  1.0000
  H   H2164     1.0  0.72068  0.96589  0.29340  1.0000
  H   H2165     1.0  0.76269  0.85046  0.24048  1.0000
  H   H2166     1.0  0.72102  0.94032  0.26939  1.0000
  C   C1343     1.0  0.76956  0.77777  0.01582  1.0000
  N   N136      1.0  0.81582  0.76242  0.99962  1.0000
  H   H2167     1.0  0.70341  0.92686  0.24584  1.0000
  C   C1344     1.0  0.98083  0.77426  0.00457  1.0000
  H   H2168     1.0  0.70106  0.95376  0.30904  1.0000
  C   C1345     1.0  0.76504  0.99119  0.00605  1.0000
  H   H2169     1.0  0.89290  0.75270  0.07302  1.0000
  H   H2170     1.0  0.94888  0.75164  0.21042  1.0000
  H   H2171     1.0  0.96091  0.76869  0.23589  1.0000
  C   C1346     1.0  0.76140  0.98477  0.23109  1.0000
  H   H2172     1.0  0.73491  0.76707  0.20904  1.0000
  C   C1347     1.0  0.76117  0.98595  0.26275  1.0000
  H   H2173     1.0  0.72531  0.82572  0.28249  1.0000
  H   H2174     1.0  0.93648  0.78447  0.18268  1.0000
  H   H2175     1.0  0.92986  0.78732  0.23647  1.0000
  C   C1348     1.0  0.68344  0.94254  0.25642  1.0000
  H   H2176     1.0  0.77053  0.85307  0.29558  1.0000
  H   H2177     1.0  0.73437  0.81269  0.29872  1.0000
  C   C1349     1.0  0.76439  0.76151  0.00424  1.0000
  C   C1350     1.0  0.70717  0.93562  0.26579  1.0000
  C   C1351     1.0  0.86713  0.74961  0.07557  1.0000
  C   C1352     1.0  0.70687  0.96052  0.28876  1.0000
  S   S535      1.0  0.98050  0.75809  0.17942  1.0000
  H   H2178     1.0  0.79105  0.77395  0.24970  1.0000
  N   N137      1.0  0.70184  0.94940  0.26152  1.0000
  C   C1353     1.0  0.73403  0.81965  0.27835  1.0000
  C   C1354     1.0  0.85815  0.75188  0.12540  1.0000
  H   H2179     1.0  0.98574  0.79280  0.19294  1.0000
  H   H2180     1.0  0.74500  0.83253  0.22530  1.0000
  H   H2181     1.0  0.93221  0.77351  0.26395  1.0000
  S   S536      1.0  0.90728  0.75900  0.13542  1.0000
  H   H2182     1.0  0.86450  0.74783  0.05143  1.0000
  C   C1355     1.0  0.93747  0.78031  0.24339  1.0000
  H   H2183     1.0  0.91209  0.76301  0.20300  1.0000
  H   H2184     1.0  0.82033  0.76793  0.04725  1.0000
  C   C1356     1.0  0.76804  0.79008  0.99751  1.0000
  N   N138      1.0  0.93754  0.76883  0.21883  1.0000
  H   H2185     1.0  0.95040  0.78956  0.24989  1.0000
  C   C1357     1.0  0.92023  0.75672  0.21102  1.0000
  H   H2186     1.0  0.83996  0.76343  0.01457  1.0000
  H   H2187     1.0  0.94270  0.75207  0.24832  1.0000
  H   H2188     1.0  0.84860  0.75185  0.14007  1.0000
  C   C1358     1.0  0.88325  0.75232  0.08777  1.0000
  H   H2189     1.0  0.87708  0.75693  0.16165  1.0000
  H   H2190     1.0  0.75828  0.83710  0.31985  1.0000
  H   H2191     1.0  0.68999  0.75307  0.99988  1.0000
  Fe  Fe267     1.0  0.78674  0.75102  0.14077  1.0000
  C   C1359     1.0  0.83375  0.76698  0.99503  1.0000
  H   H2192     1.0  0.70721  0.77233  0.99273  1.0000
  H   H2193     1.0  0.72640  0.75792  0.99327  1.0000
  H   H2194     1.0  0.84057  0.78060  0.99265  1.0000
  S   S537      1.0  0.83450  0.74628  0.07730  1.0000
  C   C1360     1.0  0.85918  0.76045  0.62601  1.0000
  S   S538      1.0  0.75436  0.80524  0.35000  1.0000
  Fe  Fe268     1.0  0.71153  0.77142  0.37255  1.0000
  S   S539      1.0  0.72706  0.79306  0.40395  1.0000
  H   H2195     1.0  0.71489  0.76094  0.46149  1.0000
  Fe  Fe269     1.0  0.73129  0.80882  0.36263  1.0000
  S   S540      1.0  0.72542  0.83139  0.35221  1.0000
  Fe  Fe270     1.0  0.74883  0.78779  0.38896  1.0000
  S   S541      1.0  0.76849  0.78262  0.41747  1.0000
  S   S542      1.0  0.73302  0.76545  0.35931  1.0000
  Fe  Fe271     1.0  0.74405  0.92801  0.37030  1.0000
  H   H2196     1.0  0.73484  0.76815  0.44501  1.0000
  S   S543      1.0  0.75579  0.90978  0.38289  1.0000
  Fe  Fe272     1.0  0.74187  0.95866  0.39975  1.0000
  S   S544      1.0  0.72771  0.96303  0.35928  1.0000
  S   S545      1.0  0.74462  0.96997  0.44756  1.0000
  Fe  Fe273     1.0  0.71284  0.93538  0.35746  1.0000
  Fe  Fe274     1.0  0.74592  0.95771  0.33099  1.0000
  Fe  Fe275     1.0  0.93053  0.75944  0.60094  1.0000
  S   S546      1.0  0.72532  0.93126  0.39970  1.0000
  S   S547      1.0  0.76129  0.95532  0.37185  1.0000
  C   C1361     1.0  0.67009  0.91594  0.37032  1.0000
  H   H2197     1.0  0.93785  0.78897  0.46414  1.0000
  Fe  Fe276     1.0  0.81441  0.75452  0.62255  1.0000
  C   C1362     1.0  0.75688  0.98898  0.49975  1.0000
  C   C1363     1.0  0.67492  0.91708  0.40100  1.0000
  H   H2198     1.0  0.92322  0.79410  0.53950  1.0000
  H   H2199     1.0  0.94274  0.81198  0.53754  1.0000
  H   H2200     1.0  0.68801  0.92316  0.40834  1.0000
  H   H2201     1.0  0.78738  0.76267  0.50868  1.0000
  C   C1364     1.0  0.72556  0.86266  0.35110  1.0000
  H   H2202     1.0  0.97617  0.75991  0.45547  1.0000
  C   C1365     1.0  0.73414  0.85311  0.36165  1.0000
  H   H2203     1.0  0.71378  0.85664  0.33806  1.0000
  C   C1366     1.0  0.73195  0.87994  0.35745  1.0000
  C   C1367     1.0  0.74713  0.88796  0.37433  1.0000
  C   C1368     1.0  0.75581  0.87844  0.38471  1.0000
  C   C1369     1.0  0.74937  0.86112  0.37846  1.0000
  H   H2204     1.0  0.93801  0.76820  0.53580  1.0000
  H   H2205     1.0  0.93628  0.76550  0.49576  1.0000
  H   H2206     1.0  0.78440  0.76577  0.45339  1.0000
  C   C1370     1.0  0.67277  0.76193  0.42146  1.0000
  H   H2207     1.0  0.68448  0.77281  0.42346  1.0000
  C   C1371     1.0  0.77893  0.77156  0.46873  1.0000
  C   C1372     1.0  0.77029  0.78084  0.45714  1.0000
  C   C1373     1.0  0.76343  0.78840  0.47725  1.0000
  C   C1374     1.0  0.93491  0.79485  0.48417  1.0000
  H   H2208     1.0  0.75699  0.79580  0.46874  1.0000
  Fe  Fe277     1.0  0.96405  0.76373  0.63427  1.0000
  S   S548      1.0  0.95764  0.77653  0.59488  1.0000
  H   H2209     1.0  0.74558  0.98032  0.50912  1.0000
  Fe  Fe278     1.0  0.95851  0.75595  0.56544  1.0000
  H   H2210     1.0  0.88015  0.77081  0.56146  1.0000
  H   H2211     1.0  0.91950  0.76731  0.51573  1.0000
  S   S549      1.0  0.90964  0.76777  0.58640  1.0000
  H   H2212     1.0  0.71611  0.75773  0.42189  1.0000
  C   C1375     1.0  0.93335  0.77202  0.51488  1.0000
  H   H2213     1.0  0.92108  0.79080  0.48361  1.0000
  H   H2214     1.0  0.94064  0.80853  0.48156  1.0000
  Fe  Fe279     1.0  0.78556  0.75975  0.58753  1.0000
  S   S550      1.0  0.77625  0.77630  0.55990  1.0000
  C   C1376     1.0  0.75975  0.98692  0.46935  1.0000
  S   S551      1.0  0.79953  0.76968  0.63272  1.0000
  C   C1377     1.0  0.77396  0.77750  0.52019  1.0000
  C   C1378     1.0  0.78063  0.76975  0.50006  1.0000
  C   C1379     1.0  0.76534  0.78679  0.50858  1.0000
  C   C1380     1.0  0.65939  0.76094  0.43893  1.0000
  H   H2215     1.0  0.76026  0.79295  0.52398  1.0000
  C   C1381     1.0  0.89001  0.76397  0.60193  1.0000
  H   H2216     1.0  0.72511  0.88704  0.34931  1.0000
  H   H2217     1.0  0.85319  0.76758  0.58242  1.0000
  C   C1382     1.0  0.93702  0.79821  0.53847  1.0000
  S   S552      1.0  0.68509  0.92444  0.34295  1.0000
  C   C1383     1.0  0.66278  0.91038  0.42234  1.0000
  H   H2218     1.0  0.89601  0.75685  0.64549  1.0000
  H   H2219     1.0  0.75616  0.85399  0.38669  1.0000
  S   S553      1.0  0.71398  0.78718  0.33272  1.0000
  S   S554      1.0  0.96694  0.75825  0.51682  1.0000
  N   N139      1.0  0.77709  0.94354  0.46120  1.0000
  C   C1384     1.0  0.78532  0.93872  0.43672  1.0000
  C   C1385     1.0  0.78320  0.96184  0.46348  1.0000
  C   C1386     1.0  0.78092  0.93737  0.49007  1.0000
  C   C1387     1.0  0.75880  0.93622  0.45442  1.0000
  H   H2220     1.0  0.78240  0.94292  0.41449  1.0000
  H   H2221     1.0  0.78091  0.92497  0.43430  1.0000
  H   H2222     1.0  0.79916  0.94412  0.44077  1.0000
  H   H2223     1.0  0.79698  0.96791  0.46833  1.0000
  H   H2224     1.0  0.78021  0.96684  0.44218  1.0000
  H   H2225     1.0  0.77484  0.94081  0.50896  1.0000
  H   H2226     1.0  0.79463  0.94265  0.49588  1.0000
  H   H2227     1.0  0.77635  0.92359  0.48905  1.0000
  H   H2228     1.0  0.75368  0.92243  0.45158  1.0000
  H   H2229     1.0  0.75564  0.94093  0.43309  1.0000
  H   H2230     1.0  0.75205  0.93951  0.47232  1.0000
  N   N140      1.0  0.94123  0.79024  0.51245  1.0000
  C   C1388     1.0  0.72220  0.75785  0.44444  1.0000
  C   C1389     1.0  0.86232  0.76495  0.59612  1.0000
  H   H2231     1.0  0.77720  0.96586  0.48176  1.0000
  C   C1390     1.0  0.87142  0.75742  0.64355  1.0000
  H   H2232     1.0  0.94148  0.79487  0.56021  1.0000
  S   S555      1.0  0.84059  0.75910  0.64298  1.0000
  C   C1391     1.0  0.87768  0.76683  0.58430  1.0000
  Fe  Fe280     1.0  0.78044  0.74661  0.65121  1.0000
  H   H2233     1.0  0.76757  0.88448  0.39774  1.0000
  H   H2234     1.0  0.96608  0.80952  0.51092  1.0000
  C   C1392     1.0  0.95960  0.79580  0.51227  1.0000
  H   H2235     1.0  0.96475  0.79217  0.53299  1.0000
  H   H2236     1.0  0.96318  0.79008  0.49278  1.0000
  C   C1393     1.0  0.88665  0.75898  0.63153  1.0000
  H   H2237     1.0  0.66669  0.91132  0.44600  1.0000
  H   H2238     1.0  0.74638  0.74854  0.42817  1.0000
  C   C1394     1.0  0.98581  0.77035  0.46779  1.0000
  S   S556      1.0  0.68789  0.74866  0.38127  1.0000
  S   S557      1.0  0.73031  0.93002  0.32775  1.0000
  H   H2239     1.0  0.74386  0.75218  0.48281  1.0000
  S   S558      1.0  0.93690  0.74832  0.64276  1.0000
  C   C1395     1.0  0.67107  0.74866  0.40192  1.0000
  H   H2240     1.0  0.66092  0.77113  0.45437  1.0000
  C   C1396     1.0  0.98460  0.77258  0.49893  1.0000
  S   S559      1.0  0.80223  0.74681  0.57579  1.0000
  C   C1397     1.0  0.75738  0.75355  0.74833  1.0000
  H   H2241     1.0  0.69697  0.90966  0.87669  1.0000
  Fe  Fe281     1.0  0.74406  0.79419  0.83098  1.0000
  S   S560      1.0  0.75474  0.81673  0.86293  1.0000
  S   S561      1.0  0.75914  0.79656  0.78882  1.0000
  Fe  Fe282     1.0  0.71185  0.77957  0.86607  1.0000
  S   S562      1.0  0.72015  0.80127  0.89913  1.0000
  S   S563      1.0  0.68703  0.75702  0.86665  1.0000
  Fe  Fe283     1.0  0.72933  0.81741  0.85927  1.0000
  S   S564      1.0  0.72317  0.83920  0.84406  1.0000
  Fe  Fe284     1.0  0.74486  0.79876  0.90019  1.0000
  S   S565      1.0  0.75917  0.80207  0.94581  1.0000
  S   S566      1.0  0.71896  0.79559  0.82589  1.0000
  S   S567      1.0  0.73619  0.77621  0.86882  1.0000
  Fe  Fe285     1.0  0.74230  0.93678  0.86637  1.0000
  S   S568      1.0  0.72446  0.93503  0.82706  1.0000
  S   S569      1.0  0.75167  0.91683  0.87980  1.0000
  Fe  Fe286     1.0  0.74404  0.97064  0.88918  1.0000
  S   S570      1.0  0.72556  0.97043  0.85199  1.0000
  H   H2242     1.0  0.71947  0.88508  0.90943  1.0000
  Fe  Fe287     1.0  0.71106  0.94360  0.86100  1.0000
  S   S571      1.0  0.68261  0.93101  0.85562  1.0000
  Fe  Fe288     1.0  0.74039  0.96222  0.82057  1.0000
  S   S572      1.0  0.74243  0.97515  0.77531  1.0000
  S   S573      1.0  0.72815  0.94424  0.90091  1.0000
  S   S574      1.0  0.75954  0.96337  0.85739  1.0000
  C   C1398     1.0  0.66925  0.92209  0.88493  1.0000
  C   C1399     1.0  0.75207  0.99521  0.72657  1.0000
  H   H2243     1.0  0.70113  0.87017  0.88954  1.0000
  C   C1400     1.0  0.71597  0.74688  0.98227  1.0000
  C   C1401     1.0  0.98084  0.77497  0.97290  1.0000
  C   C1402     1.0  0.80792  0.76726  0.97351  1.0000
  H   H2244     1.0  0.84533  0.77180  0.71828  1.0000
  C   C1403     1.0  0.81018  0.76515  0.75563  1.0000
  C   C1404     1.0  0.70561  0.90398  0.93303  1.0000
  H   H2245     1.0  0.67418  0.87417  0.89038  1.0000
  H   H2246     1.0  0.84238  0.78491  0.74680  1.0000
  H   H2247     1.0  0.66142  0.77402  0.95003  1.0000
  H   H2248     1.0  0.70225  0.87198  0.93010  1.0000
  H   H2249     1.0  0.68393  0.77849  0.91478  1.0000
  C   C1405     1.0  0.67243  0.76742  0.91226  1.0000
  C   C1406     1.0  0.73150  0.86076  0.85433  1.0000
  C   C1407     1.0  0.74425  0.86798  0.87691  1.0000
  C   C1408     1.0  0.75046  0.88519  0.88396  1.0000
  C   C1409     1.0  0.74406  0.89541  0.86858  1.0000
  C   C1410     1.0  0.73146  0.88821  0.84570  1.0000
  C   C1411     1.0  0.72521  0.87101  0.83874  1.0000
  H   H2250     1.0  0.74927  0.86031  0.88906  1.0000
  H   H2251     1.0  0.76023  0.89061  0.90167  1.0000
  H   H2252     1.0  0.72659  0.89591  0.83326  1.0000
  H   H2253     1.0  0.71547  0.86560  0.82099  1.0000
  H   H2254     1.0  0.68865  0.76478  0.96800  1.0000
  H   H2255     1.0  0.77892  0.78063  0.69625  1.0000
  H   H2256     1.0  0.96831  0.78276  0.71497  1.0000
  C   C1412     1.0  0.83787  0.77184  0.73798  1.0000
  C   C1413     1.0  0.76138  0.78628  0.96753  1.0000
  C   C1414     1.0  0.75660  0.77010  0.95577  1.0000
  C   C1415     1.0  0.69730  0.76090  0.98180  1.0000
  H   H2257     1.0  0.75180  0.76708  0.93257  1.0000
  C   C1416     1.0  0.76600  0.75911  0.72193  1.0000
  C   C1417     1.0  0.77231  0.77610  0.71642  1.0000
  C   C1418     1.0  0.77003  0.78729  0.73708  1.0000
  C   C1419     1.0  0.76129  0.78170  0.76337  1.0000
  C   C1420     1.0  0.75494  0.76472  0.76881  1.0000
  N   N141      1.0  0.81977  0.76491  0.72922  1.0000
  H   H2258     1.0  0.70054  0.91370  0.93242  1.0000
  H   H2259     1.0  0.77501  0.80037  0.73253  1.0000
  H   H2260     1.0  0.74821  0.76018  0.78887  1.0000
  H   H2261     1.0  0.68758  0.93430  0.92114  1.0000
  C   C1421     1.0  0.67999  0.88352  0.90924  1.0000
  H   H2262     1.0  0.79645  0.75975  0.74957  1.0000
  H   H2263     1.0  0.75412  0.97435  0.96729  1.0000
  H   H2264     1.0  0.67421  0.89269  0.90772  1.0000
  H   H2265     1.0  0.80888  0.76097  0.95222  1.0000
  C   C1422     1.0  0.67048  0.75542  0.88969  1.0000
  S   S575      1.0  0.75550  0.99557  0.91611  1.0000
  N   N142      1.0  0.76179  0.84598  0.78358  1.0000
  C   C1423     1.0  0.74553  0.83146  0.78219  1.0000
  C   C1424     1.0  0.76365  0.85478  0.75504  1.0000
  C   C1425     1.0  0.77548  0.84033  0.78811  1.0000
  C   C1426     1.0  0.76244  0.85732  0.80900  1.0000
  H   H2266     1.0  0.74459  0.82244  0.76358  1.0000
  H   H2267     1.0  0.73482  0.83518  0.77916  1.0000
  H   H2268     1.0  0.74381  0.82464  0.80339  1.0000
  H   H2269     1.0  0.76317  0.84652  0.73544  1.0000
  H   H2270     1.0  0.75345  0.85914  0.75098  1.0000
  H   H2271     1.0  0.77577  0.86585  0.75533  1.0000
  H   H2272     1.0  0.78797  0.85091  0.78936  1.0000
  H   H2273     1.0  0.77522  0.83159  0.76947  1.0000
  H   H2274     1.0  0.77433  0.83349  0.80934  1.0000
  H   H2275     1.0  0.77461  0.86834  0.81117  1.0000
  H   H2276     1.0  0.76067  0.85094  0.83084  1.0000
  H   H2277     1.0  0.75234  0.86190  0.80614  1.0000
  N   N143      1.0  0.69837  0.89171  0.90761  1.0000
  C   C1427     1.0  0.70556  0.87915  0.90925  1.0000
  H   H2278     1.0  0.71950  0.91042  0.93228  1.0000
  C   C1428     1.0  0.67482  0.92572  0.91523  1.0000
  H   H2279     1.0  0.97617  0.79186  0.76889  1.0000
  C   C1429     1.0  0.70239  0.90027  0.87886  1.0000
  H   H2280     1.0  0.71613  0.90695  0.87719  1.0000
  H   H2281     1.0  0.96930  0.76837  0.95951  1.0000
  H   H2282     1.0  0.84079  0.76450  0.75576  1.0000
  H   H2283     1.0  0.71982  0.75624  0.92481  1.0000
  C   C1430     1.0  0.66370  0.91855  0.93796  1.0000
  H   H2284     1.0  0.67643  0.87713  0.93083  1.0000
  H   H2285     1.0  0.69747  0.89145  0.85904  1.0000
  C   C1431     1.0  0.75809  0.75780  0.97406  1.0000
  H   H2286     1.0  0.82045  0.78814  0.71344  1.0000
  H   H2287     1.0  0.66801  0.92159  0.96141  1.0000
  C   C1432     1.0  0.98049  0.78440  0.72460  1.0000
  H   H2288     1.0  0.70590  0.76651  0.92442  1.0000
  C   C1433     1.0  0.75750  0.98790  0.75043  1.0000
  C   C1434     1.0  0.65961  0.76488  0.93214  1.0000
  H   H2289     1.0  0.80305  0.77011  0.69840  1.0000
  H   H2290     1.0  0.79436  0.76387  0.97649  1.0000
  H   H2291     1.0  0.70286  0.89800  0.95515  1.0000
  C   C1435     1.0  0.81660  0.77501  0.70551  1.0000
  H   H2292     1.0  0.81358  0.77803  0.76466  1.0000
  S   S576      1.0  0.98716  0.77553  0.66741  1.0000
  H   H2293     1.0  0.77900  0.98566  0.77199  1.0000
  H   H2294     1.0  0.82358  0.77502  0.68514  1.0000
  H   H2295     1.0  0.81383  0.78091  0.97053  1.0000
  H   H2296     1.0  0.72440  0.77419  0.94926  1.0000
  C   C1436     1.0  0.75977  0.98719  0.97533  1.0000
  C   C1437     1.0  0.81440  0.74762  0.71750  1.0000
  N   N144      1.0  0.70461  0.75181  0.96308  1.0000
  H   H2297     1.0  0.82128  0.74701  0.69736  1.0000
  H   H2298     1.0  0.81235  0.75778  0.77415  1.0000
  H   H2299     1.0  0.83548  0.76061  0.97446  1.0000
  C   C1438     1.0  0.71412  0.76267  0.93942  1.0000
  H   H2300     1.0  0.73891  0.99268  0.72339  1.0000
  H   H2301     1.0  0.96737  0.74980  0.73490  1.0000
  H   H2302     1.0  0.96137  0.74915  0.69562  1.0000
  C   C1439     1.0  0.98500  0.78960  0.75522  1.0000
  C   C1440     1.0  0.77457  0.99131  0.75411  1.0000
  H   H2303     1.0  0.76972  0.99475  0.81891  1.0000
  H   H2304     1.0  0.86923  0.75402  0.66674  1.0000
