data_image0
_chemical_formula_structural       FeSHFeSCFeSFeS3C2HC2HCSH2SCH2FeHNH3C2HCHC2H8C3FeHCSFeS2CSCHC2H3SH4SH8CNC7H3NH8CH3FeS2HNCH2NC2H3C2H2NCHCH4CHFeS2FeSHFeSFeS3H2CHC4HC2H3C5HCH3C2HCHCHCHC2H3C2H4CH5SHCH3CH3CFeS2FeCHFeH2CSH2C3H2C3NH2CH3CH2CSC4H2CH2CH2SHSFeSHFeSFeSFeHS2C2H2CS2FeH3SCH2CH4CH3NH6CHC2HC3H2NCHCH2C2SHCHCH6CFeSH2SCFeSFeHSCHC4HCHCH4FeCHS2CHNH3SCHSH2CHCNSCH2CH6C2H2CHCH4SHSCH5SC2H2C2H2C3H4CH2CH3C2H3FeSCFeS2FeCFeS3CHCH3CSNCH2CHCFeHSHC3H2CHCH3C3H3C2H4CH3CHCSC3H2CSHCHCHNH5NCH2C2H2C2NH4CNHCH4CH3FeS2FeSNSHCSHFeHC3H2CHFeSCFeSH3FeSCSC2HC2H4C4HCSHCSH2SHCHC2H2NH2CHFeCH8NFeSCFeSCFeSFeS3CHCHCHC2SHCHC3H2C2H3C2H4SCHNHSH2CH4CH2CSH2NHFeSH3CH2C2H5C3H3SHCH2CH3C2HNH3FeHSCFeSH3CH2CSHSHCH2NH2CH4FeSCFeSCFeSFeS3CHC2NCH2C4HC2HC2HCHCH3CH2CHSH2FeH2CH
_chemical_formula_sum              "Fe48 S96 H384 C240 N24"
_cell_length_a       40.2371
_cell_length_b       32.817
_cell_length_c       17.7808
_cell_angle_alpha    89.5273
_cell_angle_beta     89.5313
_cell_angle_gamma    90.4158

_space_group_name_H-M_alt    "P 1"
_space_group_IT_number       1

loop_
  _space_group_symop_operation_xyz
  'x, y, z'

loop_
  _atom_site_type_symbol
  _atom_site_label
  _atom_site_symmetry_multiplicity
  _atom_site_fract_x
  _atom_site_fract_y
  _atom_site_fract_z
  _atom_site_occupancy
  Fe  Fe1       1.0  0.22215  0.19784  0.67225  1.0000
  S   S1        1.0  0.19559  0.20906  0.56384  1.0000
  H   H1        1.0  0.20413  0.36242  0.62448  1.0000
  Fe  Fe2       1.0  0.15923  0.16958  0.75246  1.0000
  S   S2        1.0  0.12739  0.17817  0.65092  1.0000
  C   C1        1.0  0.10537  0.21892  0.86168  1.0000
  Fe  Fe3       1.0  0.16981  0.15001  0.58893  1.0000
  S   S3        1.0  0.15896  0.10644  0.49635  1.0000
  Fe  Fe4       1.0  0.15575  0.23645  0.63515  1.0000
  S   S4        1.0  0.13115  0.29304  0.59183  1.0000
  S   S5        1.0  0.19958  0.13583  0.69159  1.0000
  S   S6        1.0  0.18459  0.23072  0.74245  1.0000
  C   C2        1.0  0.13598  0.06508  0.53187  1.0000
  C   C3        1.0  0.13166  0.32999  0.66207  1.0000
  H   H2        1.0  0.07521  0.39686  0.43805  1.0000
  C   C4        1.0  0.13862  0.34701  0.79340  1.0000
  C   C5        1.0  0.05939  0.38275  0.89357  1.0000
  H   H3        1.0  0.08267  0.27812  0.86582  1.0000
  C   C6        1.0  0.30164  0.17833  0.72127  1.0000
  S   S7        1.0  0.27663  0.21384  0.67433  1.0000
  H   H4        1.0  0.09463  0.45152  0.91644  1.0000
  H   H5        1.0  0.21101  0.06526  0.58055  1.0000
  S   S8        1.0  0.15355  0.52890  0.52245  1.0000
  C   C7        1.0  0.13396  0.37131  0.64264  1.0000
  H   H6        1.0  0.11987  0.05973  0.90329  1.0000
  H   H7        1.0  0.09498  0.43520  0.49420  1.0000
  Fe  Fe5       1.0  0.23173  0.53418  0.74178  1.0000
  H   H8        1.0  0.13290  0.38063  0.58419  1.0000
  N   N1        1.0  0.24414  0.35014  0.70079  1.0000
  H   H9        1.0  0.05881  0.09655  0.83526  1.0000
  H   H10       1.0  0.20184  0.31362  0.67016  1.0000
  H   H11       1.0  0.11735  0.22452  0.80815  1.0000
  C   C8        1.0  0.21934  0.33653  0.64529  1.0000
  C   C9        1.0  0.06526  0.14486  0.50853  1.0000
  H   H12       1.0  0.20970  0.34577  0.79377  1.0000
  C   C10       1.0  0.26635  0.38109  0.66580  1.0000
  H   H13       1.0  0.13040  0.28638  0.75271  1.0000
  C   C11       1.0  0.08556  0.24910  0.89421  1.0000
  C   C12       1.0  0.13310  0.31806  0.73753  1.0000
  H   H14       1.0  0.23134  0.32211  0.59567  1.0000
  H   H15       1.0  0.26108  0.14724  0.77755  1.0000
  H   H16       1.0  0.24478  0.37870  0.80949  1.0000
  H   H17       1.0  0.15192  0.07306  0.64624  1.0000
  H   H18       1.0  0.06749  0.50025  0.51715  1.0000
  H   H19       1.0  0.29744  0.09843  0.84467  1.0000
  H   H20       1.0  0.14073  0.33735  0.85154  1.0000
  H   H21       1.0  0.28248  0.32375  0.76889  1.0000
  C   C13       1.0  0.26393  0.31489  0.72589  1.0000
  C   C14       1.0  0.07040  0.42207  0.47814  1.0000
  C   C15       1.0  0.22695  0.36810  0.76620  1.0000
  Fe  Fe6       1.0  0.17072  0.52978  0.64240  1.0000
  H   H22       1.0  0.25507  0.07536  0.67442  1.0000
  C   C16       1.0  0.10963  0.18153  0.89828  1.0000
  S   S9        1.0  0.13541  0.14448  0.85804  1.0000
  Fe  Fe7       1.0  0.17260  0.48040  0.78548  1.0000
  S   S10       1.0  0.20622  0.48215  0.68402  1.0000
  S   S11       1.0  0.15521  0.42277  0.84207  1.0000
  C   C17       1.0  0.28766  0.14849  0.76872  1.0000
  S   S12       1.0  0.13507  0.52356  0.73950  1.0000
  C   C18       1.0  0.13985  0.40036  0.69847  1.0000
  H   H23       1.0  0.14280  0.43212  0.68303  1.0000
  C   C19       1.0  0.14294  0.38800  0.77362  1.0000
  C   C20       1.0  0.05546  0.07458  0.88292  1.0000
  H   H24       1.0  0.27990  0.36862  0.61635  1.0000
  H   H25       1.0  0.21197  0.39495  0.74923  1.0000
  H   H26       1.0  0.27953  0.48320  0.64494  1.0000
  S   S13       1.0  0.20135  0.52780  0.84753  1.0000
  H   H27       1.0  0.08199  0.38530  0.85739  1.0000
  H   H28       1.0  0.25212  0.40804  0.64590  1.0000
  H   H29       1.0  0.09302  0.21897  0.48935  1.0000
  H   H30       1.0  0.11221  0.06451  0.80457  1.0000
  S   S14       1.0  0.28652  0.54720  0.75545  1.0000
  H   H31       1.0  0.05932  0.16585  0.55554  1.0000
  H   H32       1.0  0.27758  0.30097  0.67796  1.0000
  H   H33       1.0  0.24781  0.29052  0.75109  1.0000
  H   H34       1.0  0.05899  0.40849  0.52988  1.0000
  H   H35       1.0  0.08823  0.12819  0.52394  1.0000
  H   H36       1.0  0.12127  0.18094  0.45619  1.0000
  H   H37       1.0  0.05420  0.34968  0.90282  1.0000
  H   H38       1.0  0.28518  0.39233  0.70639  1.0000
  C   C21       1.0  0.09752  0.19672  0.44340  1.0000
  N   N2        1.0  0.06968  0.16731  0.43669  1.0000
  C   C22       1.0  0.13693  0.05521  0.60855  1.0000
  C   C23       1.0  0.09206  0.38548  0.00656  1.0000
  C   C24       1.0  0.06910  0.24151  0.96259  1.0000
  C   C25       1.0  0.07273  0.20373  0.99871  1.0000
  C   C26       1.0  0.09329  0.17389  0.96691  1.0000
  C   C27       1.0  0.07153  0.44763  0.95088  1.0000
  C   C28       1.0  0.07713  0.13813  0.37601  1.0000
  H   H39       1.0  0.09035  0.48201  0.38793  1.0000
  H   H40       1.0  0.08741  0.35246  0.01789  1.0000
  H   H41       1.0  0.07525  0.46461  0.00423  1.0000
  N   N3        1.0  0.06408  0.40408  0.96564  1.0000
  H   H42       1.0  0.11831  0.54729  0.38722  1.0000
  H   H43       1.0  0.09688  0.14524  0.99603  1.0000
  H   H44       1.0  0.06721  0.44705  0.33117  1.0000
  H   H45       1.0  0.05684  0.11509  0.37019  1.0000
  H   H46       1.0  0.07978  0.15383  0.32051  1.0000
  H   H47       1.0  0.09611  0.40054  0.06161  1.0000
  H   H48       1.0  0.10063  0.12146  0.38700  1.0000
  H   H49       1.0  0.11565  0.38799  0.97348  1.0000
  C   C29       1.0  0.06493  0.47037  0.37601  1.0000
  H   H50       1.0  0.06036  0.19792  0.05199  1.0000
  H   H51       1.0  0.10140  0.21437  0.39030  1.0000
  H   H52       1.0  0.06556  0.08975  0.93373  1.0000
  Fe  Fe8       1.0  0.16671  0.57154  0.79259  1.0000
  S   S15       1.0  0.19919  0.58217  0.69120  1.0000
  S   S16       1.0  0.14687  0.62263  0.86186  1.0000
  H   H53       1.0  0.08025  0.99341  0.47512  1.0000
  N   N4        1.0  0.07264  0.03577  0.86799  1.0000
  C   C30       1.0  0.13275  0.66150  0.80298  1.0000
  H   H54       1.0  0.12241  0.01575  0.84447  1.0000
  H   H55       1.0  0.21367  0.72534  0.74770  1.0000
  N   N5        1.0  0.23782  0.01707  0.63516  1.0000
  C   C31       1.0  0.22133  0.03462  0.56847  1.0000
  C   C32       1.0  0.12954  0.65496  0.72581  1.0000
  H   H56       1.0  0.29461  0.90446  0.75722  1.0000
  H   H57       1.0  0.11965  0.68239  0.61781  1.0000
  H   H58       1.0  0.13389  0.62510  0.70298  1.0000
  C   C33       1.0  0.12149  0.68740  0.67774  1.0000
  C   C34       1.0  0.21995  0.69980  0.88869  1.0000
  H   H59       1.0  0.07049  0.98703  0.78777  1.0000
  H   H60       1.0  0.26829  0.73984  0.81357  1.0000
  N   N6        1.0  0.23913  0.68482  0.82340  1.0000
  C   C35       1.0  0.27151  0.70630  0.81918  1.0000
  H   H61       1.0  0.28643  0.69627  0.76973  1.0000
  C   C36       1.0  0.07637  0.76703  0.45490  1.0000
  H   H62       1.0  0.22073  0.62354  0.83767  1.0000
  H   H63       1.0  0.06168  0.69786  0.53019  1.0000
  H   H64       1.0  0.21507  0.73307  0.88369  1.0000
  H   H65       1.0  0.19267  0.99082  0.68044  1.0000
  C   C37       1.0  0.12711  0.70015  0.83252  1.0000
  H   H66       1.0  0.09664  0.74408  0.45455  1.0000
  Fe  Fe9       1.0  0.16942  0.89073  0.74960  1.0000
  S   S17       1.0  0.14339  0.87892  0.64084  1.0000
  S   S18       1.0  0.22348  0.90886  0.75300  1.0000
  Fe  Fe10      1.0  0.10663  0.87708  0.84302  1.0000
  S   S19       1.0  0.07559  0.86305  0.74282  1.0000
  H   H67       1.0  0.25201  0.76937  0.67937  1.0000
  Fe  Fe11      1.0  0.11917  0.82703  0.70374  1.0000
  S   S20       1.0  0.10979  0.76751  0.64630  1.0000
  Fe  Fe12      1.0  0.10234  0.91608  0.69028  1.0000
  S   S21       1.0  0.07267  0.96062  0.62386  1.0000
  S   S22       1.0  0.14849  0.83583  0.80957  1.0000
  S   S23       1.0  0.13035  0.93316  0.79353  1.0000
  H   H68       1.0  0.20192  0.04140  0.71283  1.0000
  H   H69       1.0  0.08127  0.78778  0.50289  1.0000
  C   C38       1.0  0.07242  0.59962  0.55238  1.0000
  H   H70       1.0  0.25953  0.63341  0.88290  1.0000
  C   C39       1.0  0.09781  0.99997  0.58846  1.0000
  C   C40       1.0  0.11840  0.55902  0.50615  1.0000
  C   C41       1.0  0.11697  0.72640  0.70700  1.0000
  C   C42       1.0  0.26477  0.04474  0.65961  1.0000
  H   H71       1.0  0.26516  0.96320  0.66432  1.0000
  C   C43       1.0  0.25091  0.86865  0.73363  1.0000
  C   C44       1.0  0.23896  0.83046  0.71160  1.0000
  H   H72       1.0  0.11195  0.57673  0.62142  1.0000
  H   H73       1.0  0.11981  0.01367  0.69527  1.0000
  H   H74       1.0  0.23888  0.03836  0.52019  1.0000
  C   C45       1.0  0.10833  0.04418  0.85441  1.0000
  C   C46       1.0  0.25191  0.97698  0.61573  1.0000
  C   C47       1.0  0.24468  0.64055  0.83203  1.0000
  C   C48       1.0  0.28525  0.87500  0.74030  1.0000
  C   C49       1.0  0.21321  0.01186  0.69680  1.0000
  H   H75       1.0  0.23206  0.95489  0.59968  1.0000
  C   C50       1.0  0.26130  0.79864  0.69740  1.0000
  H   H76       1.0  0.11468  0.76231  0.80742  1.0000
  H   H77       1.0  0.19677  0.67481  0.75307  1.0000
  H   H78       1.0  0.08153  0.79177  0.91695  1.0000
  C   C51       1.0  0.09631  0.01043  0.51221  1.0000
  C   C52       1.0  0.05809  0.01633  0.80098  1.0000
  H   H79       1.0  0.21254  0.82548  0.70512  1.0000
  C   C53       1.0  0.10206  0.57848  0.56539  1.0000
  H   H80       1.0  0.22479  0.99853  0.74802  1.0000
  C   C54       1.0  0.11914  0.73258  0.78450  1.0000
  H   H81       1.0  0.28662  0.70069  0.87028  1.0000
  C   C55       1.0  0.29560  0.80465  0.70579  1.0000
  H   H82       1.0  0.05976  0.61431  0.59863  1.0000
  C   C56       1.0  0.11859  0.02185  0.63645  1.0000
  C   C57       1.0  0.10537  0.56152  0.43355  1.0000
  H   H83       1.0  0.26987  0.97938  0.56799  1.0000
  H   H84       1.0  0.27758  0.03258  0.71023  1.0000
  H   H85       1.0  0.06061  0.03613  0.75004  1.0000
  C   C58       1.0  0.05866  0.60059  0.48033  1.0000
  C   C59       1.0  0.22035  0.69261  0.75367  1.0000
  H   H86       1.0  0.25819  0.62798  0.78259  1.0000
  H   H87       1.0  0.23483  0.68385  0.70279  1.0000
  H   H88       1.0  0.12981  0.70516  0.89218  1.0000
  H   H89       1.0  0.20030  0.01505  0.54953  1.0000
  C   C60       1.0  0.11602  0.04236  0.48354  1.0000
  H   H90       1.0  0.19543  0.68407  0.89360  1.0000
  H   H91       1.0  0.28382  0.04933  0.61452  1.0000
  H   H92       1.0  0.08150  0.97855  0.92431  1.0000
  H   H93       1.0  0.05515  0.71142  0.85994  1.0000
  H   H94       1.0  0.08864  0.74374  0.96296  1.0000
  S   S24       1.0  0.08240  0.87636  0.95720  1.0000
  H   H95       1.0  0.05619  0.69658  0.39197  1.0000
  C   C61       1.0  0.07529  0.58168  0.42086  1.0000
  H   H96       1.0  0.07110  0.78550  0.01438  1.0000
  H   H97       1.0  0.23336  0.69437  0.94228  1.0000
  H   H98       1.0  0.06512  0.58260  0.36499  1.0000
  C   C62       1.0  0.07117  0.76975  0.95910  1.0000
  H   H99       1.0  0.07847  0.78550  0.40231  1.0000
  H   H100      1.0  0.11531  0.04979  0.42419  1.0000
  H   H101      1.0  0.07956  0.02179  0.98531  1.0000
  C   C63       1.0  0.06878  0.00818  0.93373  1.0000
  Fe  Fe13      1.0  0.47147  0.15733  0.74184  1.0000
  S   S25       1.0  0.44129  0.16994  0.84575  1.0000
  S   S26       1.0  0.47898  0.20296  0.64940  1.0000
  Fe  Fe14      1.0  0.49078  0.07321  0.79208  1.0000
  C   C64       1.0  0.34699  0.51030  0.74753  1.0000
  H   H102      1.0  0.43441  0.28542  0.61196  1.0000
  Fe  Fe15      1.0  0.42239  0.10626  0.83008  1.0000
  H   H103      1.0  0.35996  0.54924  0.60947  1.0000
  H   H104      1.0  0.36356  0.32265  0.63680  1.0000
  C   C65       1.0  0.52345  0.31672  0.75128  1.0000
  S   S27       1.0  0.44900  0.09599  0.72061  1.0000
  H   H105      1.0  0.43288  0.25752  0.77210  1.0000
  H   H106      1.0  0.39176  0.35726  0.74178  1.0000
  C   C66       1.0  0.35678  0.15302  0.74991  1.0000
  C   C67       1.0  0.34285  0.12350  0.79807  1.0000
  C   C68       1.0  0.33619  0.18041  0.71170  1.0000
  H   H107      1.0  0.38341  0.15465  0.74179  1.0000
  H   H108      1.0  0.35445  0.53148  0.79067  1.0000
  C   C69       1.0  0.50319  0.24756  0.76580  1.0000
  C   C70       1.0  0.49999  0.24455  0.68775  1.0000
  C   C71       1.0  0.51101  0.27645  0.64113  1.0000
  N   N7        1.0  0.40144  0.29607  0.70568  1.0000
  H   H109      1.0  0.49534  0.22278  0.80207  1.0000
  H   H110      1.0  0.50907  0.27386  0.58071  1.0000
  C   C72       1.0  0.32780  0.45511  0.63706  1.0000
  H   H111      1.0  0.53129  0.33736  0.63723  1.0000
  H   H112      1.0  0.37298  0.27050  0.61571  1.0000
  H   H113      1.0  0.42282  0.33787  0.62470  1.0000
  C   C73       1.0  0.30458  0.48265  0.66641  1.0000
  H   H114      1.0  0.38932  0.24520  0.77857  1.0000
  H   H115      1.0  0.34922  0.28219  0.69853  1.0000
  C   C74       1.0  0.40936  0.25607  0.73966  1.0000
  S   S28       1.0  0.36852  0.08979  0.84756  1.0000
  C   C75       1.0  0.51483  0.28373  0.79767  1.0000
  C   C76       1.0  0.37035  0.29274  0.66235  1.0000
  C   C77       1.0  0.39738  0.32660  0.76569  1.0000
  C   C78       1.0  0.52308  0.31247  0.67305  1.0000
  H   H116      1.0  0.34704  0.20295  0.67408  1.0000
  H   H117      1.0  0.37688  0.31799  0.80518  1.0000
  C   C79       1.0  0.42884  0.30901  0.65489  1.0000
  H   H118      1.0  0.51557  0.28672  0.85822  1.0000
  H   H119      1.0  0.45209  0.31450  0.68675  1.0000
  C   C80       1.0  0.30826  0.12102  0.80697  1.0000
  H   H120      1.0  0.42054  0.32984  0.79920  1.0000
  H   H121      1.0  0.41279  0.23232  0.69589  1.0000
  S   S29       1.0  0.51563  0.13356  0.80342  1.0000
  H   H122      1.0  0.32053  0.43427  0.59325  1.0000
  S   S30       1.0  0.52979  0.36463  0.79081  1.0000
  Fe  Fe16      1.0  0.50688  0.41063  0.71408  1.0000
  S   S31       1.0  0.48180  0.39452  0.60630  1.0000
  H   H123      1.0  0.53761  0.09078  0.43131  1.0000
  Fe  Fe17      1.0  0.49424  0.50018  0.69376  1.0000
  S   S32       1.0  0.46792  0.49224  0.58363  1.0000
  Fe  Fe18      1.0  0.44292  0.43904  0.64151  1.0000
  S   S33       1.0  0.38932  0.42077  0.62487  1.0000
  Fe  Fe19      1.0  0.50925  0.44846  0.55893  1.0000
  H   H124      1.0  0.53865  0.34641  0.43190  1.0000
  S   S34       1.0  0.46568  0.45065  0.75402  1.0000
  S   S35       1.0  0.53759  0.46090  0.66443  1.0000
  C   C81       1.0  0.37025  0.48297  0.71784  1.0000
  C   C82       1.0  0.36067  0.45532  0.66257  1.0000
  H   H125      1.0  0.39550  0.48314  0.73813  1.0000
  H   H126      1.0  0.54038  0.19632  0.89008  1.0000
  C   C83       1.0  0.31420  0.51038  0.72155  1.0000
  S   S36       1.0  0.53608  0.44163  0.44844  1.0000
  S   S37       1.0  0.46209  0.07754  0.90010  1.0000
  Fe  Fe20      1.0  0.48367  0.14053  0.90595  1.0000
  H   H127      1.0  0.55264  0.51174  0.53827  1.0000
  H   H128      1.0  0.54047  0.42513  0.91534  1.0000
  H   H129      1.0  0.54302  0.05413  0.91355  1.0000
  S   S38       1.0  0.50373  0.16125  0.01676  1.0000
  C   C84       1.0  0.54326  0.18411  0.00898  1.0000
  H   H130      1.0  0.55328  0.17876  0.12764  1.0000
  H   H131      1.0  0.54212  0.06928  0.19057  1.0000
  C   C85       1.0  0.46227  0.10144  0.18028  1.0000
  H   H132      1.0  0.46621  0.12637  0.13816  1.0000
  H   H133      1.0  0.49422  0.07579  0.05605  1.0000
  H   H134      1.0  0.43758  0.08742  0.16896  1.0000
  H   H135      1.0  0.55138  0.10073  0.96243  1.0000
  C   C86       1.0  0.52137  0.09139  0.19017  1.0000
  H   H136      1.0  0.52712  0.11473  0.14627  1.0000
  H   H137      1.0  0.52155  0.10699  0.24555  1.0000
  H   H138      1.0  0.46113  0.11586  0.23669  1.0000
  N   N8        1.0  0.48914  0.07104  0.17620  1.0000
  H   H139      1.0  0.54643  0.31355  0.35312  1.0000
  H   H140      1.0  0.53354  0.76227  0.82770  1.0000
  H   H141      1.0  0.52832  0.95139  0.56739  1.0000
  H   H142      1.0  0.49087  0.62497  0.50576  1.0000
  H   H143      1.0  0.49281  0.64373  0.78230  1.0000
  H   H144      1.0  0.39604  0.91934  0.74272  1.0000
  C   C87       1.0  0.35710  0.97279  0.81445  1.0000
  H   H145      1.0  0.43246  0.92805  0.79720  1.0000
  C   C88       1.0  0.41132  0.58981  0.67123  1.0000
  C   C89       1.0  0.48555  0.67265  0.67453  1.0000
  H   H146      1.0  0.50677  0.88026  0.55542  1.0000
  C   C90       1.0  0.49956  0.59641  0.61343  1.0000
  C   C91       1.0  0.49901  0.60138  0.69156  1.0000
  C   C92       1.0  0.49305  0.63981  0.72193  1.0000
  H   H147      1.0  0.50526  0.56706  0.58971  1.0000
  H   H148      1.0  0.40927  0.66496  0.61114  1.0000
  N   N9        1.0  0.38465  0.60694  0.62405  1.0000
  C   C93       1.0  0.35801  0.62321  0.67284  1.0000
  H   H149      1.0  0.41871  0.62915  0.53890  1.0000
  C   C94       1.0  0.39847  0.64020  0.57644  1.0000
  H   H150      1.0  0.43467  0.00168  0.75894  1.0000
  H   H151      1.0  0.37911  0.65420  0.54035  1.0000
  C   C95       1.0  0.49186  0.62929  0.56595  1.0000
  C   C96       1.0  0.37090  0.57467  0.57554  1.0000
  S   S39       1.0  0.46824  0.70600  0.53969  1.0000
  H   H152      1.0  0.34687  0.59889  0.70937  1.0000
  C   C97       1.0  0.48381  0.66707  0.59685  1.0000
  H   H153      1.0  0.48412  0.03355  0.63919  1.0000
  C   C98       1.0  0.40716  0.99933  0.75570  1.0000
  H   H154      1.0  0.33751  0.63650  0.63908  1.0000
  H   H155      1.0  0.40076  0.98873  0.69825  1.0000
  H   H156      1.0  0.39047  0.56135  0.53873  1.0000
  H   H157      1.0  0.34626  0.95175  0.85769  1.0000
  H   H158      1.0  0.39729  0.03059  0.76164  1.0000
  H   H159      1.0  0.48042  0.70211  0.69834  1.0000
  C   C99       1.0  0.54642  0.73302  0.81629  1.0000
  Fe  Fe21      1.0  0.37750  0.77867  0.68664  1.0000
  S   S40       1.0  0.40158  0.79145  0.57464  1.0000
  H   H160      1.0  0.34705  0.96373  0.75886  1.0000
  H   H161      1.0  0.51673  0.93215  0.77297  1.0000
  S   S41       1.0  0.47240  0.80132  0.66584  1.0000
  C   C100      1.0  0.50199  0.98594  0.71212  1.0000
  Fe  Fe22      1.0  0.42899  0.84043  0.63585  1.0000
  S   S42       1.0  0.43347  0.90224  0.58205  1.0000
  Fe  Fe23      1.0  0.44261  0.75114  0.61451  1.0000
  H   H162      1.0  0.48438  0.93447  0.47412  1.0000
  S   S43       1.0  0.40209  0.83076  0.74559  1.0000
  C   C101      1.0  0.50453  0.92783  0.43293  1.0000
  H   H163      1.0  0.44752  0.98745  0.56677  1.0000
  C   C102      1.0  0.46085  0.93388  0.63032  1.0000
  C   C103      1.0  0.46259  0.97532  0.61173  1.0000
  C   C104      1.0  0.48088  0.91814  0.68731  1.0000
  C   C105      1.0  0.54699  0.94474  0.52294  1.0000
  H   H164      1.0  0.47986  0.88613  0.70147  1.0000
  C   C106      1.0  0.48255  0.82854  0.91757  1.0000
  H   H165      1.0  0.42284  0.61351  0.70733  1.0000
  C   C107      1.0  0.50178  0.94414  0.72764  1.0000
  H   H166      1.0  0.33382  0.84817  0.73264  1.0000
  H   H167      1.0  0.51577  0.68410  0.91614  1.0000
  H   H168      1.0  0.39581  0.90767  0.84209  1.0000
  H   H169      1.0  0.34794  0.00402  0.82684  1.0000
  Fe  Fe24      1.0  0.44305  0.78690  0.77054  1.0000
  C   C108      1.0  0.48313  0.00140  0.65283  1.0000
  H   H170      1.0  0.45973  0.86408  0.83047  1.0000
  S   S44       1.0  0.41605  0.73330  0.72159  1.0000
  S   S45       1.0  0.52298  0.01906  0.77165  1.0000
  C   C109      1.0  0.40492  0.92975  0.79861  1.0000
  H   H171      1.0  0.36760  0.64764  0.71017  1.0000
  N   N10       1.0  0.39382  0.97156  0.81452  1.0000
  H   H172      1.0  0.51823  0.85074  0.47523  1.0000
  H   H173      1.0  0.47782  0.93063  0.88328  1.0000
  H   H174      1.0  0.35087  0.58659  0.53878  1.0000
  S   S46       1.0  0.32276  0.76316  0.69337  1.0000
  C   C110      1.0  0.47408  0.86494  0.88139  1.0000
  H   H175      1.0  0.43152  0.57654  0.63627  1.0000
  S   S47       1.0  0.46938  0.78142  0.88138  1.0000
  H   H176      1.0  0.52774  0.71192  0.79181  1.0000
  H   H177      1.0  0.40181  0.56511  0.70896  1.0000
  C   C111      1.0  0.52691  0.87533  0.51331  1.0000
  H   H178      1.0  0.55248  0.97397  0.49270  1.0000
  C   C112      1.0  0.30752  0.84310  0.72641  1.0000
  N   N11       1.0  0.53478  0.91318  0.47093  1.0000
  S   S48       1.0  0.50262  0.55955  0.75232  1.0000
  C   C113      1.0  0.40630  0.98418  0.88884  1.0000
  H   H179      1.0  0.54897  0.86383  0.54399  1.0000
  H   H180      1.0  0.43399  0.98382  0.89047  1.0000
  C   C114      1.0  0.48425  0.90246  0.91120  1.0000
  H   H181      1.0  0.39831  0.01567  0.90261  1.0000
  H   H182      1.0  0.55146  0.68437  0.47501  1.0000
  H   H183      1.0  0.50249  0.01469  0.22983  1.0000
  H   H184      1.0  0.52883  0.67548  0.27325  1.0000
  H   H185      1.0  0.54902  0.72641  0.40980  1.0000
  H   H186      1.0  0.50957  0.95634  0.40038  1.0000
  C   C115      1.0  0.50173  0.82977  0.98305  1.0000
  C   C116      1.0  0.48332  0.03892  0.23364  1.0000
  H   H187      1.0  0.50825  0.80178  0.01163  1.0000
  H   H188      1.0  0.52715  0.86807  0.06268  1.0000
  C   C117      1.0  0.50347  0.90373  0.97635  1.0000
  H   H189      1.0  0.45866  0.02396  0.22670  1.0000
  C   C118      1.0  0.51238  0.86731  0.01214  1.0000
  H   H190      1.0  0.46571  0.03694  0.08798  1.0000
  H   H191      1.0  0.50950  0.02916  0.09586  1.0000
  H   H192      1.0  0.53260  0.61757  0.36348  1.0000
  H   H193      1.0  0.52015  0.73358  0.95672  1.0000
  S   S49       1.0  0.54161  0.92739  0.21999  1.0000
  H   H194      1.0  0.39706  0.96353  0.93446  1.0000
  S   S50       1.0  0.51581  0.95117  0.01235  1.0000
  C   C119      1.0  0.54504  0.69294  0.41618  1.0000
  H   H195      1.0  0.49468  0.90477  0.39317  1.0000
  H   H196      1.0  0.55267  0.80354  0.16387  1.0000
  H   H197      1.0  0.55197  0.88213  0.37234  1.0000
  H   H198      1.0  0.54420  0.69172  0.99224  1.0000
  H   H199      1.0  0.51795  0.68686  0.40949  1.0000
  S   S51       1.0  0.55277  0.02024  0.34434  1.0000
  C   C120      1.0  0.53411  0.70587  0.94014  1.0000
  C   C121      1.0  0.48966  0.05245  0.10074  1.0000
  H   H200      1.0  0.48454  0.05149  0.29160  1.0000
  H   H201      1.0  0.62719  0.35694  0.48590  1.0000
  C   C122      1.0  0.62342  0.44528  0.90917  1.0000
  C   C123      1.0  0.59298  0.54208  0.48035  1.0000
  H   H202      1.0  0.59811  0.22231  0.87885  1.0000
  H   H203      1.0  0.56871  0.29832  0.51543  1.0000
  C   C124      1.0  0.58618  0.29253  0.46786  1.0000
  C   C125      1.0  0.59566  0.37979  0.91279  1.0000
  C   C126      1.0  0.56885  0.51141  0.48967  1.0000
  H   H204      1.0  0.56137  0.16062  0.43100  1.0000
  H   H205      1.0  0.59011  0.12323  0.86206  1.0000
  H   H206      1.0  0.58520  0.37170  0.50798  1.0000
  H   H207      1.0  0.56551  0.44004  0.83613  1.0000
  C   C127      1.0  0.56562  0.48077  0.43592  1.0000
  H   H208      1.0  0.61051  0.28358  0.49213  1.0000
  H   H209      1.0  0.57667  0.26555  0.43668  1.0000
  C   C128      1.0  0.60247  0.36359  0.46121  1.0000
  H   H210      1.0  0.59819  0.37647  0.85071  1.0000
  H   H211      1.0  0.58118  0.07713  0.81181  1.0000
  H   H212      1.0  0.62652  0.44408  0.84697  1.0000
  C   C129      1.0  0.56377  0.44150  0.89861  1.0000
  C   C130      1.0  0.59755  0.09080  0.85536  1.0000
  H   H213      1.0  0.62345  0.09072  0.83300  1.0000
  H   H214      1.0  0.56096  0.47410  0.91408  1.0000
  H   H215      1.0  0.62258  0.47796  0.92561  1.0000
  Fe  Fe25      1.0  0.67294  0.23071  0.10261  1.0000
  S   S52       1.0  0.65091  0.26779  0.19519  1.0000
  C   C131      1.0  0.56296  0.18776  0.07307  1.0000
  Fe  Fe26      1.0  0.72480  0.19328  0.20232  1.0000
  S   S53       1.0  0.70682  0.22640  0.30450  1.0000
  S   S54       1.0  0.76816  0.15121  0.21709  1.0000
  Fe  Fe27      1.0  0.65576  0.21083  0.26419  1.0000
  C   C132      1.0  0.68113  0.40561  0.09661  1.0000
  Fe  Fe28      1.0  0.70354  0.28011  0.22707  1.0000
  S   S55       1.0  0.71887  0.34122  0.27011  1.0000
  S   S56       1.0  0.67394  0.17228  0.16877  1.0000
  S   S57       1.0  0.72571  0.24874  0.12745  1.0000
  C   C133      1.0  0.59549  0.20297  0.06695  1.0000
  H   H216      1.0  0.77147  0.18668  0.06738  1.0000
  C   C134      1.0  0.57153  0.13792  0.39363  1.0000
  H   H217      1.0  0.61558  0.07101  0.03859  1.0000
  H   H218      1.0  0.74342  0.47064  0.23309  1.0000
  H   H219      1.0  0.70022  0.34499  0.11401  1.0000
  C   C135      1.0  0.69387  0.37359  0.14022  1.0000
  S   S58       1.0  0.61410  0.19812  0.34631  1.0000
  N   N12       1.0  0.78116  0.48111  0.14884  1.0000
  C   C136      1.0  0.69966  0.37926  0.21690  1.0000
  H   H220      1.0  0.62586  0.51270  0.31276  1.0000
  H   H221      1.0  0.63180  0.12588  0.26105  1.0000
  C   C137      1.0  0.77710  0.44027  0.11559  1.0000
  H   H222      1.0  0.76839  0.08529  0.32870  1.0000
  C   C138      1.0  0.61116  0.11848  0.29768  1.0000
  Fe  Fe29      1.0  0.66557  0.54380  0.13503  1.0000
  H   H223      1.0  0.61049  0.20535  0.11675  1.0000
  S   S59       1.0  0.64956  0.23262  0.98880  1.0000
  H   H224      1.0  0.61152  0.41192  0.04588  1.0000
  C   C139      1.0  0.59805  0.14813  0.34550  1.0000
  C   C140      1.0  0.60842  0.21496  0.99684  1.0000
  C   C141      1.0  0.55813  0.09837  0.39390  1.0000
  H   H225      1.0  0.79411  0.33092  0.27163  1.0000
  H   H226      1.0  0.79948  0.25571  0.17053  1.0000
  C   C142      1.0  0.60999  0.51246  0.36205  1.0000
  H   H227      1.0  0.76313  0.54195  0.13044  1.0000
  C   C143      1.0  0.61666  0.08751  0.98365  1.0000
  H   H228      1.0  0.77245  0.50997  0.25516  1.0000
  H   H229      1.0  0.64613  0.43223  0.93492  1.0000
  H   H230      1.0  0.75062  0.43012  0.11775  1.0000
  C   C144      1.0  0.59769  0.07887  0.29770  1.0000
  C   C145      1.0  0.57112  0.06887  0.34583  1.0000
  C   C146      1.0  0.58988  0.42590  0.01708  1.0000
  H   H231      1.0  0.58382  0.45772  0.33029  1.0000
  H   H232      1.0  0.76891  0.51299  0.04649  1.0000
  H   H233      1.0  0.73125  0.07684  0.27610  1.0000
  C   C147      1.0  0.76998  0.47973  0.22822  1.0000
  C   C148      1.0  0.58626  0.48128  0.37211  1.0000
  H   H234      1.0  0.61633  0.34562  0.31668  1.0000
  H   H235      1.0  0.64313  0.08767  0.96486  1.0000
  H   H236      1.0  0.60416  0.29274  0.32262  1.0000
  H   H237      1.0  0.79184  0.41704  0.14639  1.0000
  C   C149      1.0  0.56004  0.06896  0.95432  1.0000
  H   H238      1.0  0.73411  0.50216  0.10736  1.0000
  H   H239      1.0  0.67803  0.40164  0.03680  1.0000
  H   H240      1.0  0.69482  0.42017  0.31039  1.0000
  C   C150      1.0  0.76095  0.51080  0.10645  1.0000
  H   H241      1.0  0.67008  0.47550  0.23434  1.0000
  C   C151      1.0  0.67350  0.44294  0.13003  1.0000
  S   S60       1.0  0.66082  0.48414  0.07400  1.0000
  C   C152      1.0  0.79646  0.18221  0.08762  1.0000
  C   C153      1.0  0.67744  0.44759  0.20750  1.0000
  C   C154      1.0  0.74952  0.06176  0.31384  1.0000
  H   H242      1.0  0.55855  0.36651  0.34925  1.0000
  H   H243      1.0  0.80221  0.06293  0.21951  1.0000
  C   C155      1.0  0.69103  0.41604  0.25072  1.0000
  S   S61       1.0  0.70087  0.55191  0.23112  1.0000
  H   H244      1.0  0.58875  0.45821  0.03564  1.0000
  C   C156      1.0  0.58844  0.21236  0.93300  1.0000
  H   H245      1.0  0.63811  0.31119  0.37749  1.0000
  C   C157      1.0  0.61306  0.31924  0.35592  1.0000
  H   H246      1.0  0.78468  0.45772  0.26203  1.0000
  N   N13       1.0  0.59318  0.42310  0.93442  1.0000
  H   H247      1.0  0.76467  0.05509  0.16759  1.0000
  H   H248      1.0  0.56705  0.40998  0.03791  1.0000
  H   H249      1.0  0.60950  0.11977  0.99388  1.0000
  H   H250      1.0  0.77725  0.28142  0.29215  1.0000
  H   H251      1.0  0.78514  0.44009  0.05556  1.0000
  N   N14       1.0  0.59486  0.06816  0.92741  1.0000
  C   C158      1.0  0.80163  0.16365  0.15755  1.0000
  H   H252      1.0  0.60803  0.05611  0.26082  1.0000
  H   H253      1.0  0.60522  0.39135  0.42507  1.0000
  C   C159      1.0  0.55688  0.33909  0.38652  1.0000
  C   C160      1.0  0.80006  0.30069  0.29678  1.0000
  H   H254      1.0  0.61743  0.36476  0.93923  1.0000
  H   H255      1.0  0.57302  0.36220  0.93001  1.0000
  C   C161      1.0  0.55585  0.19712  0.93917  1.0000
  C   C162      1.0  0.61331  0.54293  0.41615  1.0000
  N   N15       1.0  0.58967  0.32862  0.41791  1.0000
  H   H256      1.0  0.59546  0.56556  0.52234  1.0000
  H   H257      1.0  0.59053  0.66457  0.91905  1.0000
  H   H258      1.0  0.58366  0.89237  0.43993  1.0000
  H   H259      1.0  0.63118  0.02352  0.89556  1.0000
  C   C163      1.0  0.57939  0.67831  0.86754  1.0000
  N   N16       1.0  0.56095  0.71584  0.88563  1.0000
  H   H260      1.0  0.56578  0.73925  0.77262  1.0000
  C   C164      1.0  0.58384  0.74614  0.91866  1.0000
  H   H261      1.0  0.58879  0.00990  0.87437  1.0000
  H   H262      1.0  0.60006  0.68455  0.82704  1.0000
  H   H263      1.0  0.57016  0.93509  0.55151  1.0000
  H   H264      1.0  0.60385  0.75529  0.87830  1.0000
  C   C165      1.0  0.60503  0.02541  0.91606  1.0000
  H   H265      1.0  0.56280  0.65485  0.84229  1.0000
  H   H266      1.0  0.60914  0.66989  0.42891  1.0000
  H   H267      1.0  0.56604  0.61591  0.42960  1.0000
  Fe  Fe30      1.0  0.64271  0.63228  0.13892  1.0000
  S   S62       1.0  0.67626  0.64696  0.23551  1.0000
  S   S63       1.0  0.60578  0.67603  0.08773  1.0000
  Fe  Fe31      1.0  0.71451  0.61079  0.17356  1.0000
  S   S64       1.0  0.76676  0.63321  0.15063  1.0000
  N   N17       1.0  0.76514  0.02647  0.27688  1.0000
  S   S65       1.0  0.68226  0.60015  0.07300  1.0000
  H   H268      1.0  0.61645  0.66241  0.33082  1.0000
  C   C166      1.0  0.55553  0.68205  0.28391  1.0000
  S   S66       1.0  0.62263  0.57466  0.19103  1.0000
  H   H269      1.0  0.56798  0.93299  0.38262  1.0000
  Fe  Fe32      1.0  0.65902  0.58704  0.28274  1.0000
  H   H270      1.0  0.57040  0.66547  0.24088  1.0000
  C   C167      1.0  0.79051  0.58955  0.27098  1.0000
  C   C168      1.0  0.60434  0.72305  0.13444  1.0000
  C   C169      1.0  0.63000  0.73453  0.18232  1.0000
  H   H271      1.0  0.65238  0.71705  0.18459  1.0000
  H   H272      1.0  0.73616  0.05261  0.36637  1.0000
  C   C170      1.0  0.60074  0.67922  0.37181  1.0000
  H   H273      1.0  0.79406  0.01428  0.17741  1.0000
  Fe  Fe33      1.0  0.59007  0.89436  0.21753  1.0000
  S   S67       1.0  0.60040  0.90655  0.09490  1.0000
  C   C171      1.0  0.55915  0.62586  0.37185  1.0000
  Fe  Fe34      1.0  0.57269  0.98118  0.25195  1.0000
  S   S68       1.0  0.58125  0.00202  0.13355  1.0000
  H   H274      1.0  0.72516  0.98583  0.30918  1.0000
  H   H275      1.0  0.75025  0.96852  0.23232  1.0000
  H   H276      1.0  0.76507  0.58757  0.29089  1.0000
  Fe  Fe35      1.0  0.62643  0.96262  0.13675  1.0000
  S   S69       1.0  0.67356  0.98829  0.08646  1.0000
  C   C172      1.0  0.56074  0.90481  0.41404  1.0000
  S   S70       1.0  0.62040  0.94704  0.25911  1.0000
  C   C173      1.0  0.59929  0.79424  0.22002  1.0000
  C   C174      1.0  0.62717  0.76943  0.22641  1.0000
  H   H277      1.0  0.74277  0.99577  0.04690  1.0000
  C   C175      1.0  0.70676  0.95413  0.09541  1.0000
  C   C176      1.0  0.70170  0.91566  0.12810  1.0000
  H   H278      1.0  0.60343  0.00743  0.96936  1.0000
  H   H279      1.0  0.67706  0.90619  0.14597  1.0000
  H   H280      1.0  0.57043  0.77424  0.93578  1.0000
  H   H281      1.0  0.80268  0.98197  0.30094  1.0000
  C   C177      1.0  0.76076  0.90131  0.11598  1.0000
  C   C178      1.0  0.73881  0.96609  0.07248  1.0000
  C   C179      1.0  0.79811  0.61100  0.20480  1.0000
  C   C180      1.0  0.72861  0.88918  0.13770  1.0000
  H   H282      1.0  0.72452  0.85937  0.16273  1.0000
  C   C181      1.0  0.78956  0.00784  0.32817  1.0000
  S   S71       1.0  0.79412  0.86789  0.13088  1.0000
  H   H283      1.0  0.79037  0.94905  0.06482  1.0000
  C   C182      1.0  0.57665  0.74844  0.12668  1.0000
  S   S72       1.0  0.64143  0.58348  0.40248  1.0000
  H   H284      1.0  0.59619  0.73378  0.96960  1.0000
  H   H285      1.0  0.64686  0.77752  0.26476  1.0000
  S   S73       1.0  0.59489  0.83549  0.28073  1.0000
  H   H286      1.0  0.57434  0.60757  0.33192  1.0000
  C   C183      1.0  0.76582  0.93982  0.08320  1.0000
  H   H287      1.0  0.72091  0.00886  0.21793  1.0000
  C   C184      1.0  0.73924  0.99611  0.25831  1.0000
  C   C185      1.0  0.57431  0.78434  0.16885  1.0000
  H   H288      1.0  0.55976  0.71524  0.27400  1.0000
  H   H289      1.0  0.77749  0.99606  0.38054  1.0000
  N   N18       1.0  0.56509  0.67002  0.36097  1.0000
  H   H290      1.0  0.60627  0.71230  0.36392  1.0000
  H   H291      1.0  0.55659  0.73998  0.08989  1.0000
  C   C186      1.0  0.78227  0.04024  0.20718  1.0000
  H   H292      1.0  0.55707  0.05240  0.00860  1.0000
  Fe  Fe36      1.0  0.55448  0.94485  0.10150  1.0000
  C   C187      1.0  0.04348  0.48651  0.49933  1.0000
  H   H293      1.0  0.00324  0.42237  0.47489  1.0000
  H   H294      1.0  0.02833  0.06974  0.89212  1.0000
  H   H295      1.0  0.02826  0.51158  0.47509  1.0000
  H   H296      1.0  0.03286  0.21251  0.46224  1.0000
  H   H297      1.0  0.03050  0.47522  0.55095  1.0000
  H   H298      1.0  0.04483  0.12189  0.50501  1.0000
  H   H299      1.0  0.03828  0.39560  0.86139  1.0000
  H   H300      1.0  0.05099  0.46268  0.92001  1.0000
  N   N19       1.0  0.04878  0.45348  0.44454  1.0000
  Fe  Fe37      1.0  0.00583  0.25488  0.08240  1.0000
  S   S74       1.0  0.01187  0.25321  0.20780  1.0000
  C   C188      1.0  0.82126  0.27632  0.17819  1.0000
  Fe  Fe38      1.0  0.93448  0.22469  0.08855  1.0000
  S   S75       1.0  0.93374  0.22112  0.21406  1.0000
  C   C189      1.0  0.85850  0.30811  0.26603  1.0000
  Fe  Fe39      1.0  0.96091  0.28043  0.20985  1.0000
  S   S76       1.0  0.94354  0.33036  0.28477  1.0000
  Fe  Fe40      1.0  0.98434  0.19375  0.20115  1.0000
  S   S77       1.0  0.00016  0.13847  0.26661  1.0000
  S   S78       1.0  0.95700  0.28722  0.08509  1.0000
  S   S79       1.0  0.98304  0.19247  0.07491  1.0000
  C   C190      1.0  0.99942  0.37009  0.23431  1.0000
  H   H301      1.0  0.88173  0.10986  0.30329  1.0000
  C   C191      1.0  0.85611  0.19035  0.07044  1.0000
  H   H302      1.0  0.86553  0.31234  0.32592  1.0000
  C   C192      1.0  0.83533  0.24158  0.29363  1.0000
  H   H303      1.0  0.83250  0.47275  0.17855  1.0000
  C   C193      1.0  0.03340  0.40043  0.01161  1.0000
  C   C194      1.0  0.93421  0.12231  0.29343  1.0000
  S   S80       1.0  0.88971  0.21039  0.01854  1.0000
  H   H304      1.0  0.87621  0.06211  0.93514  1.0000
  C   C195      1.0  0.96693  0.37382  0.26194  1.0000
  H   H305      1.0  0.81351  0.22067  0.28843  1.0000
  C   C196      1.0  0.83401  0.15672  0.18222  1.0000
  C   C197      1.0  0.86123  0.17070  0.13936  1.0000
  C   C198      1.0  0.96568  0.10608  0.27967  1.0000
  H   H306      1.0  0.88613  0.16584  0.15943  1.0000
  H   H307      1.0  0.85878  0.09360  0.05726  1.0000
  C   C199      1.0  0.82374  0.19515  0.04369  1.0000
  C   C200      1.0  0.87880  0.07535  0.08388  1.0000
  H   H308      1.0  0.83799  0.14189  0.23589  1.0000
  H   H309      1.0  0.85453  0.33886  0.24105  1.0000
  H   H310      1.0  0.80479  0.30535  0.35769  1.0000
  C   C201      1.0  0.00365  0.44348  0.22118  1.0000
  C   C202      1.0  0.90605  0.09698  0.29416  1.0000
  H   H311      1.0  0.04075  0.20538  0.36345  1.0000
  H   H312      1.0  0.84096  0.24443  0.35453  1.0000
  H   H313      1.0  0.93153  0.15428  0.30459  1.0000
  H   H314      1.0  0.02795  0.36806  0.02719  1.0000
  S   S81       1.0  0.88002  0.54668  0.33435  1.0000
  C   C203      1.0  0.92009  0.10991  0.00733  1.0000
  H   H315      1.0  0.01948  0.40982  0.38366  1.0000
  N   N20       1.0  0.82878  0.28172  0.25871  1.0000
  H   H316      1.0  0.01042  0.34037  0.22863  1.0000
  S   S82       1.0  0.97639  0.53996  0.35369  1.0000
  H   H317      1.0  0.82014  0.52470  0.16838  1.0000
  H   H318      1.0  0.88657  0.09123  0.13594  1.0000
  C   C204      1.0  0.95288  0.41237  0.26970  1.0000
  H   H319      1.0  0.92767  0.41535  0.29048  1.0000
  H   H320      1.0  0.03547  0.41809  0.06450  1.0000
  H   H321      1.0  0.90102  0.12716  0.97531  1.0000
  H   H322      1.0  0.99979  0.45784  0.39802  1.0000
  C   C205      1.0  0.97104  0.44713  0.24802  1.0000
  H   H323      1.0  0.92714  0.12904  0.05621  1.0000
  H   H324      1.0  0.01717  0.16809  0.41529  1.0000
  C   C206      1.0  0.01799  0.40496  0.21519  1.0000
  S   S83       1.0  0.04441  0.27977  0.00219  1.0000
  H   H325      1.0  0.85698  0.22653  0.26647  1.0000
  H   H326      1.0  0.88045  0.29478  0.23687  1.0000
  N   N21       1.0  0.90726  0.06965  0.03205  1.0000
  H   H327      1.0  0.01145  0.41235  0.98109  1.0000
  Fe  Fe41      1.0  0.99795  0.54112  0.23706  1.0000
  S   S84       1.0  0.02678  0.48703  0.19725  1.0000
  H   H328      1.0  0.95952  0.47666  0.25133  1.0000
  H   H329      1.0  0.04340  0.40202  0.19579  1.0000
  H   H330      1.0  0.81968  0.21000  0.98998  1.0000
  C   C207      1.0  0.03879  0.18939  0.41884  1.0000
  H   H331      1.0  0.84267  0.26283  0.14738  1.0000
  H   H332      1.0  0.94238  0.10708  0.97044  1.0000
  C   C208      1.0  0.96923  0.06395  0.27249  1.0000
  C   C209      1.0  0.81652  0.49362  0.14523  1.0000
  H   H333      1.0  0.82608  0.49433  0.08634  1.0000
  H   H334      1.0  0.94362  0.06494  0.11957  1.0000
  H   H335      1.0  0.81542  0.30582  0.15027  1.0000
  H   H336      1.0  0.05047  0.49612  0.35193  1.0000
  H   H337      1.0  0.80997  0.55332  0.36224  1.0000
  C   C210      1.0  0.90929  0.05525  0.28143  1.0000
  C   C211      1.0  0.01643  0.43504  0.42460  1.0000
  C   C212      1.0  0.01740  0.77886  0.46638  1.0000
  H   H338      1.0  0.03119  0.00937  0.80933  1.0000
  H   H339      1.0  0.98721  0.94775  0.84735  1.0000
  H   H340      1.0  0.04458  0.92056  0.84490  1.0000
  S   S85       1.0  0.02037  0.62465  0.46584  1.0000
  H   H341      1.0  0.04671  0.74058  0.58240  1.0000
  C   C213      1.0  0.02930  0.91644  0.89461  1.0000
  H   H342      1.0  0.01789  0.70613  0.53835  1.0000
  H   H343      1.0  0.02132  0.79928  0.51531  1.0000
  C   C214      1.0  0.99685  0.93198  0.89612  1.0000
  H   H344      1.0  0.04740  0.76075  0.81944  1.0000
  H   H345      1.0  0.98903  0.78227  0.92282  1.0000
  H   H346      1.0  0.01323  0.72764  0.84475  1.0000
  C   C215      1.0  0.03832  0.73821  0.86226  1.0000
  C   C216      1.0  0.04231  0.72196  0.53137  1.0000
  H   H347      1.0  0.99218  0.76496  0.47255  1.0000
  N   N22       1.0  0.04336  0.74727  0.46217  1.0000
  H   H348      1.0  0.02334  0.81567  0.89937  1.0000
  H   H349      1.0  0.91731  0.04126  0.92567  1.0000
  H   H350      1.0  0.96784  0.76317  0.33569  1.0000
  Fe  Fe42      1.0  0.97227  0.62532  0.20364  1.0000
  H   H351      1.0  0.99362  0.05102  0.26391  1.0000
  S   S86       1.0  0.97111  0.67514  0.11626  1.0000
  C   C217      1.0  0.97286  0.72530  0.23798  1.0000
  Fe  Fe43      1.0  0.99541  0.60388  0.36009  1.0000
  S   S87       1.0  0.02092  0.60316  0.24765  1.0000
  H   H352      1.0  0.81333  0.73308  0.29374  1.0000
  H   H353      1.0  0.81015  0.74609  0.12096  1.0000
  H   H354      1.0  0.84830  0.69920  0.28925  1.0000
  C   C218      1.0  0.82411  0.76789  0.15680  1.0000
  H   H355      1.0  0.88613  0.74604  0.11865  1.0000
  H   H356      1.0  0.99999  0.71417  0.97982  1.0000
  C   C219      1.0  0.96774  0.72227  0.16061  1.0000
  S   S88       1.0  0.93635  0.94700  0.96193  1.0000
  H   H357      1.0  0.98194  0.69950  0.26928  1.0000
  S   S89       1.0  0.94815  0.63132  0.31747  1.0000
  H   H358      1.0  0.02482  0.73722  0.05135  1.0000
  C   C220      1.0  0.95839  0.75669  0.11928  1.0000
  H   H359      1.0  0.80901  0.03030  0.34473  1.0000
  H   H360      1.0  0.92441  0.01761  0.09398  1.0000
  N   N23       1.0  0.84842  0.74672  0.20498  1.0000
  H   H361      1.0  0.86777  0.04578  0.10228  1.0000
  H   H362      1.0  0.01312  0.80505  0.99594  1.0000
  C   C221      1.0  0.02181  0.89100  0.02171  1.0000
  H   H363      1.0  0.88499  0.76216  0.28808  1.0000
  H   H364      1.0  0.88691  0.01548  0.98239  1.0000
  H   H365      1.0  0.95500  0.75472  0.05914  1.0000
  H   H366      1.0  0.87998  0.79947  0.21516  1.0000
  Fe  Fe44      1.0  0.90834  0.92943  0.06748  1.0000
  S   S90       1.0  0.93232  0.94166  0.17798  1.0000
  C   C222      1.0  0.97671  0.92668  0.96019  1.0000
  Fe  Fe45      1.0  0.84451  0.89720  0.14019  1.0000
  S   S91       1.0  0.86352  0.90667  0.25677  1.0000
  C   C223      1.0  0.89640  0.04623  0.96585  1.0000
  Fe  Fe46      1.0  0.88272  0.96622  0.21183  1.0000
  S   S92       1.0  0.87333  0.02535  0.27053  1.0000
  Fe  Fe47      1.0  0.91117  0.88108  0.21198  1.0000
  S   S93       1.0  0.94092  0.83828  0.28343  1.0000
  S   S94       1.0  0.86000  0.95894  0.09814  1.0000
  S   S95       1.0  0.89060  0.86644  0.09823  1.0000
  C   C224      1.0  0.02555  0.72499  0.99313  1.0000
  H   H367      1.0  0.89145  0.70866  0.19165  1.0000
  C   C225      1.0  0.83123  0.61451  0.18058  1.0000
  C   C226      1.0  0.95216  0.79340  0.15631  1.0000
  N   N24       1.0  0.03743  0.75604  0.93834  1.0000
  C   C227      1.0  0.84897  0.57337  0.28660  1.0000
  H   H368      1.0  0.81551  0.69553  0.22164  1.0000
  H   H369      1.0  0.84899  0.79445  0.28739  1.0000
  C   C228      1.0  0.81591  0.57044  0.31153  1.0000
  C   C229      1.0  0.95440  0.79533  0.23465  1.0000
  C   C230      1.0  0.94101  0.03855  0.27359  1.0000
  C   C231      1.0  0.04190  0.89615  0.95767  1.0000
  H   H370      1.0  0.83715  0.63089  0.12911  1.0000
  C   C232      1.0  0.87251  0.72476  0.15722  1.0000
  C   C233      1.0  0.98916  0.90572  0.02261  1.0000
  H   H371      1.0  0.03136  0.87526  0.07062  1.0000
  C   C234      1.0  0.86632  0.77693  0.25106  1.0000
  C   C235      1.0  0.03737  0.72123  0.39612  1.0000
  H   H372      1.0  0.94394  0.00617  0.26854  1.0000
  C   C236      1.0  0.96567  0.76160  0.27524  1.0000
  H   H373      1.0  0.97374  0.90084  0.07185  1.0000
  C   C237      1.0  0.93378  0.04723  0.07137  1.0000
  H   H374      1.0  0.94535  0.81999  0.12431  1.0000
  H   H375      1.0  0.83643  0.79067  0.11885  1.0000
  H   H376      1.0  0.85989  0.70154  0.12199  1.0000
  C   C238      1.0  0.85668  0.59604  0.22176  1.0000
  H   H377      1.0  0.88215  0.59843  0.20224  1.0000
  H   H378      1.0  0.04185  0.69772  0.99391  1.0000
  C   C239      1.0  0.83070  0.71736  0.25473  1.0000
  H   H379      1.0  0.01257  0.70599  0.39983  1.0000
  S   S96       1.0  0.95138  0.56295  0.18191  1.0000
  H   H380      1.0  0.95497  0.04036  0.03306  1.0000
  H   H381      1.0  0.01727  0.79834  0.41474  1.0000
  Fe  Fe48      1.0  0.93139  0.56705  0.29974  1.0000
  H   H382      1.0  0.03816  0.73914  0.34271  1.0000
  H   H383      1.0  0.04213  0.00116  0.94581  1.0000
  C   C240      1.0  0.01470  0.79125  0.93900  1.0000
  H   H384      1.0  0.80546  0.78470  0.19100  1.0000
