data_image0
_chemical_formula_structural       CHSCH2CH4CH2C3FeHCH5SC2H3NSH4SCH3CH3C2HCH2CHCH2CH2CSCSCH2C2HNHCH4SHNHCHNH2C2H3CHFeC2S2CHFeHSH3CSH3C2HCFeHCFeH3CS3H2CH2CH3CFeSFeCH2FeHC2HS2H2SCH4SH4CHCNHCNH2CHC2HCSHCHFeCHSNCHCHC2H2C5H4FeS2CH2FeS2CSHC4H2CHC2SFeSH6CHSHSCH3C4FeH2NH2NCSH5CFeCNCHC3H2CFeHCSH3CSH3CSHC4NH2CH11NHCH2CHCHCH7CSC2HFeSCH2CHC2FeS2HS2HCFeSCHFeCH4FeH3C2H4C2HCSC3NHCSH5CH2CH6SHC2SH2CS2HS2FeSHC3FeC2FeH3FeH4SH3SH4NCHCHSH3FeH3CHCFeH2SH2C5H3CHC2NFeCHCHC3HC3HSH3NHCHCHNHSH3C2SFeCFeH4SC3SHCSHC4H2C3HNCHC4H2SHSFe2H2SCHSH2CHCHCH3CHNH4CSHCH4CSCSH2FeSHC3H2CHSH2CHCHC2NC2H3C2H2SH2CH3FeH2CH5FeNCSHC2HC3NHCSH3C2HCHSH7CH4CFeCH2CH5C3SHSHSFeHFeCS2CFeCHFeSCSH2SCH6C3HSH2CHFeSCHCH4C2NH2CH2C3HC2H3CSNCNHCHSCH8FeC3FeSH6SH2CH3SCHCH2CHFeH4CHCSNCH5FeC2S2CHCHC2SCFeSFeC2S2H2CSH4CSH5CHNSFeH2FeCSHC2HCH2C2HFeH5CFeCHCSCHSCHCHC2SHC4NH2SHC2HSHCHFeSH3SCH5C2HCH4CHCH4SHCHFeC2H5NSHCFeCHCNCHSCH4NH3C2HCHSHSH2C2HCHSH8CFeHSFeC3SH2CFeC2H2CHSHFeCH2SCH2SC2H2CHSHNHCS2CHC2HCH7C2HCHCNCH4CNSC2HSCHCHSHFeC2SHCSH2CHSCFeSC2SFeHS2FeCH2C2HSHCNCHCSCH4CFeCH5FeC2H3FeHCNFeCH2SCHC2SHC2HC2H2CHCH2CH2CH4SHCS2C3FeCSCH4FeH2FeH2CSH3NH6NH2CHSHCFeHS2HCFeH3CFe2HCH3CFeHCSH3CH3CHCH2CH3CSFe2NSC2HSCH3CH2CSCH2SC2HCHNSH2SC3FeHNHCHSCHSHCH3S2CHFeCSCH2C2S2CH5CSC2H2CFeNC2HCH2SNC2H6SCSHSC3HCHFeCH5CH4CHFeH4C5H4SCHCHS2H2FeHCFeHCHCH2CNCH3CH5CHCHCH5C4NCH2C3HCSC3SCSHCH2SCH2CSCHSH3FeH4SHSFeH2SHC2FeC2HNH2SHCSHFeHFeS2CFeC2FeH5CHFeC5HCHCHC2HSCHCH4NCH3CH2CSH4CSCHSH3FeSCS3CHSFeH6CSCH2FeS2CH2CH5CHFeCH2SNCH3FeCHC3HFeH2S
_chemical_formula_sum              "C480 H768 S192 Fe96 N48"
_cell_length_a       57.1296
_cell_length_b       28.9611
_cell_length_c       30.7422
_cell_angle_alpha    89.8182
_cell_angle_beta     88.3337
_cell_angle_gamma    91.0509

_space_group_name_H-M_alt    "P 1"
_space_group_IT_number       1

loop_
  _space_group_symop_operation_xyz
  'x, y, z'

loop_
  _atom_site_type_symbol
  _atom_site_label
  _atom_site_symmetry_multiplicity
  _atom_site_fract_x
  _atom_site_fract_y
  _atom_site_fract_z
  _atom_site_occupancy
  C   C1        1.0  0.11810  0.16649  0.20145  1.0000
  H   H1        1.0  0.12375  0.38237  0.21142  1.0000
  S   S1        1.0  0.12894  0.23491  0.30800  1.0000
  C   C2        1.0  0.32637  0.22541  0.41530  1.0000
  H   H2        1.0  0.15749  0.52507  0.39357  1.0000
  H   H3        1.0  0.18520  0.52744  0.42002  1.0000
  C   C3        1.0  0.34861  0.20609  0.41887  1.0000
  H   H4        1.0  0.29419  0.14351  0.47067  1.0000
  H   H5        1.0  0.16192  0.16456  0.23193  1.0000
  H   H6        1.0  0.20512  0.17169  0.34130  1.0000
  H   H7        1.0  0.10909  0.43816  0.31736  1.0000
  C   C4        1.0  0.17101  0.54887  0.40702  1.0000
  H   H8        1.0  0.10118  0.14903  0.19413  1.0000
  H   H9        1.0  0.28422  0.60421  0.55164  1.0000
  C   C5        1.0  0.15046  0.15482  0.44267  1.0000
  C   C6        1.0  0.21061  0.62900  0.58145  1.0000
  C   C7        1.0  0.15106  0.55031  0.47728  1.0000
  Fe  Fe1       1.0  0.25260  0.16755  0.44222  1.0000
  H   H10       1.0  0.13715  0.52602  0.46598  1.0000
  C   C8        1.0  0.17166  0.19973  0.32575  1.0000
  H   H11       1.0  0.10543  0.46372  0.26478  1.0000
  H   H12       1.0  0.16325  0.13460  0.42291  1.0000
  H   H13       1.0  0.10701  0.18159  0.46619  1.0000
  H   H14       1.0  0.16018  0.17085  0.46987  1.0000
  H   H15       1.0  0.13108  0.55660  0.20311  1.0000
  S   S2        1.0  0.27855  0.22449  0.42680  1.0000
  C   C9        1.0  0.14811  0.18981  0.31800  1.0000
  C   C10       1.0  0.16030  0.16381  0.19594  1.0000
  H   H16       1.0  0.32280  0.52771  0.40037  1.0000
  H   H17       1.0  0.17800  0.23519  0.32578  1.0000
  H   H18       1.0  0.16128  0.20024  0.18426  1.0000
  N   N1        1.0  0.16079  0.57904  0.44101  1.0000
  S   S3        1.0  0.11580  0.56106  0.29763  1.0000
  H   H19       1.0  0.11877  0.16963  0.23738  1.0000
  H   H20       1.0  0.16485  0.52923  0.49219  1.0000
  H   H21       1.0  0.12333  0.16917  0.51391  1.0000
  H   H22       1.0  0.34839  0.48837  0.45176  1.0000
  S   S4        1.0  0.21373  0.16903  0.43449  1.0000
  C   C11       1.0  0.12659  0.56044  0.16940  1.0000
  H   H23       1.0  0.29256  0.56982  0.62457  1.0000
  H   H24       1.0  0.11766  0.20214  0.18790  1.0000
  H   H25       1.0  0.33962  0.57988  0.40730  1.0000
  C   C12       1.0  0.30661  0.20269  0.43371  1.0000
  H   H26       1.0  0.33542  0.55757  0.35371  1.0000
  H   H27       1.0  0.32437  0.25718  0.39727  1.0000
  H   H28       1.0  0.17588  0.14573  0.18230  1.0000
  C   C13       1.0  0.11443  0.15324  0.48572  1.0000
  C   C14       1.0  0.18698  0.16386  0.33471  1.0000
  H   H29       1.0  0.15220  0.62517  0.27855  1.0000
  C   C15       1.0  0.10470  0.38473  0.21956  1.0000
  H   H30       1.0  0.14312  0.57195  0.50348  1.0000
  H   H31       1.0  0.17883  0.56951  0.37945  1.0000
  C   C16       1.0  0.14185  0.60623  0.42232  1.0000
  H   H32       1.0  0.30999  0.21419  0.61342  1.0000
  C   C17       1.0  0.26850  0.16795  0.61653  1.0000
  H   H33       1.0  0.32307  0.61485  0.58201  1.0000
  H   H34       1.0  0.30083  0.16046  0.55276  1.0000
  C   C18       1.0  0.30926  0.16154  0.45683  1.0000
  H   H35       1.0  0.12767  0.58339  0.40981  1.0000
  H   H36       1.0  0.26866  0.19840  0.59434  1.0000
  C   C19       1.0  0.10981  0.35007  0.29011  1.0000
  S   S5        1.0  0.18644  0.14986  0.55174  1.0000
  C   C20       1.0  0.33145  0.14305  0.46158  1.0000
  S   S6        1.0  0.10324  0.48793  0.40061  1.0000
  C   C21       1.0  0.19828  0.15891  0.63683  1.0000
  H   H37       1.0  0.19260  0.60468  0.29703  1.0000
  H   H38       1.0  0.14428  0.18322  0.42161  1.0000
  C   C22       1.0  0.33853  0.54743  0.38800  1.0000
  C   C23       1.0  0.30831  0.18451  0.63645  1.0000
  H   H39       1.0  0.20808  0.59615  0.56544  1.0000
  N   N2        1.0  0.10038  0.39014  0.26691  1.0000
  H   H40       1.0  0.10796  0.38960  0.40846  1.0000
  C   C24       1.0  0.10572  0.54097  0.15446  1.0000
  H   H41       1.0  0.34286  0.45531  0.37781  1.0000
  H   H42       1.0  0.25595  0.14208  0.60355  1.0000
  H   H43       1.0  0.11114  0.13235  0.40105  1.0000
  H   H44       1.0  0.13137  0.43209  0.27546  1.0000
  S   S7        1.0  0.25003  0.13737  0.50918  1.0000
  H   H45       1.0  0.19379  0.59130  0.47151  1.0000
  N   N3        1.0  0.13823  0.14072  0.18333  1.0000
  H   H46       1.0  0.15805  0.59945  0.15194  1.0000
  C   C25       1.0  0.14018  0.14385  0.31737  1.0000
  H   H47       1.0  0.12910  0.34744  0.28492  1.0000
  N   N4        1.0  0.29208  0.14848  0.62041  1.0000
  H   H48       1.0  0.18874  0.19086  0.63663  1.0000
  H   H49       1.0  0.12227  0.13567  0.31037  1.0000
  C   C26       1.0  0.17917  0.61065  0.45728  1.0000
  C   C27       1.0  0.11211  0.43290  0.28179  1.0000
  H   H50       1.0  0.10626  0.35219  0.32581  1.0000
  H   H51       1.0  0.10190  0.31706  0.27882  1.0000
  H   H52       1.0  0.14853  0.62801  0.39468  1.0000
  C   C28       1.0  0.30053  0.13211  0.57734  1.0000
  H   H53       1.0  0.13376  0.62970  0.44684  1.0000
  Fe  Fe2       1.0  0.21168  0.13157  0.49820  1.0000
  C   C29       1.0  0.19921  0.13130  0.59963  1.0000
  C   C30       1.0  0.14188  0.58451  0.14047  1.0000
  S   S8        1.0  0.26720  0.15426  0.81949  1.0000
  S   S9        1.0  0.25711  0.22058  0.73406  1.0000
  C   C31       1.0  0.21086  0.44197  0.78365  1.0000
  H   H54       1.0  0.29204  0.33245  0.83854  1.0000
  Fe  Fe3       1.0  0.23048  0.58957  0.72135  1.0000
  H   H55       1.0  0.32179  0.35175  0.78148  1.0000
  S   S10       1.0  0.25291  0.53412  0.74770  1.0000
  H   H56       1.0  0.18399  0.16817  0.97996  1.0000
  H   H57       1.0  0.11021  0.57600  0.04878  1.0000
  H   H58       1.0  0.32586  0.40796  0.80486  1.0000
  C   C32       1.0  0.20018  0.14172  0.92123  1.0000
  S   S11       1.0  0.20639  0.30798  0.74907  1.0000
  H   H59       1.0  0.15964  0.58620  0.96077  1.0000
  H   H60       1.0  0.17909  0.53890  0.95060  1.0000
  H   H61       1.0  0.23139  0.61365  0.92480  1.0000
  C   C33       1.0  0.20843  0.35835  0.78017  1.0000
  C   C34       1.0  0.20730  0.40144  0.75976  1.0000
  H   H62       1.0  0.14825  0.17560  0.88850  1.0000
  C   C35       1.0  0.28599  0.36883  0.83725  1.0000
  Fe  Fe4       1.0  0.27639  0.59233  0.76821  1.0000
  H   H63       1.0  0.21028  0.47517  0.76754  1.0000
  C   C36       1.0  0.32300  0.16965  0.74795  1.0000
  Fe  Fe5       1.0  0.22857  0.25180  0.77496  1.0000
  H   H64       1.0  0.20426  0.40349  0.72521  1.0000
  H   H65       1.0  0.26114  0.17886  0.64867  1.0000
  H   H66       1.0  0.18983  0.57021  0.87810  1.0000
  C   C37       1.0  0.33279  0.21117  0.76267  1.0000
  S   S12       1.0  0.20840  0.59563  0.78236  1.0000
  S   S13       1.0  0.31490  0.57844  0.75926  1.0000
  S   S14       1.0  0.31485  0.25257  0.78758  1.0000
  H   H67       1.0  0.31891  0.40253  0.74849  1.0000
  H   H68       1.0  0.13631  0.18284  0.83567  1.0000
  C   C38       1.0  0.31525  0.38778  0.78151  1.0000
  H   H69       1.0  0.28222  0.32520  0.76065  1.0000
  H   H70       1.0  0.32612  0.17068  0.64120  1.0000
  C   C39       1.0  0.33280  0.62323  0.73707  1.0000
  H   H71       1.0  0.13208  0.24863  0.91505  1.0000
  H   H72       1.0  0.27901  0.37620  0.72804  1.0000
  H   H73       1.0  0.29560  0.38866  0.86225  1.0000
  C   C40       1.0  0.27663  0.36184  0.76151  1.0000
  Fe  Fe6       1.0  0.27810  0.22448  0.79415  1.0000
  S   S15       1.0  0.21318  0.18399  0.79708  1.0000
  Fe  Fe7       1.0  0.23327  0.54579  0.81057  1.0000
  C   C41       1.0  0.21545  0.39641  0.84891  1.0000
  H   H74       1.0  0.28507  0.45367  0.76065  1.0000
  H   H75       1.0  0.29175  0.45889  0.81703  1.0000
  Fe  Fe8       1.0  0.23758  0.19158  0.85252  1.0000
  H   H76       1.0  0.22098  0.55510  0.93043  1.0000
  C   C42       1.0  0.18262  0.14335  0.95389  1.0000
  C   C43       1.0  0.28215  0.43732  0.79322  1.0000
  H   H77       1.0  0.14278  0.25690  0.79538  1.0000
  S   S16       1.0  0.22181  0.48960  0.85722  1.0000
  S   S17       1.0  0.25078  0.26208  0.83284  1.0000
  H   H78       1.0  0.17950  0.28970  0.88892  1.0000
  H   H79       1.0  0.13781  0.17513  0.12122  1.0000
  S   S18       1.0  0.25853  0.59944  0.83365  1.0000
  C   C44       1.0  0.15157  0.19166  0.85595  1.0000
  H   H80       1.0  0.30205  0.19833  0.66845  1.0000
  H   H81       1.0  0.21874  0.39441  0.88334  1.0000
  H   H82       1.0  0.17507  0.23588  0.91764  1.0000
  H   H83       1.0  0.13690  0.30095  0.88410  1.0000
  S   S19       1.0  0.22317  0.18246  0.92067  1.0000
  H   H84       1.0  0.11846  0.25546  0.86352  1.0000
  H   H85       1.0  0.17350  0.24653  0.79709  1.0000
  H   H86       1.0  0.30447  0.16268  0.75248  1.0000
  H   H87       1.0  0.20094  0.62825  0.87257  1.0000
  C   C45       1.0  0.21064  0.14640  0.67365  1.0000
  H   H88       1.0  0.16240  0.30017  0.81642  1.0000
  C   C46       1.0  0.13578  0.59066  0.09713  1.0000
  N   N5        1.0  0.29000  0.38896  0.79337  1.0000
  H   H89       1.0  0.26705  0.36864  0.84698  1.0000
  C   C47       1.0  0.33725  0.13675  0.72764  1.0000
  N   N6        1.0  0.15534  0.24217  0.85930  1.0000
  H   H90       1.0  0.25753  0.36162  0.76971  1.0000
  H   H91       1.0  0.21260  0.32274  0.84094  1.0000
  C   C48       1.0  0.15856  0.26234  0.81523  1.0000
  H   H92       1.0  0.21050  0.16868  0.70176  1.0000
  C   C49       1.0  0.21517  0.43944  0.82813  1.0000
  C   C50       1.0  0.13476  0.26277  0.88147  1.0000
  H   H93       1.0  0.19242  0.23803  0.86839  1.0000
  C   C51       1.0  0.11488  0.57137  0.08231  1.0000
  S   S20       1.0  0.15283  0.62656  0.06258  1.0000
  H   H94       1.0  0.26314  0.43952  0.80182  1.0000
  C   C52       1.0  0.21220  0.35585  0.82487  1.0000
  H   H95       1.0  0.29616  0.60699  0.67054  1.0000
  Fe  Fe9       1.0  0.24389  0.15315  0.76190  1.0000
  C   C53       1.0  0.17643  0.25196  0.88470  1.0000
  H   H96       1.0  0.16713  0.17451  0.84118  1.0000
  S   S21       1.0  0.21557  0.57872  0.65544  1.0000
  N   N7        1.0  0.19438  0.60625  0.93846  1.0000
  C   C54       1.0  0.13712  0.13964  0.13535  1.0000
  H   H97       1.0  0.22374  0.59077  0.97790  1.0000
  C   C55       1.0  0.18861  0.60563  0.89194  1.0000
  H   H98       1.0  0.17061  0.61823  0.88667  1.0000
  C   C56       1.0  0.17810  0.57492  0.96305  1.0000
  C   C57       1.0  0.21869  0.59076  0.94322  1.0000
  H   H99       1.0  0.26773  0.59867  0.64804  1.0000
  H   H100      1.0  0.18215  0.57412  0.99827  1.0000
  C   C58       1.0  0.28676  0.60275  0.63954  1.0000
  C   C59       1.0  0.21234  0.66978  0.55688  1.0000
  C   C60       1.0  0.29481  0.89477  0.44992  1.0000
  C   C61       1.0  0.28346  0.68533  0.63113  1.0000
  C   C62       1.0  0.11833  0.10501  0.42211  1.0000
  H   H101      1.0  0.32136  0.98633  0.32335  1.0000
  H   H102      1.0  0.31466  0.96243  0.37619  1.0000
  H   H103      1.0  0.24904  0.89232  0.49053  1.0000
  H   H104      1.0  0.28073  0.66540  0.54712  1.0000
  Fe  Fe10      1.0  0.27309  0.78034  0.41057  1.0000
  S   S22       1.0  0.28231  0.71022  0.38507  1.0000
  S   S23       1.0  0.28441  0.84606  0.37665  1.0000
  C   C63       1.0  0.32831  0.98168  0.35650  1.0000
  H   H105      1.0  0.13015  0.08348  0.40159  1.0000
  H   H106      1.0  0.22261  0.84690  0.59541  1.0000
  Fe  Fe11      1.0  0.24454  0.69220  0.39995  1.0000
  S   S24       1.0  0.28171  0.76476  0.47967  1.0000
  S   S25       1.0  0.27673  0.01761  0.50134  1.0000
  C   C64       1.0  0.16381  0.71228  0.34896  1.0000
  S   S26       1.0  0.25731  0.09990  0.40829  1.0000
  H   H107      1.0  0.33326  0.11136  0.47975  1.0000
  C   C65       1.0  0.21187  0.09034  0.59972  1.0000
  C   C66       1.0  0.15108  0.68423  0.32086  1.0000
  C   C67       1.0  0.17885  0.11801  0.33496  1.0000
  C   C68       1.0  0.18670  0.70069  0.35944  1.0000
  H   H108      1.0  0.22357  0.85614  0.49830  1.0000
  H   H109      1.0  0.19606  0.72142  0.38243  1.0000
  C   C69       1.0  0.12893  0.77205  0.17299  1.0000
  H   H110      1.0  0.20271  0.93133  0.51297  1.0000
  C   C70       1.0  0.26799  0.93025  0.40080  1.0000
  C   C71       1.0  0.28211  0.89323  0.41170  1.0000
  S   S27       1.0  0.23472  0.76412  0.41945  1.0000
  Fe  Fe12      1.0  0.21814  0.09801  0.40681  1.0000
  S   S28       1.0  0.22467  0.64362  0.35677  1.0000
  H   H111      1.0  0.25817  0.92905  0.37120  1.0000
  H   H112      1.0  0.26301  0.93964  0.55473  1.0000
  H   H113      1.0  0.13974  0.80281  0.16277  1.0000
  H   H114      1.0  0.23357  0.04567  0.63696  1.0000
  H   H115      1.0  0.20678  0.89863  0.60731  1.0000
  H   H116      1.0  0.11595  0.69961  0.22091  1.0000
  C   C72       1.0  0.26619  0.96845  0.42847  1.0000
  H   H117      1.0  0.25483  0.99644  0.42026  1.0000
  S   S29       1.0  0.19689  0.07343  0.35114  1.0000
  H   H118      1.0  0.15571  0.74205  0.36386  1.0000
  S   S30       1.0  0.12170  0.69598  0.31180  1.0000
  C   C73       1.0  0.29346  0.93352  0.47709  1.0000
  H   H119      1.0  0.14884  0.10164  0.51517  1.0000
  H   H120      1.0  0.13884  0.66160  0.20403  1.0000
  H   H121      1.0  0.22983  0.96369  0.51042  1.0000
  C   C74       1.0  0.27902  0.97020  0.46648  1.0000
  C   C75       1.0  0.16162  0.64594  0.30153  1.0000
  C   C76       1.0  0.15890  0.74290  0.21882  1.0000
  C   C77       1.0  0.12840  0.69153  0.19361  1.0000
  Fe  Fe13      1.0  0.28777  0.69305  0.45514  1.0000
  H   H122      1.0  0.11670  0.76468  0.14629  1.0000
  H   H123      1.0  0.15292  0.06679  0.46753  1.0000
  N   N8        1.0  0.33429  0.02650  0.37669  1.0000
  H   H124      1.0  0.14937  0.07244  0.32497  1.0000
  H   H125      1.0  0.32071  0.67617  0.57710  1.0000
  N   N9        1.0  0.14362  0.73186  0.18212  1.0000
  C   C78       1.0  0.23840  0.87283  0.51540  1.0000
  S   S31       1.0  0.25090  0.66853  0.46787  1.0000
  H   H126      1.0  0.32919  0.72851  0.42439  1.0000
  H   H127      1.0  0.30589  0.86630  0.45815  1.0000
  H   H128      1.0  0.32713  0.65077  0.62882  1.0000
  H   H129      1.0  0.11812  0.78192  0.20210  1.0000
  H   H130      1.0  0.16916  0.69021  0.14853  1.0000
  C   C79       1.0  0.34481  0.70903  0.42980  1.0000
  Fe  Fe14      1.0  0.24408  0.74190  0.48635  1.0000
  C   C80       1.0  0.15561  0.10796  0.32511  1.0000
  N   N10       1.0  0.13078  0.12522  0.45917  1.0000
  C   C81       1.0  0.21784  0.71385  0.62267  1.0000
  H   H131      1.0  0.29939  0.03897  0.40132  1.0000
  C   C82       1.0  0.34371  0.66934  0.45584  1.0000
  C   C83       1.0  0.31316  0.05514  0.37960  1.0000
  C   C84       1.0  0.19702  0.66161  0.34113  1.0000
  H   H132      1.0  0.19863  0.86224  0.56257  1.0000
  H   H133      1.0  0.22087  0.74654  0.63867  1.0000
  C   C85       1.0  0.34301  0.01841  0.42082  1.0000
  Fe  Fe15      1.0  0.25216  0.06960  0.47500  1.0000
  H   H134      1.0  0.21272  0.06906  0.57093  1.0000
  C   C86       1.0  0.27827  0.63539  0.56958  1.0000
  S   S32       1.0  0.22310  0.76150  0.54610  1.0000
  H   H135      1.0  0.24944  0.84468  0.52776  1.0000
  H   H136      1.0  0.34383  0.95910  0.35348  1.0000
  H   H137      1.0  0.21047  0.66859  0.52208  1.0000
  C   C87       1.0  0.21678  0.71196  0.57731  1.0000
  S   S33       1.0  0.31702  0.64981  0.47908  1.0000
  H   H138      1.0  0.10332  0.08256  0.43340  1.0000
  H   H139      1.0  0.32924  0.00206  0.44253  1.0000
  H   H140      1.0  0.34662  0.05777  0.31650  1.0000
  C   C88       1.0  0.21377  0.87675  0.58041  1.0000
  S   S34       1.0  0.21328  0.06042  0.47046  1.0000
  H   H141      1.0  0.25973  0.89097  0.59069  1.0000
  C   C89       1.0  0.13992  0.08767  0.48619  1.0000
  C   C90       1.0  0.13735  0.09297  0.20052  1.0000
  C   C91       1.0  0.31667  0.64625  0.59906  1.0000
  C   C92       1.0  0.15824  0.72105  0.14312  1.0000
  N   N11       1.0  0.23005  0.90313  0.55102  1.0000
  H   H142      1.0  0.12093  0.07455  0.19141  1.0000
  H   H143      1.0  0.34863  0.05133  0.43621  1.0000
  C   C93       1.0  0.25022  0.92004  0.57592  1.0000
  H   H144      1.0  0.30341  0.93481  0.50649  1.0000
  H   H145      1.0  0.14841  0.75166  0.24867  1.0000
  H   H146      1.0  0.13802  0.09253  0.23666  1.0000
  H   H147      1.0  0.11787  0.68010  0.16560  1.0000
  H   H148      1.0  0.24457  0.94353  0.60268  1.0000
  H   H149      1.0  0.30542  0.06028  0.34717  1.0000
  H   H150      1.0  0.28905  0.10378  0.56503  1.0000
  H   H151      1.0  0.21124  0.96650  0.55830  1.0000
  H   H152      1.0  0.17074  0.77296  0.21118  1.0000
  H   H153      1.0  0.28622  0.71581  0.60933  1.0000
  H   H154      1.0  0.17005  0.71319  0.22720  1.0000
  N   N12       1.0  0.29132  0.64240  0.60987  1.0000
  H   H155      1.0  0.31717  0.08999  0.39282  1.0000
  C   C94       1.0  0.21786  0.94289  0.53240  1.0000
  H   H156      1.0  0.12558  0.06402  0.49827  1.0000
  H   H157      1.0  0.15238  0.07260  0.18776  1.0000
  C   C95       1.0  0.22364  0.07711  0.63702  1.0000
  H   H158      1.0  0.25917  0.63109  0.57668  1.0000
  C   C96       1.0  0.21342  0.63045  0.62648  1.0000
  H   H159      1.0  0.18696  0.63268  0.43064  1.0000
  C   C97       1.0  0.18457  0.63469  0.31162  1.0000
  H   H160      1.0  0.17209  0.63414  0.48286  1.0000
  H   H161      1.0  0.31854  0.11836  0.57879  1.0000
  H   H162      1.0  0.29305  0.69220  0.66140  1.0000
  H   H163      1.0  0.18493  0.68131  0.79082  1.0000
  H   H164      1.0  0.14241  0.68707  0.80806  1.0000
  H   H165      1.0  0.30543  0.67315  0.73564  1.0000
  H   H166      1.0  0.33023  0.73312  0.69791  1.0000
  C   C98       1.0  0.29094  0.10931  0.65138  1.0000
  S   S35       1.0  0.24070  0.09199  0.71783  1.0000
  C   C99       1.0  0.32349  0.66617  0.72716  1.0000
  C   C100      1.0  0.10791  0.93648  0.95045  1.0000
  H   H167      1.0  0.14913  0.11594  0.97678  1.0000
  Fe  Fe16      1.0  0.23517  0.64923  0.80059  1.0000
  S   S36       1.0  0.25551  0.64753  0.73684  1.0000
  C   C101      1.0  0.16292  0.11389  0.95205  1.0000
  H   H168      1.0  0.15411  0.95103  0.93926  1.0000
  H   H169      1.0  0.11552  0.95922  0.97579  1.0000
  C   C102      1.0  0.13253  0.87323  0.96986  1.0000
  H   H170      1.0  0.26450  0.68323  0.64021  1.0000
  C   C103      1.0  0.22340  0.10561  0.67370  1.0000
  C   C104      1.0  0.17904  0.70015  0.81922  1.0000
  Fe  Fe17      1.0  0.10982  0.76983  0.03971  1.0000
  S   S37       1.0  0.22555  0.71308  0.83799  1.0000
  S   S38       1.0  0.13577  0.04782  0.91357  1.0000
  H   H171      1.0  0.19564  0.65524  0.99084  1.0000
  S   S39       1.0  0.11870  0.83444  0.07602  1.0000
  S   S40       1.0  0.13923  0.73871  0.00086  1.0000
  H   H172      1.0  0.14607  0.84836  0.95887  1.0000
  C   C105      1.0  0.17898  0.07949  0.88622  1.0000
  Fe  Fe18      1.0  0.11196  0.72303  0.95187  1.0000
  S   S41       1.0  0.10321  0.07345  0.02460  1.0000
  C   C106      1.0  0.14722  0.72817  0.86553  1.0000
  H   H173      1.0  0.13991  0.89400  0.99683  1.0000
  Fe  Fe19      1.0  0.10636  0.07903  0.95200  1.0000
  C   C107      1.0  0.18754  0.74743  0.88174  1.0000
  H   H174      1.0  0.17016  0.75048  0.13377  1.0000
  H   H175      1.0  0.20012  0.76444  0.90223  1.0000
  H   H176      1.0  0.11745  0.85272  0.98382  1.0000
  H   H177      1.0  0.17759  0.05496  0.85989  1.0000
  Fe  Fe20      1.0  0.12707  0.67256  0.03190  1.0000
  H   H178      1.0  0.12234  0.93206  0.08799  1.0000
  H   H179      1.0  0.10200  0.95958  0.92405  1.0000
  H   H180      1.0  0.21218  0.10761  0.86275  1.0000
  C   C108      1.0  0.16352  0.75056  0.89161  1.0000
  C   C109      1.0  0.19220  0.65374  0.95540  1.0000
  H   H181      1.0  0.14091  0.95067  0.88726  1.0000
  H   H182      1.0  0.15765  0.77075  0.91910  1.0000
  H   H183      1.0  0.15938  0.90399  0.90229  1.0000
  H   H184      1.0  0.21752  0.67439  0.68225  1.0000
  C   C110      1.0  0.33758  0.70015  0.70610  1.0000
  C   C111      1.0  0.10489  0.92397  0.07716  1.0000
  H   H185      1.0  0.30807  0.09187  0.65318  1.0000
  C   C112      1.0  0.16105  0.08220  0.91800  1.0000
  S   S42       1.0  0.11725  0.72914  0.87966  1.0000
  C   C113      1.0  0.21619  0.67300  0.64729  1.0000
  C   C114      1.0  0.14582  0.92808  0.91482  1.0000
  C   C115      1.0  0.15497  0.70383  0.82875  1.0000
  N   N13       1.0  0.12518  0.90293  0.93376  1.0000
  H   H186      1.0  0.20478  0.67794  0.93827  1.0000
  C   C116      1.0  0.19537  0.72123  0.84619  1.0000
  S   S43       1.0  0.10236  0.65333  0.97948  1.0000
  H   H187      1.0  0.15192  0.12022  0.12040  1.0000
  H   H188      1.0  0.10886  0.89499  0.87201  1.0000
  H   H189      1.0  0.12697  0.84769  0.88706  1.0000
  H   H190      1.0  0.32975  0.10418  0.71741  1.0000
  H   H191      1.0  0.17428  0.66712  0.95085  1.0000
  C   C117      1.0  0.11447  0.87380  0.89998  1.0000
  H   H192      1.0  0.14730  0.71342  0.11458  1.0000
  H   H193      1.0  0.12054  0.12299  0.12463  1.0000
  C   C118      1.0  0.19846  0.10951  0.88764  1.0000
  H   H194      1.0  0.28598  0.12089  0.68487  1.0000
  H   H195      1.0  0.27763  0.08288  0.64202  1.0000
  H   H196      1.0  0.47934  0.34058  0.24092  1.0000
  H   H197      1.0  0.51277  0.28666  0.24797  1.0000
  H   H198      1.0  0.48183  0.18488  0.63380  1.0000
  H   H199      1.0  0.36335  0.61491  0.48437  1.0000
  S   S44       1.0  0.43009  0.50153  0.44726  1.0000
  H   H200      1.0  0.40301  0.34642  0.41136  1.0000
  C   C119      1.0  0.42986  0.42118  0.33967  1.0000
  C   C120      1.0  0.49968  0.25800  0.25240  1.0000
  S   S45       1.0  0.46097  0.24938  0.36659  1.0000
  H   H201      1.0  0.36373  0.22292  0.40339  1.0000
  H   H202      1.0  0.45630  0.22407  0.27196  1.0000
  C   C121      1.0  0.41434  0.41551  0.42660  1.0000
  S   S46       1.0  0.46675  0.13221  0.30235  1.0000
  S   S47       1.0  0.49167  0.59100  0.27628  1.0000
  H   H203      1.0  0.58254  0.60106  0.35242  1.0000
  S   S48       1.0  0.41165  0.19593  0.34086  1.0000
  S   S49       1.0  0.57383  0.18679  0.28668  1.0000
  Fe  Fe21      1.0  0.45157  0.23112  0.43564  1.0000
  S   S50       1.0  0.41458  0.25459  0.43233  1.0000
  H   H204      1.0  0.45167  0.40883  0.48632  1.0000
  C   C122      1.0  0.42537  0.45601  0.41103  1.0000
  C   C123      1.0  0.41961  0.38002  0.35581  1.0000
  C   C124      1.0  0.50722  0.17100  0.33204  1.0000
  Fe  Fe22      1.0  0.44889  0.17720  0.35165  1.0000
  C   C125      1.0  0.53090  0.18412  0.32781  1.0000
  C   C126      1.0  0.41160  0.37752  0.39912  1.0000
  Fe  Fe23      1.0  0.44853  0.56388  0.41797  1.0000
  H   H205      1.0  0.44148  0.49040  0.35517  1.0000
  H   H206      1.0  0.45454  0.35552  0.45681  1.0000
  H   H207      1.0  0.37943  0.48690  0.44115  1.0000
  Fe  Fe24      1.0  0.59364  0.13833  0.24340  1.0000
  H   H208      1.0  0.50806  0.22591  0.24025  1.0000
  H   H209      1.0  0.53276  0.59127  0.22140  1.0000
  H   H210      1.0  0.40822  0.41319  0.46021  1.0000
  H   H211      1.0  0.50444  0.33584  0.48582  1.0000
  S   S51       1.0  0.41765  0.33129  0.32240  1.0000
  H   H212      1.0  0.42011  0.20276  0.60486  1.0000
  H   H213      1.0  0.41752  0.13307  0.50465  1.0000
  H   H214      1.0  0.49373  0.32982  0.43202  1.0000
  S   S52       1.0  0.48659  0.56719  0.39844  1.0000
  H   H215      1.0  0.38258  0.58043  0.39283  1.0000
  H   H216      1.0  0.44447  0.23366  0.21954  1.0000
  H   H217      1.0  0.53887  0.20513  0.35261  1.0000
  H   H218      1.0  0.50069  0.43014  0.40503  1.0000
  N   N14       1.0  0.47783  0.26726  0.22954  1.0000
  C   C127      1.0  0.46743  0.31020  0.24657  1.0000
  H   H219      1.0  0.57353  0.61437  0.40760  1.0000
  C   C128      1.0  0.46105  0.22836  0.23682  1.0000
  H   H220      1.0  0.49993  0.40972  0.52538  1.0000
  S   S53       1.0  0.44311  0.15696  0.42137  1.0000
  H   H221      1.0  0.46363  0.30770  0.28225  1.0000
  H   H222      1.0  0.47405  0.39754  0.39681  1.0000
  H   H223      1.0  0.46511  0.35981  0.51086  1.0000
  Fe  Fe25      1.0  0.40673  0.18169  0.41237  1.0000
  H   H224      1.0  0.54165  0.61639  0.32969  1.0000
  H   H225      1.0  0.35513  0.48495  0.33073  1.0000
  H   H226      1.0  0.48340  0.16200  0.47403  1.0000
  C   C129      1.0  0.43293  0.45912  0.36741  1.0000
  H   H227      1.0  0.43599  0.42331  0.30607  1.0000
  C   C130      1.0  0.54440  0.16945  0.29194  1.0000
  Fe  Fe26      1.0  0.42319  0.26687  0.36145  1.0000
  H   H228      1.0  0.45048  0.31754  0.23113  1.0000
  H   H229      1.0  0.49704  0.18154  0.36030  1.0000
  S   S54       1.0  0.43644  0.59783  0.35728  1.0000
  H   H230      1.0  0.51926  0.36541  0.44122  1.0000
  H   H231      1.0  0.51487  0.43997  0.48120  1.0000
  C   C131      1.0  0.53420  0.14168  0.26022  1.0000
  C   C132      1.0  0.46344  0.37925  0.47980  1.0000
  C   C133      1.0  0.36362  0.50823  0.43747  1.0000
  C   C134      1.0  0.40256  0.18694  0.59906  1.0000
  C   C135      1.0  0.41553  0.16241  0.52767  1.0000
  H   H232      1.0  0.49091  0.24025  0.16868  1.0000
  H   H233      1.0  0.49630  0.25328  0.28797  1.0000
  H   H234      1.0  0.46851  0.19503  0.22555  1.0000
  C   C136      1.0  0.49689  0.14408  0.29990  1.0000
  H   H235      1.0  0.37398  0.45623  0.36746  1.0000
  C   C137      1.0  0.35787  0.47730  0.36571  1.0000
  C   C138      1.0  0.48355  0.41959  0.42041  1.0000
  N   N15       1.0  0.48655  0.39519  0.46213  1.0000
  Fe  Fe27      1.0  0.47473  0.60754  0.34093  1.0000
  C   C139      1.0  0.52873  0.62678  0.22894  1.0000
  H   H236      1.0  0.39690  0.52851  0.37687  1.0000
  C   C140      1.0  0.38034  0.54779  0.37437  1.0000
  H   H237      1.0  0.47333  0.45160  0.42520  1.0000
  C   C141      1.0  0.48190  0.17972  0.59899  1.0000
  C   C142      1.0  0.50172  0.35495  0.45490  1.0000
  C   C143      1.0  0.47924  0.21756  0.57113  1.0000
  H   H238      1.0  0.36949  0.15410  0.54615  1.0000
  C   C144      1.0  0.48272  0.16698  0.50885  1.0000
  C   C145      1.0  0.47907  0.21100  0.52608  1.0000
  C   C146      1.0  0.49744  0.42703  0.49349  1.0000
  H   H239      1.0  0.40499  0.18905  0.51146  1.0000
  S   S55       1.0  0.47199  0.25700  0.49202  1.0000
  H   H240      1.0  0.48631  0.45772  0.49969  1.0000
  H   H241      1.0  0.47661  0.25160  0.58460  1.0000
  H   H242      1.0  0.39152  0.21441  0.58544  1.0000
  N   N16       1.0  0.36006  0.52019  0.39138  1.0000
  H   H243      1.0  0.43327  0.17759  0.53250  1.0000
  C   C147      1.0  0.48316  0.27232  0.18241  1.0000
  H   H244      1.0  0.37841  0.55730  0.33957  1.0000
  C   C148      1.0  0.48455  0.13538  0.58181  1.0000
  H   H245      1.0  0.36621  0.53964  0.45755  1.0000
  N   N17       1.0  0.40438  0.14709  0.56931  1.0000
  H   H246      1.0  0.39468  0.17650  0.63129  1.0000
  S   S56       1.0  0.37813  0.13790  0.44386  1.0000
  H   H247      1.0  0.54448  0.13083  0.23214  1.0000
  H   H248      1.0  0.49595  0.30111  0.17569  1.0000
  H   H249      1.0  0.46708  0.27951  0.16412  1.0000
  C   C149      1.0  0.35103  0.16462  0.44162  1.0000
  C   C150      1.0  0.58041  0.62957  0.37635  1.0000
  S   S57       1.0  0.44986  0.62887  0.45732  1.0000
  Fe  Fe28      1.0  0.45395  0.17225  0.75109  1.0000
  C   C151      1.0  0.49285  0.24774  0.78180  1.0000
  Fe  Fe29      1.0  0.59950  0.58012  0.84797  1.0000
  H   H250      1.0  0.54474  0.62503  0.02828  1.0000
  H   H251      1.0  0.51991  0.58265  0.75172  1.0000
  H   H252      1.0  0.49795  0.21762  0.71831  1.0000
  H   H253      1.0  0.38985  0.19312  0.73289  1.0000
  S   S58       1.0  0.43961  0.16320  0.68470  1.0000
  C   C152      1.0  0.54258  0.38986  0.77355  1.0000
  C   C153      1.0  0.54178  0.25461  0.78309  1.0000
  C   C154      1.0  0.58373  0.44528  0.92323  1.0000
  S   S59       1.0  0.57232  0.25886  0.78357  1.0000
  H   H254      1.0  0.59020  0.39429  0.83733  1.0000
  C   C155      1.0  0.50637  0.23240  0.74625  1.0000
  S   S60       1.0  0.46247  0.23956  0.78299  1.0000
  H   H255      1.0  0.55984  0.39461  0.85414  1.0000
  C   C156      1.0  0.55113  0.62265  0.73455  1.0000
  C   C157      1.0  0.47564  0.14916  0.87458  1.0000
  C   C158      1.0  0.35691  0.21965  0.75705  1.0000
  C   C159      1.0  0.36132  0.14518  0.72198  1.0000
  H   H256      1.0  0.54127  0.22492  0.71895  1.0000
  H   H257      1.0  0.52928  0.39888  0.79917  1.0000
  C   C160      1.0  0.37121  0.18653  0.73691  1.0000
  C   C161      1.0  0.53083  0.23660  0.74659  1.0000
  C   C162      1.0  0.51011  0.17802  0.90998  1.0000
  H   H258      1.0  0.58951  0.37999  0.95473  1.0000
  N   N18       1.0  0.56637  0.40519  0.78549  1.0000
  C   C163      1.0  0.56721  0.45605  0.78947  1.0000
  H   H259      1.0  0.50015  0.18374  0.94110  1.0000
  C   C164      1.0  0.59713  0.40708  0.93424  1.0000
  C   C165      1.0  0.54941  0.16863  0.07246  1.0000
  C   C166      1.0  0.35652  0.61514  0.72756  1.0000
  C   C167      1.0  0.52826  0.26991  0.81870  1.0000
  H   H260      1.0  0.47455  0.18124  0.85477  1.0000
  H   H261      1.0  0.56210  0.60412  0.75644  1.0000
  S   S61       1.0  0.57601  0.29492  0.90692  1.0000
  H   H262      1.0  0.56299  0.47333  0.75836  1.0000
  S   S62       1.0  0.57650  0.52716  0.88167  1.0000
  Fe  Fe30      1.0  0.57340  0.22918  0.94563  1.0000
  Fe  Fe31      1.0  0.58502  0.24864  0.85098  1.0000
  H   H263      1.0  0.36458  0.25159  0.76864  1.0000
  H   H264      1.0  0.36385  0.58206  0.73543  1.0000
  S   S63       1.0  0.54506  0.21626  0.99633  1.0000
  C   C168      1.0  0.57223  0.38412  0.82752  1.0000
  H   H265      1.0  0.57154  0.34584  0.82566  1.0000
  S   S64       1.0  0.57876  0.18270  0.88824  1.0000
  H   H266      1.0  0.51004  0.21081  0.89114  1.0000
  H   H267      1.0  0.49326  0.27934  0.84507  1.0000
  C   C169      1.0  0.55160  0.16730  0.02704  1.0000
  H   H268      1.0  0.54158  0.35173  0.76912  1.0000
  C   C170      1.0  0.59355  0.48041  0.89683  1.0000
  H   H269      1.0  0.53730  0.40594  0.74249  1.0000
  C   C171      1.0  0.50376  0.26737  0.81763  1.0000
  H   H270      1.0  0.54334  0.19960  0.08844  1.0000
  H   H271      1.0  0.58486  0.46869  0.79899  1.0000
  H   H272      1.0  0.53663  0.28422  0.84681  1.0000
  C   C172      1.0  0.51405  0.13294  0.84432  1.0000
  H   H273      1.0  0.56575  0.44742  0.93499  1.0000
  N   N19       1.0  0.50013  0.13917  0.88511  1.0000
  H   H274      1.0  0.55448  0.46816  0.81493  1.0000
  H   H275      1.0  0.51346  0.16404  0.82301  1.0000
  H   H276      1.0  0.58056  0.61670  0.07231  1.0000
  H   H277      1.0  0.52854  0.17155  0.91848  1.0000
  C   C173      1.0  0.58350  0.39050  0.75157  1.0000
  S   S65       1.0  0.48247  0.62504  0.70669  1.0000
  H   H278      1.0  0.56207  0.62444  0.11991  1.0000
  C   C174      1.0  0.52731  0.61041  0.73177  1.0000
  H   H279      1.0  0.58332  0.35215  0.74805  1.0000
  H   H280      1.0  0.46452  0.15380  0.90448  1.0000
  H   H281      1.0  0.57960  0.40548  0.71927  1.0000
  H   H282      1.0  0.55476  0.13224  0.13253  1.0000
  C   C175      1.0  0.55599  0.13061  0.09739  1.0000
  S   S66       1.0  0.58311  0.06376  0.23606  1.0000
  C   C176      1.0  0.38537  0.65887  0.44320  1.0000
  S   S67       1.0  0.41327  0.71785  0.39373  1.0000
  H   H283      1.0  0.50728  0.74972  0.60665  1.0000
  H   H284      1.0  0.46665  0.98418  0.62020  1.0000
  Fe  Fe32      1.0  0.44058  0.66335  0.39511  1.0000
  S   S68       1.0  0.55833  0.75302  0.20732  1.0000
  H   H285      1.0  0.35842  0.99546  0.41998  1.0000
  C   C177      1.0  0.57431  0.68390  0.31830  1.0000
  C   C178      1.0  0.51847  0.71860  0.24833  1.0000
  C   C179      1.0  0.49186  0.73845  0.48516  1.0000
  H   H286      1.0  0.59230  0.69860  0.32184  1.0000
  H   H287      1.0  0.52354  0.68566  0.56243  1.0000
  C   C180      1.0  0.56307  0.70322  0.39225  1.0000
  H   H288      1.0  0.41092  0.09849  0.62044  1.0000
  S   S69       1.0  0.47782  0.67671  0.37287  1.0000
  H   H289      1.0  0.56317  0.71164  0.30539  1.0000
  H   H290      1.0  0.50244  0.10821  0.23928  1.0000
  C   C181      1.0  0.41877  0.11107  0.58892  1.0000
  H   H291      1.0  0.51439  0.75410  0.25582  1.0000
  C   C182      1.0  0.36406  0.64476  0.46317  1.0000
  H   H292      1.0  0.49428  0.98592  0.59135  1.0000
  C   C183      1.0  0.57510  0.93372  0.15763  1.0000
  C   C184      1.0  0.38650  0.69843  0.41695  1.0000
  N   N20       1.0  0.58088  0.90577  0.19607  1.0000
  C   C185      1.0  0.48224  0.96325  0.61144  1.0000
  C   C186      1.0  0.54366  0.66256  0.21381  1.0000
  H   H293      1.0  0.48715  0.73495  0.45153  1.0000
  H   H294      1.0  0.59278  0.91733  0.26106  1.0000
  H   H295      1.0  0.36707  0.75454  0.39053  1.0000
  C   C187      1.0  0.50356  0.68272  0.26378  1.0000
  C   C188      1.0  0.36625  0.72378  0.41066  1.0000
  H   H296      1.0  0.41676  0.70941  0.49666  1.0000
  H   H297      1.0  0.37641  0.72775  0.56605  1.0000
  S   S70       1.0  0.44412  0.71085  0.63535  1.0000
  H   H298      1.0  0.42074  0.08075  0.56708  1.0000
  H   H299      1.0  0.39723  0.82326  0.57728  1.0000
  C   C189      1.0  0.53881  0.70844  0.22403  1.0000
  H   H300      1.0  0.56425  0.85520  0.23864  1.0000
  H   H301      1.0  0.48780  0.69071  0.28227  1.0000
  H   H302      1.0  0.57251  0.95913  0.24229  1.0000
  Fe  Fe33      1.0  0.59534  0.72830  0.20145  1.0000
  H   H303      1.0  0.52736  0.94031  0.61805  1.0000
  H   H304      1.0  0.55084  0.73028  0.38168  1.0000
  C   C190      1.0  0.58734  0.93691  0.23192  1.0000
  H   H305      1.0  0.40094  0.63939  0.44860  1.0000
  H   H306      1.0  0.52896  0.67123  0.34155  1.0000
  H   H307      1.0  0.40145  0.77931  0.46368  1.0000
  H   H308      1.0  0.43813  0.73942  0.52791  1.0000
  H   H309      1.0  0.48773  0.09499  0.52328  1.0000
  Fe  Fe34      1.0  0.48677  0.63587  0.43164  1.0000
  N   N21       1.0  0.56474  0.66543  0.36015  1.0000
  C   C191      1.0  0.50319  0.74688  0.57267  1.0000
  S   S71       1.0  0.51597  0.65814  0.47403  1.0000
  H   H310      1.0  0.47638  0.93405  0.59062  1.0000
  C   C192      1.0  0.48855  0.77906  0.55391  1.0000
  C   C193      1.0  0.40935  0.79410  0.57179  1.0000
  H   H311      1.0  0.42747  0.80861  0.56935  1.0000
  C   C194      1.0  0.37905  0.75028  0.53676  1.0000
  C   C195      1.0  0.51245  0.71082  0.54760  1.0000
  C   C196      1.0  0.40630  0.79782  0.49385  1.0000
  N   N22       1.0  0.40352  0.76753  0.53251  1.0000
  H   H312      1.0  0.36889  0.03029  0.34711  1.0000
  C   C197      1.0  0.50638  0.70598  0.50407  1.0000
  S   S72       1.0  0.48405  0.08718  0.61644  1.0000
  H   H313      1.0  0.40811  0.77198  0.60135  1.0000
  H   H314      1.0  0.37410  0.72972  0.50791  1.0000
  H   H315      1.0  0.39503  0.82862  0.49671  1.0000
  C   C198      1.0  0.51442  0.91909  0.63756  1.0000
  C   C199      1.0  0.48333  0.77554  0.50986  1.0000
  H   H316      1.0  0.50932  0.88886  0.61730  1.0000
  C   C200      1.0  0.41942  0.72802  0.52777  1.0000
  H   H317      1.0  0.47195  0.80028  0.49527  1.0000
  S   S73       1.0  0.47474  0.82030  0.58685  1.0000
  H   H318      1.0  0.41661  0.70261  0.55473  1.0000
  H   H319      1.0  0.36654  0.77912  0.54003  1.0000
  H   H320      1.0  0.57550  0.65637  0.29317  1.0000
  H   H321      1.0  0.38153  0.09800  0.53889  1.0000
  H   H322      1.0  0.56048  0.95767  0.16508  1.0000
  H   H323      1.0  0.42480  0.81003  0.48906  1.0000
  H   H324      1.0  0.58046  0.72006  0.39721  1.0000
  C   C201      1.0  0.56035  0.87698  0.20988  1.0000
  H   H325      1.0  0.54503  0.89853  0.21882  1.0000
  H   H326      1.0  0.55495  0.85305  0.18357  1.0000
  H   H327      1.0  0.53339  0.63103  0.38481  1.0000
  H   H328      1.0  0.55640  0.69025  0.42452  1.0000
  C   C202      1.0  0.35263  0.05081  0.34997  1.0000
  Fe  Fe35      1.0  0.59308  0.07522  0.16571  1.0000
  C   C203      1.0  0.50891  0.63671  0.25470  1.0000
  H   H329      1.0  0.43668  0.12442  0.59533  1.0000
  H   H330      1.0  0.55872  0.65451  0.19374  1.0000
  C   C204      1.0  0.54118  0.64504  0.35376  1.0000
  H   H331      1.0  0.37191  0.11606  0.59246  1.0000
  H   H332      1.0  0.59655  0.85146  0.15813  1.0000
  H   H333      1.0  0.35755  0.08474  0.36460  1.0000
  H   H334      1.0  0.59034  0.95553  0.14617  1.0000
  H   H335      1.0  0.59828  0.64402  0.38206  1.0000
  C   C205      1.0  0.48549  0.12917  0.53671  1.0000
  C   C206      1.0  0.51042  0.12902  0.26419  1.0000
  C   C207      1.0  0.38072  0.12795  0.56147  1.0000
  S   S74       1.0  0.43989  0.05076  0.70546  1.0000
  H   H336      1.0  0.49037  0.10001  0.94255  1.0000
  S   S75       1.0  0.58853  0.65360  0.84091  1.0000
  H   H337      1.0  0.56096  0.12583  0.97135  1.0000
  S   S76       1.0  0.37789  0.73330  0.66630  1.0000
  Fe  Fe36      1.0  0.45162  0.77904  0.74242  1.0000
  H   H338      1.0  0.38900  0.64282  0.69967  1.0000
  Fe  Fe37      1.0  0.41625  0.73661  0.68176  1.0000
  C   C208      1.0  0.56063  0.65892  0.70904  1.0000
  S   S77       1.0  0.48231  0.75842  0.70061  1.0000
  S   S78       1.0  0.43178  0.80820  0.68719  1.0000
  C   C209      1.0  0.50188  0.73412  0.87041  1.0000
  Fe  Fe38      1.0  0.45447  0.07017  0.76994  1.0000
  C   C210      1.0  0.55026  0.71245  0.10101  1.0000
  H   H339      1.0  0.47267  0.66546  0.84647  1.0000
  Fe  Fe39      1.0  0.46307  0.69073  0.69521  1.0000
  S   S79       1.0  0.59008  0.67608  0.71360  1.0000
  C   C211      1.0  0.45371  0.94623  0.78250  1.0000
  S   S80       1.0  0.57512  0.04536  0.10788  1.0000
  H   H340      1.0  0.44564  0.96799  0.75888  1.0000
  H   H341      1.0  0.56503  0.73122  0.11641  1.0000
  S   S81       1.0  0.43354  0.70973  0.74109  1.0000
  C   C212      1.0  0.52248  0.67085  0.67852  1.0000
  H   H342      1.0  0.46984  0.71372  0.81053  1.0000
  H   H343      1.0  0.44272  0.88243  0.75232  1.0000
  H   H344      1.0  0.48316  0.66204  0.79105  1.0000
  H   H345      1.0  0.52345  0.90547  0.66638  1.0000
  H   H346      1.0  0.51364  0.00952  0.65870  1.0000
  H   H347      1.0  0.48516  0.90372  0.70655  1.0000
  C   C213      1.0  0.48163  0.68535  0.81964  1.0000
  C   C214      1.0  0.36120  0.69179  0.69600  1.0000
  C   C215      1.0  0.50073  0.09651  0.91156  1.0000
  H   H348      1.0  0.49351  0.71543  0.89861  1.0000
  S   S82       1.0  0.48158  0.11911  0.74166  1.0000
  H   H349      1.0  0.57943  0.67347  0.01107  1.0000
  H   H350      1.0  0.48398  0.95314  0.87599  1.0000
  C   C216      1.0  0.45206  0.89788  0.77881  1.0000
  H   H351      1.0  0.53361  0.74281  0.80331  1.0000
  Fe  Fe40      1.0  0.46472  0.10483  0.67840  1.0000
  S   S83       1.0  0.46048  0.80936  0.80698  1.0000
  C   C217      1.0  0.51574  0.72994  0.79565  1.0000
  H   H352      1.0  0.46120  0.93618  0.68649  1.0000
  C   C218      1.0  0.56405  0.09065  0.07691  1.0000
  H   H353      1.0  0.52798  0.67696  0.03235  1.0000
  H   H354      1.0  0.58767  0.66034  0.11101  1.0000
  H   H355      1.0  0.51900  0.74876  0.88058  1.0000
  H   H356      1.0  0.49050  0.76377  0.86294  1.0000
  C   C219      1.0  0.46196  0.86972  0.81022  1.0000
  C   C220      1.0  0.46535  0.96616  0.81746  1.0000
  N   N23       1.0  0.50479  0.70350  0.83233  1.0000
  H   H357      1.0  0.48084  0.86816  0.86979  1.0000
  H   H358      1.0  0.58989  0.71496  0.04942  1.0000
  C   C221      1.0  0.47334  0.88979  0.84528  1.0000
  H   H359      1.0  0.50729  0.10305  0.82539  1.0000
  H   H360      1.0  0.51897  0.08799  0.92001  1.0000
  C   C222      1.0  0.50128  0.98611  0.67733  1.0000
  C   C223      1.0  0.56507  0.08843  0.03139  1.0000
  C   C224      1.0  0.51988  0.66460  0.84360  1.0000
  H   H361      1.0  0.56984  0.91163  0.12993  1.0000
  C   C225      1.0  0.47511  0.93786  0.84879  1.0000
  C   C226      1.0  0.37077  0.64951  0.70741  1.0000
  H   H362      1.0  0.53906  0.69707  0.12773  1.0000
  H   H363      1.0  0.57093  0.05732  0.01540  1.0000
  H   H364      1.0  0.53752  0.67698  0.85322  1.0000
  C   C227      1.0  0.54637  0.68241  0.68044  1.0000
  S   S84       1.0  0.46819  0.02618  0.82320  1.0000
  N   N24       1.0  0.55890  0.67679  0.07059  1.0000
  C   C228      1.0  0.51284  0.63541  0.70466  1.0000
  N   N25       1.0  0.49378  0.94635  0.65071  1.0000
  H   H365      1.0  0.51741  0.70838  0.76587  1.0000
  C   C229      1.0  0.57374  0.69897  0.03598  1.0000
  H   H366      1.0  0.48612  0.00735  0.68781  1.0000
  S   S85       1.0  0.37865  0.10424  0.69512  1.0000
  C   C230      1.0  0.47712  0.91686  0.67647  1.0000
  H   H367      1.0  0.46764  0.12066  0.85549  1.0000
  H   H368      1.0  0.51004  0.97474  0.70731  1.0000
  H   H369      1.0  0.50512  0.76040  0.78726  1.0000
  H   H370      1.0  0.49328  0.06643  0.89381  1.0000
  H   H371      1.0  0.55367  0.71012  0.66029  1.0000
  H   H372      1.0  0.51147  0.68920  0.65665  1.0000
  H   H373      1.0  0.56428  0.72654  0.01884  1.0000
  H   H374      1.0  0.53962  0.73856  0.08432  1.0000
  Fe  Fe41      1.0  0.41581  0.11018  0.71647  1.0000
  C   C231      1.0  0.55941  0.12714  0.00646  1.0000
  C   C232      1.0  0.53879  0.65266  0.05098  1.0000
  C   C233      1.0  0.57284  0.64308  0.09448  1.0000
  Fe  Fe42      1.0  0.46082  0.78060  0.64501  1.0000
  S   S86       1.0  0.42782  0.12437  0.78408  1.0000
  H   H375      1.0  0.52715  0.63596  0.07641  1.0000
  H   H376      1.0  0.53278  0.12657  0.85085  1.0000
  H   H377      1.0  0.47124  0.88631  0.65752  1.0000
  H   H378      1.0  0.52246  0.64102  0.81548  1.0000
  H   H379      1.0  0.51207  0.64361  0.87089  1.0000
  H   H380      1.0  0.69088  0.46660  0.35504  1.0000
  S   S87       1.0  0.79539  0.18458  0.29584  1.0000
  H   H381      1.0  0.73121  0.56633  0.28051  1.0000
  H   H382      1.0  0.69915  0.34982  0.37731  1.0000
  C   C234      1.0  0.72764  0.39424  0.39675  1.0000
  H   H383      1.0  0.73779  0.37164  0.50116  1.0000
  H   H384      1.0  0.68074  0.52645  0.27432  1.0000
  H   H385      1.0  0.74176  0.48399  0.27899  1.0000
  S   S88       1.0  0.77295  0.31097  0.30276  1.0000
  C   C235      1.0  0.83730  0.17442  0.46009  1.0000
  H   H386      1.0  0.74266  0.48460  0.33718  1.0000
  C   C236      1.0  0.73148  0.33283  0.34358  1.0000
  H   H387      1.0  0.74341  0.28857  0.56305  1.0000
  H   H388      1.0  0.70737  0.21053  0.19762  1.0000
  C   C237      1.0  0.72735  0.15591  0.22555  1.0000
  H   H389      1.0  0.73967  0.17936  0.24045  1.0000
  Fe  Fe43      1.0  0.77383  0.23885  0.32872  1.0000
  H   H390      1.0  0.76191  0.36264  0.53637  1.0000
  H   H391      1.0  0.78373  0.38858  0.35666  1.0000
  H   H392      1.0  0.68885  0.46673  0.27384  1.0000
  H   H393      1.0  0.70771  0.51066  0.38119  1.0000
  C   C238      1.0  0.71758  0.35843  0.37272  1.0000
  H   H394      1.0  0.72380  0.30450  0.32569  1.0000
  C   C239      1.0  0.71996  0.55935  0.31002  1.0000
  S   S89       1.0  0.75554  0.52706  0.41982  1.0000
  N   N26       1.0  0.71102  0.51111  0.31131  1.0000
  C   C240      1.0  0.70917  0.17356  0.20115  1.0000
  H   H395      1.0  0.70580  0.50860  0.24239  1.0000
  H   H396      1.0  0.75961  0.43140  0.41043  1.0000
  H   H397      1.0  0.70535  0.58424  0.30978  1.0000
  H   H398      1.0  0.68157  0.52551  0.35398  1.0000
  H   H399      1.0  0.72484  0.44239  0.31066  1.0000
  Fe  Fe44      1.0  0.75639  0.17463  0.40079  1.0000
  C   C241      1.0  0.75150  0.40494  0.39103  1.0000
  C   C242      1.0  0.76522  0.38039  0.36085  1.0000
  S   S90       1.0  0.74163  0.19421  0.33684  1.0000
  S   S91       1.0  0.66869  0.16544  0.15638  1.0000
  C   C243      1.0  0.73092  0.47916  0.30936  1.0000
  H   H400      1.0  0.80701  0.60365  0.45260  1.0000
  C   C244      1.0  0.69717  0.50313  0.35208  1.0000
  H   H401      1.0  0.73060  0.56763  0.33891  1.0000
  C   C245      1.0  0.69594  0.50281  0.27376  1.0000
  C   C246      1.0  0.75506  0.35465  0.50367  1.0000
  S   S92       1.0  0.78670  0.22490  0.39560  1.0000
  C   C247      1.0  0.75528  0.34400  0.33749  1.0000
  Fe  Fe45      1.0  0.72974  0.48581  0.46102  1.0000
  S   S93       1.0  0.72725  0.56138  0.60936  1.0000
  Fe  Fe46      1.0  0.80562  0.16635  0.36355  1.0000
  C   C248      1.0  0.74363  0.29591  0.45280  1.0000
  C   C249      1.0  0.84488  0.17850  0.50300  1.0000
  S   S94       1.0  0.73187  0.16559  0.45860  1.0000
  S   S95       1.0  0.81533  0.51068  0.48068  1.0000
  H   H402      1.0  0.71912  0.29839  0.52843  1.0000
  H   H403      1.0  0.78879  0.29797  0.47398  1.0000
  C   C250      1.0  0.73687  0.28328  0.52967  1.0000
  S   S96       1.0  0.71039  0.42439  0.43467  1.0000
  H   H404      1.0  0.81984  0.18445  0.45229  1.0000
  H   H405      1.0  0.78399  0.28929  0.53149  1.0000
  H   H406      1.0  0.79308  0.19038  0.17064  1.0000
  H   H407      1.0  0.76713  0.37149  0.47903  1.0000
  C   C251      1.0  0.77629  0.28331  0.49911  1.0000
  S   S97       1.0  0.76247  0.59325  0.50512  1.0000
  H   H408      1.0  0.67542  0.55608  0.61980  1.0000
  H   H409      1.0  0.78096  0.15585  0.47407  1.0000
  H   H410      1.0  0.73476  0.24532  0.52458  1.0000
  H   H411      1.0  0.68199  0.60971  0.59288  1.0000
  H   H412      1.0  0.77522  0.24528  0.49395  1.0000
  C   C252      1.0  0.66433  0.61423  0.37417  1.0000
  H   H413      1.0  0.72601  0.31113  0.44971  1.0000
  N   N27       1.0  0.75298  0.30430  0.49639  1.0000
  S   S98       1.0  0.71039  0.54710  0.48669  1.0000
  Fe  Fe47      1.0  0.73795  0.58836  0.44947  1.0000
  H   H414      1.0  0.80817  0.14237  0.19332  1.0000
  H   H415      1.0  0.75538  0.31100  0.42682  1.0000
  Fe  Fe48      1.0  0.73640  0.54651  0.53969  1.0000
  C   C253      1.0  0.77113  0.14378  0.50256  1.0000
  S   S99       1.0  0.75286  0.48059  0.51808  1.0000
  H   H416      1.0  0.65071  0.59027  0.38548  1.0000
  C   C254      1.0  0.83219  0.56154  0.48417  1.0000
  C   C255      1.0  0.77419  0.54714  0.61800  1.0000
  H   H417      1.0  0.77425  0.53383  0.58528  1.0000
  C   C256      1.0  0.66892  0.59173  0.61492  1.0000
  H   H418      1.0  0.74176  0.25848  0.44591  1.0000
  H   H419      1.0  0.82269  0.61745  0.58040  1.0000
  C   C257      1.0  0.82359  0.60316  0.46867  1.0000
  C   C258      1.0  0.69269  0.14349  0.18308  1.0000
  H   H420      1.0  0.81131  0.53828  0.62454  1.0000
  Fe  Fe49      1.0  0.77725  0.52729  0.47927  1.0000
  H   H421      1.0  0.74935  0.13465  0.14422  1.0000
  H   H422      1.0  0.83316  0.19138  0.52825  1.0000
  H   H423      1.0  0.77743  0.14837  0.20370  1.0000
  H   H424      1.0  0.65211  0.58902  0.59764  1.0000
  H   H425      1.0  0.68684  0.15105  0.34640  1.0000
  C   C259      1.0  0.75336  0.56228  0.63793  1.0000
  Fe  Fe50      1.0  0.76434  0.13828  0.30982  1.0000
  C   C260      1.0  0.68560  0.61672  0.39564  1.0000
  H   H426      1.0  0.68818  0.59489  0.42335  1.0000
  C   C261      1.0  0.79157  0.15283  0.17829  1.0000
  S   S100      1.0  0.84281  0.14728  0.37469  1.0000
  C   C262      1.0  0.74668  0.14491  0.50359  1.0000
  H   H427      1.0  0.71509  0.13040  0.54162  1.0000
  S   S101      1.0  0.60043  0.15123  0.17227  1.0000
  C   C263      1.0  0.65975  0.53615  0.97512  1.0000
  H   H428      1.0  0.70146  0.50227  0.99520  1.0000
  C   C264      1.0  0.79553  0.56804  0.68222  1.0000
  H   H429      1.0  0.62444  0.16210  0.82034  1.0000
  C   C265      1.0  0.77472  0.58273  0.70230  1.0000
  C   C266      1.0  0.68884  0.61881  0.67845  1.0000
  S   S102      1.0  0.82220  0.57710  0.70762  1.0000
  H   H430      1.0  0.64685  0.16990  0.99307  1.0000
  C   C267      1.0  0.70039  0.54062  0.99416  1.0000
  C   C268      1.0  0.80585  0.13188  0.10640  1.0000
  C   C269      1.0  0.75363  0.57970  0.68027  1.0000
  C   C270      1.0  0.68220  0.60680  0.96263  1.0000
  N   N28       1.0  0.68308  0.55578  0.96255  1.0000
  H   H431      1.0  0.73191  0.56885  0.77386  1.0000
  H   H432      1.0  0.68182  0.26152  0.87396  1.0000
  S   S103      1.0  0.74023  0.13210  0.70015  1.0000
  H   H433      1.0  0.65407  0.54737  0.00839  1.0000
  C   C271      1.0  0.79522  0.54956  0.64031  1.0000
  C   C272      1.0  0.63710  0.13544  0.81457  1.0000
  H   H434      1.0  0.69988  0.21578  0.89304  1.0000
  S   S104      1.0  0.76902  0.17659  0.80436  1.0000
  H   H435      1.0  0.80787  0.16881  0.09653  1.0000
  C   C273      1.0  0.68785  0.22586  0.86696  1.0000
  H   H436      1.0  0.67220  0.20239  0.86964  1.0000
  Fe  Fe51      1.0  0.61668  0.18960  0.90362  1.0000
  S   S105      1.0  0.68174  0.56888  0.78560  1.0000
  H   H437      1.0  0.64677  0.60837  0.71702  1.0000
  H   H438      1.0  0.61292  0.16452  0.04633  1.0000
  H   H439      1.0  0.76317  0.61731  0.80625  1.0000
  S   S106      1.0  0.61277  0.57221  0.77930  1.0000
  C   C274      1.0  0.81448  0.14980  0.89837  1.0000
  H   H440      1.0  0.83242  0.22416  0.71223  1.0000
  H   H441      1.0  0.70753  0.55397  0.90786  1.0000
  H   H442      1.0  0.63141  0.58848  0.67040  1.0000
  H   H443      1.0  0.66700  0.16442  0.03649  1.0000
  H   H444      1.0  0.67740  0.54993  0.89376  1.0000
  C   C275      1.0  0.72742  0.59439  0.79819  1.0000
  C   C276      1.0  0.70397  0.60070  0.81073  1.0000
  H   H445      1.0  0.71939  0.16333  0.83990  1.0000
  C   C277      1.0  0.64896  0.59079  0.68517  1.0000
  H   H446      1.0  0.66684  0.21393  0.79091  1.0000
  H   H447      1.0  0.69147  0.15054  0.81711  1.0000
  H   H448      1.0  0.66938  0.61974  0.93917  1.0000
  H   H449      1.0  0.71557  0.29038  0.82709  1.0000
  C   C278      1.0  0.70669  0.17489  0.81552  1.0000
  H   H450      1.0  0.71824  0.55464  0.98562  1.0000
  C   C279      1.0  0.65610  0.14459  0.01330  1.0000
  H   H451      1.0  0.83805  0.14670  0.64489  1.0000
  H   H452      1.0  0.72954  0.25175  0.78895  1.0000
  H   H453      1.0  0.69083  0.23371  0.75654  1.0000
  H   H454      1.0  0.84424  0.15611  0.78307  1.0000
  S   S107      1.0  0.63465  0.59774  0.87385  1.0000
  H   H455      1.0  0.67703  0.27269  0.79459  1.0000
  C   C280      1.0  0.63037  0.43980  0.89351  1.0000
  H   H456      1.0  0.77489  0.59628  0.73491  1.0000
  Fe  Fe52      1.0  0.61433  0.29244  0.92024  1.0000
  C   C281      1.0  0.62043  0.40431  0.91933  1.0000
  C   C282      1.0  0.72029  0.25376  0.82129  1.0000
  H   H457      1.0  0.73325  0.24392  0.84595  1.0000
  H   H458      1.0  0.61499  0.59764  0.01303  1.0000
  H   H459      1.0  0.73767  0.59141  0.69593  1.0000
  H   H460      1.0  0.69107  0.50116  0.91739  1.0000
  H   H461      1.0  0.62431  0.50351  0.86010  1.0000
  N   N29       1.0  0.69941  0.22284  0.82344  1.0000
  S   S108      1.0  0.62360  0.25135  0.86100  1.0000
  H   H462      1.0  0.83122  0.16338  0.90845  1.0000
  C   C283      1.0  0.61683  0.47746  0.88173  1.0000
  Fe  Fe53      1.0  0.64703  0.59768  0.80465  1.0000
  C   C284      1.0  0.69008  0.53950  0.91857  1.0000
  H   H463      1.0  0.81083  0.20151  0.84862  1.0000
  C   C285      1.0  0.80294  0.17142  0.86453  1.0000
  N   N30       1.0  0.84500  0.15469  0.71303  1.0000
  C   C286      1.0  0.62366  0.14028  0.06524  1.0000
  H   H464      1.0  0.76500  0.17754  0.11213  1.0000
  S   S109      1.0  0.63680  0.35542  0.93055  1.0000
  C   C287      1.0  0.68283  0.23653  0.78988  1.0000
  H   H465      1.0  0.63874  0.14649  0.74507  1.0000
  H   H466      1.0  0.64827  0.43736  0.88138  1.0000
  H   H467      1.0  0.63369  0.16117  0.08894  1.0000
  H   H468      1.0  0.64611  0.54720  0.95241  1.0000
  N   N31       1.0  0.66608  0.61620  0.65682  1.0000
  H   H469      1.0  0.71524  0.17121  0.78275  1.0000
  H   H470      1.0  0.65968  0.49766  0.97490  1.0000
  H   H471      1.0  0.67687  0.62023  0.99532  1.0000
  C   C288      1.0  0.78184  0.15285  0.85005  1.0000
  C   C289      1.0  0.74510  0.62177  0.81644  1.0000
  H   H472      1.0  0.69570  0.55253  0.02768  1.0000
  C   C290      1.0  0.82987  0.13894  0.67755  1.0000
  H   H473      1.0  0.81253  0.15588  0.67910  1.0000
  S   S110      1.0  0.63381  0.62399  0.09429  1.0000
  H   H474      1.0  0.69543  0.58364  0.68553  1.0000
  S   S111      1.0  0.61102  0.23086  0.96440  1.0000
  H   H475      1.0  0.65486  0.55511  0.69205  1.0000
  H   H476      1.0  0.69954  0.62272  0.95348  1.0000
  C   C291      1.0  0.84913  0.20510  0.70934  1.0000
  C   C292      1.0  0.83343  0.14390  0.75562  1.0000
  H   H477      1.0  0.81613  0.16087  0.75914  1.0000
  C   C293      1.0  0.76433  0.14015  0.12068  1.0000
  H   H478      1.0  0.60166  0.40129  0.75970  1.0000
  S   S112      1.0  0.81940  0.62955  0.82655  1.0000
  H   H479      1.0  0.79504  0.97755  0.53919  1.0000
  H   H480      1.0  0.84584  0.73433  0.60448  1.0000
  H   H481      1.0  0.64882  0.07708  0.33732  1.0000
  H   H482      1.0  0.82982  0.67637  0.46148  1.0000
  H   H483      1.0  0.83438  0.94307  0.52962  1.0000
  H   H484      1.0  0.68603  0.00461  0.32867  1.0000
  H   H485      1.0  0.82514  0.06449  0.56472  1.0000
  H   H486      1.0  0.79460  0.99193  0.48214  1.0000
  C   C294      1.0  0.80041  0.00413  0.51443  1.0000
  Fe  Fe54      1.0  0.63312  0.67884  0.24946  1.0000
  H   H487      1.0  0.67560  0.69527  0.29563  1.0000
  S   S113      1.0  0.66046  0.69028  0.19623  1.0000
  Fe  Fe55      1.0  0.62127  0.05057  0.24464  1.0000
  C   C295      1.0  0.83235  0.04838  0.48073  1.0000
  C   C296      1.0  0.64287  0.90370  0.27890  1.0000
  C   C297      1.0  0.66484  0.91743  0.19733  1.0000
  S   S114      1.0  0.62088  0.75189  0.25073  1.0000
  H   H488      1.0  0.78460  0.64731  0.61222  1.0000
  H   H489      1.0  0.80085  0.06348  0.16624  1.0000
  C   C298      1.0  0.64558  0.94842  0.26193  1.0000
  Fe  Fe56      1.0  0.64576  0.76182  0.19349  1.0000
  C   C299      1.0  0.68999  0.03915  0.31396  1.0000
  C   C300      1.0  0.78456  0.07577  0.15129  1.0000
  H   H490      1.0  0.71507  0.04110  0.21501  1.0000
  H   H491      1.0  0.67803  0.12589  0.29583  1.0000
  C   C301      1.0  0.65046  0.86574  0.25444  1.0000
  H   H492      1.0  0.71318  0.70023  0.33424  1.0000
  S   S115      1.0  0.63106  0.12422  0.25755  1.0000
  H   H493      1.0  0.61662  0.89624  0.17438  1.0000
  Fe  Fe57      1.0  0.63158  0.67257  0.15100  1.0000
  C   C302      1.0  0.71348  0.07807  0.21115  1.0000
  H   H494      1.0  0.79813  0.73184  0.55918  1.0000
  H   H495      1.0  0.63434  0.89827  0.31044  1.0000
  S   S116      1.0  0.75131  0.08562  0.26264  1.0000
  C   C303      1.0  0.66091  0.87250  0.21316  1.0000
  H   H496      1.0  0.70030  0.10069  0.40583  1.0000
  H   H497      1.0  0.67333  0.92279  0.16575  1.0000
  S   S117      1.0  0.63283  0.99472  0.28979  1.0000
  C   C304      1.0  0.81004  0.70191  0.55792  1.0000
  C   C305      1.0  0.69485  0.09576  0.18809  1.0000
  H   H498      1.0  0.66016  0.98987  0.20924  1.0000
  H   H499      1.0  0.64831  0.83132  0.26761  1.0000
  C   C306      1.0  0.65709  0.95535  0.22164  1.0000
  H   H500      1.0  0.82807  0.03643  0.44748  1.0000
  S   S118      1.0  0.63026  0.05453  0.17338  1.0000
  H   H501      1.0  0.68218  0.07240  0.17411  1.0000
  N   N32       1.0  0.68604  0.07672  0.34566  1.0000
  H   H502      1.0  0.81882  0.75652  0.62636  1.0000
  C   C307      1.0  0.69954  0.67626  0.34547  1.0000
  S   S119      1.0  0.63445  0.63625  0.31036  1.0000
  S   S120      1.0  0.77641  0.11462  0.37464  1.0000
  C   C308      1.0  0.82947  0.72482  0.62329  1.0000
  H   H503      1.0  0.70804  0.12523  0.31032  1.0000
  C   C309      1.0  0.74582  0.11140  0.57620  1.0000
  C   C310      1.0  0.78292  0.12685  0.53845  1.0000
  H   H504      1.0  0.82581  0.71267  0.53810  1.0000
  C   C311      1.0  0.83836  0.96997  0.50434  1.0000
  H   H505      1.0  0.65821  0.10098  0.38788  1.0000
  H   H506      1.0  0.60573  0.85433  0.21330  1.0000
  H   H507      1.0  0.60221  0.96030  0.22193  1.0000
  H   H508      1.0  0.73593  0.09805  0.60419  1.0000
  H   H509      1.0  0.65805  0.03946  0.37939  1.0000
  H   H510      1.0  0.70847  0.03921  0.30141  1.0000
  H   H511      1.0  0.83344  0.95564  0.47228  1.0000
  C   C312      1.0  0.70264  0.07262  0.38143  1.0000
  C   C313      1.0  0.83658  0.64422  0.47344  1.0000
  H   H512      1.0  0.72115  0.07502  0.36901  1.0000
  C   C314      1.0  0.77028  0.10954  0.57483  1.0000
  H   H513      1.0  0.79050  0.03575  0.52261  1.0000
  C   C315      1.0  0.83268  0.03018  0.55754  1.0000
  N   N33       1.0  0.82596  0.01321  0.51424  1.0000
  C   C316      1.0  0.66077  0.64212  0.33783  1.0000
  H   H514      1.0  0.76998  0.06941  0.17554  1.0000
  H   H515      1.0  0.78342  0.70583  0.63162  1.0000
  H   H516      1.0  0.82666  0.00599  0.58397  1.0000
  H   H517      1.0  0.67858  0.04266  0.28541  1.0000
  C   C317      1.0  0.60079  0.87566  0.18491  1.0000
  N   N34       1.0  0.81643  0.68701  0.60195  1.0000
  S   S121      1.0  0.78527  0.08350  0.61714  1.0000
  C   C318      1.0  0.66175  0.07350  0.36346  1.0000
  C   C319      1.0  0.72943  0.10815  0.23062  1.0000
  H   H518      1.0  0.80182  0.12666  0.53782  1.0000
  S   S122      1.0  0.66774  0.82549  0.17967  1.0000
  C   C320      1.0  0.83130  0.64584  0.59881  1.0000
  H   H519      1.0  0.70029  0.03905  0.39886  1.0000
  C   C321      1.0  0.68984  0.12177  0.32366  1.0000
  H   H520      1.0  0.67009  0.68353  0.62763  1.0000
  S   S123      1.0  0.73065  0.64881  0.40605  1.0000
  H   H521      1.0  0.82286  0.08106  0.48648  1.0000
  Fe  Fe58      1.0  0.63691  0.12958  0.18544  1.0000
  C   C322      1.0  0.70332  0.64751  0.38127  1.0000
  C   C323      1.0  0.79491  0.67545  0.62779  1.0000
  S   S124      1.0  0.60562  0.65436  0.20441  1.0000
  H   H522      1.0  0.80109  0.67351  0.54007  1.0000
  C   C324      1.0  0.67832  0.67337  0.32355  1.0000
  S   S125      1.0  0.61886  0.74482  0.14394  1.0000
  H   H523      1.0  0.83530  0.63206  0.63152  1.0000
  H   H524      1.0  0.64029  0.66250  0.63310  1.0000
  C   C325      1.0  0.73403  0.12945  0.54069  1.0000
  H   H525      1.0  0.84835  0.65408  0.58201  1.0000
  S   S126      1.0  0.73436  0.01885  0.68970  1.0000
  C   C326      1.0  0.71966  0.79801  0.87129  1.0000
  Fe  Fe59      1.0  0.76219  0.07353  0.67672  1.0000
  S   S127      1.0  0.82286  0.80402  0.71336  1.0000
  C   C327      1.0  0.80260  0.84377  0.73352  1.0000
  C   C328      1.0  0.65236  0.08009  0.06295  1.0000
  S   S128      1.0  0.72803  0.06803  0.78641  1.0000
  Fe  Fe60      1.0  0.82095  0.74066  0.75526  1.0000
  H   H526      1.0  0.78409  0.95361  0.71720  1.0000
  S   S129      1.0  0.78016  0.06332  0.73988  1.0000
  S   S130      1.0  0.79110  0.69003  0.75324  1.0000
  Fe  Fe61      1.0  0.71400  0.07677  0.71977  1.0000
  C   C329      1.0  0.66187  0.09264  0.76417  1.0000
  H   H527      1.0  0.71082  0.77235  0.76509  1.0000
  H   H528      1.0  0.79095  0.96876  0.90386  1.0000
  C   C330      1.0  0.80105  0.88757  0.71446  1.0000
  C   C331      1.0  0.78532  0.91980  0.73196  1.0000
  H   H529      1.0  0.81202  0.89658  0.68627  1.0000
  S   S131      1.0  0.67560  0.08866  0.71262  1.0000
  H   H530      1.0  0.68557  0.73792  0.84869  1.0000
  C   C332      1.0  0.72010  0.77309  0.79639  1.0000
  N   N35       1.0  0.70657  0.79785  0.83049  1.0000
  C   C333      1.0  0.78841  0.83219  0.76985  1.0000
  H   H531      1.0  0.68138  0.03794  0.79259  1.0000
  C   C334      1.0  0.68358  0.77437  0.83808  1.0000
  S   S132      1.0  0.75283  0.94822  0.79342  1.0000
  C   C335      1.0  0.77147  0.90824  0.76883  1.0000
  H   H532      1.0  0.78920  0.79828  0.78428  1.0000
  H   H533      1.0  0.69314  0.84727  0.78551  1.0000
  H   H534      1.0  0.80126  0.99021  0.80963  1.0000
  H   H535      1.0  0.83162  0.99706  0.91438  1.0000
  C   C336      1.0  0.62304  0.63159  0.00912  1.0000
  Fe  Fe62      1.0  0.75034  0.01407  0.75538  1.0000
  C   C337      1.0  0.66937  0.06568  0.79875  1.0000
  H   H536      1.0  0.67311  0.77379  0.80811  1.0000
  H   H537      1.0  0.73762  0.78963  0.79005  1.0000
  H   H538      1.0  0.67293  0.79175  0.86396  1.0000
  H   H539      1.0  0.72323  0.73672  0.80607  1.0000
  H   H540      1.0  0.69291  0.86582  0.84122  1.0000
  Fe  Fe63      1.0  0.75599  0.11799  0.76421  1.0000
  C   C338      1.0  0.70296  0.84598  0.81622  1.0000
  C   C339      1.0  0.77317  0.86461  0.78785  1.0000
  H   H541      1.0  0.70984  0.81574  0.89798  1.0000
  H   H542      1.0  0.71992  0.86483  0.81002  1.0000
  H   H543      1.0  0.72314  0.76231  0.88254  1.0000
  Fe  Fe64      1.0  0.62496  0.67092  0.86157  1.0000
  H   H544      1.0  0.66848  0.05577  0.86831  1.0000
  C   C340      1.0  0.71607  0.65923  0.86222  1.0000
  N   N36       1.0  0.82019  0.95689  0.86007  1.0000
  Fe  Fe65      1.0  0.60507  0.64756  0.77409  1.0000
  C   C341      1.0  0.69833  0.63298  0.84300  1.0000
  H   H545      1.0  0.73701  0.81571  0.86694  1.0000
  H   H546      1.0  0.78110  0.05372  0.12251  1.0000
  S   S133      1.0  0.84835  0.68705  0.74891  1.0000
  C   C342      1.0  0.83784  0.96909  0.89245  1.0000
  H   H547      1.0  0.79916  0.66333  0.66093  1.0000
  C   C343      1.0  0.64623  0.11122  0.84950  1.0000
  C   C344      1.0  0.82933  0.91978  0.83175  1.0000
  S   S134      1.0  0.82189  0.74390  0.82789  1.0000
  H   H548      1.0  0.61434  0.11109  0.98562  1.0000
  C   C345      1.0  0.80452  0.11056  0.91872  1.0000
  C   C346      1.0  0.77177  0.11374  0.87054  1.0000
  H   H549      1.0  0.80269  0.11155  0.07631  1.0000
  C   C347      1.0  0.63302  0.69789  0.96334  1.0000
  C   C348      1.0  0.65758  0.66333  0.64900  1.0000
  H   H550      1.0  0.83036  0.10613  0.75994  1.0000
  H   H551      1.0  0.68748  0.63722  0.71011  1.0000
  C   C349      1.0  0.62519  0.08740  0.00493  1.0000
  H   H552      1.0  0.66266  0.09819  0.08819  1.0000
  C   C350      1.0  0.81526  0.99785  0.83322  1.0000
  H   H553      1.0  0.63643  0.06803  0.98140  1.0000
  H   H554      1.0  0.65147  0.75352  0.99473  1.0000
  C   C351      1.0  0.63351  0.65312  0.04441  1.0000
  H   H555      1.0  0.66477  0.05986  0.04237  1.0000
  H   H556      1.0  0.75542  0.09936  0.85952  1.0000
  C   C352      1.0  0.78293  0.09302  0.90542  1.0000
  H   H557      1.0  0.80925  0.02725  0.85372  1.0000
  H   H558      1.0  0.64023  0.05507  0.07998  1.0000
  H   H559      1.0  0.70249  0.63671  0.65766  1.0000
  H   H560      1.0  0.71164  0.68379  0.88737  1.0000
  S   S135      1.0  0.82061  0.08032  0.95659  1.0000
  H   H561      1.0  0.83237  0.88771  0.85061  1.0000
  C   C353      1.0  0.64328  0.71974  0.99881  1.0000
  S   S136      1.0  0.76093  0.69286  0.86709  1.0000
  S   S137      1.0  0.63438  0.72380  0.91161  1.0000
  C   C354      1.0  0.66176  0.07528  0.84149  1.0000
  C   C355      1.0  0.73939  0.65477  0.84788  1.0000
  C   C356      1.0  0.64331  0.69754  0.03953  1.0000
  Fe  Fe66      1.0  0.79403  0.68812  0.82587  1.0000
  C   C357      1.0  0.62226  0.65445  0.96904  1.0000
  S   S138      1.0  0.64053  0.67264  0.79390  1.0000
  C   C358      1.0  0.79841  0.94094  0.88297  1.0000
  H   H562      1.0  0.84625  0.93046  0.81537  1.0000
  H   H563      1.0  0.77532  0.06241  0.92081  1.0000
  H   H564      1.0  0.76286  0.85601  0.81680  1.0000
  H   H565      1.0  0.65150  0.71427  0.06677  1.0000
  Fe  Fe67      1.0  0.81878  0.63601  0.75402  1.0000
  H   H566      1.0  0.78479  0.93072  0.85962  1.0000
  H   H567      1.0  0.81691  0.91096  0.80579  1.0000
  Fe  Fe68      1.0  0.84702  0.68577  0.82156  1.0000
  H   H568      1.0  0.84206  0.93901  0.91321  1.0000
  H   H569      1.0  0.82645  0.10099  0.67912  1.0000
  C   C359      1.0  0.64498  0.12625  0.77188  1.0000
  S   S139      1.0  0.64008  0.12843  0.90316  1.0000
  H   H570      1.0  0.61306  0.06211  0.02161  1.0000
  H   H571      1.0  0.82290  0.12085  0.11923  1.0000
  H   H572      1.0  0.83454  0.71482  0.65663  1.0000
  N   N37       1.0  0.78659  0.12517  0.13916  1.0000
  H   H573      1.0  0.66799  0.12532  0.99085  1.0000
  H   H574      1.0  0.83112  0.00981  0.81423  1.0000
  H   H575      1.0  0.61291  0.63870  0.94284  1.0000
  H   H576      1.0  0.80149  0.91055  0.90412  1.0000
  H   H577      1.0  0.76023  0.12054  0.09068  1.0000
  H   H578      1.0  0.65515  0.68259  0.68006  1.0000
  N   N38       1.0  0.63934  0.11313  0.03657  1.0000
  H   H579      1.0  0.61128  0.11739  0.08412  1.0000
  H   H580      1.0  0.68032  0.63796  0.85309  1.0000
  C   C360      1.0  0.01237  0.55554  0.46639  1.0000
  H   H581      1.0  0.94696  0.23712  0.38497  1.0000
  S   S140      1.0  0.02633  0.19324  0.35835  1.0000
  H   H582      1.0  0.98306  0.59768  0.55505  1.0000
  C   C361      1.0  0.87485  0.14342  0.43804  1.0000
  Fe  Fe69      1.0  0.05826  0.16282  0.38708  1.0000
  H   H583      1.0  0.97417  0.20766  0.37778  1.0000
  S   S141      1.0  0.08599  0.51278  0.19061  1.0000
  S   S142      1.0  0.06191  0.52002  0.30678  1.0000
  H   H584      1.0  0.95739  0.54653  0.51151  1.0000
  C   C362      1.0  0.07340  0.36072  0.39912  1.0000
  Fe  Fe70      1.0  0.08542  0.54955  0.25439  1.0000
  H   H585      1.0  0.05326  0.23721  0.20541  1.0000
  H   H586      1.0  0.09795  0.41464  0.20110  1.0000
  H   H587      1.0  0.94762  0.24821  0.48246  1.0000
  C   C363      1.0  0.05798  0.21031  0.18279  1.0000
  Fe  Fe71      1.0  0.09096  0.53814  0.35127  1.0000
  Fe  Fe72      1.0  0.04693  0.25983  0.36081  1.0000
  H   H588      1.0  0.07987  0.25539  0.14226  1.0000
  C   C364      1.0  0.04978  0.37005  0.39277  1.0000
  H   H589      1.0  0.06716  0.42219  0.25814  1.0000
  H   H590      1.0  0.01181  0.52331  0.44676  1.0000
  H   H591      1.0  0.99176  0.62804  0.50604  1.0000
  C   C365      1.0  0.05868  0.45217  0.39755  1.0000
  Fe  Fe73      1.0  0.04529  0.18288  0.29415  1.0000
  H   H592      1.0  0.92301  0.22613  0.45322  1.0000
  C   C366      1.0  0.08239  0.44277  0.40254  1.0000
  S   S143      1.0  0.02963  0.32539  0.38172  1.0000
  H   H593      1.0  0.02413  0.42328  0.38812  1.0000
  H   H594      1.0  0.06548  0.36068  0.26682  1.0000
  H   H595      1.0  0.96899  0.61801  0.37195  1.0000
  C   C367      1.0  0.88239  0.14750  0.48074  1.0000
  H   H596      1.0  0.01352  0.60452  0.54021  1.0000
  H   H597      1.0  0.07927  0.32563  0.39938  1.0000
  H   H598      1.0  0.01717  0.51925  0.54655  1.0000
  C   C368      1.0  0.85400  0.56089  0.50383  1.0000
  H   H599      1.0  0.93438  0.19344  0.49721  1.0000
  C   C369      1.0  0.96253  0.22477  0.40228  1.0000
  H   H600      1.0  0.96683  0.57649  0.46256  1.0000
  H   H601      1.0  0.07103  0.39867  0.31135  1.0000
  C   C370      1.0  0.04237  0.41585  0.39300  1.0000
  H   H602      1.0  0.05293  0.48752  0.39661  1.0000
  H   H603      1.0  0.86065  0.52866  0.51583  1.0000
  H   H604      1.0  0.88330  0.60171  0.52571  1.0000
  C   C371      1.0  0.08965  0.39701  0.40450  1.0000
  S   S144      1.0  0.06291  0.25258  0.29389  1.0000
  Fe  Fe74      1.0  0.05076  0.59286  0.31717  1.0000
  Fe  Fe75      1.0  0.09172  0.21646  0.32707  1.0000
  N   N39       1.0  0.95566  0.19286  0.43827  1.0000
  S   S145      1.0  0.07750  0.23007  0.39429  1.0000
  C   C372      1.0  0.94380  0.15154  0.42049  1.0000
  C   C373      1.0  0.07285  0.22071  0.14680  1.0000
  H   H605      1.0  0.98955  0.16172  0.43863  1.0000
  S   S146      1.0  0.07532  0.14586  0.32281  1.0000
  C   C374      1.0  0.04862  0.16562  0.18854  1.0000
  H   H606      1.0  0.96963  0.51503  0.46630  1.0000
  H   H607      1.0  0.97225  0.25570  0.41427  1.0000
  H   H608      1.0  0.00476  0.55992  0.20787  1.0000
  C   C375      1.0  0.97680  0.17878  0.46116  1.0000
  H   H609      1.0  0.00935  0.58488  0.44386  1.0000
  H   H610      1.0  0.98644  0.51346  0.55983  1.0000
  C   C376      1.0  0.99957  0.51538  0.53224  1.0000
  S   S147      1.0  0.87585  0.16224  0.56758  1.0000
  C   C377      1.0  0.93949  0.21625  0.46912  1.0000
  H   H611      1.0  0.09590  0.35296  0.20721  1.0000
  H   H612      1.0  0.98605  0.20895  0.47560  1.0000
  S   S148      1.0  0.94563  0.55601  0.61119  1.0000
  C   C378      1.0  0.04766  0.61461  0.14705  1.0000
  C   C379      1.0  0.97112  0.54776  0.48496  1.0000
  H   H613      1.0  0.92812  0.16088  0.40190  1.0000
  C   C380      1.0  0.86684  0.60214  0.50926  1.0000
  H   H614      1.0  0.03579  0.55847  0.21487  1.0000
  N   N40       1.0  0.99475  0.55417  0.50261  1.0000
  S   S149      1.0  0.07196  0.62140  0.26052  1.0000
  H   H615      1.0  0.02060  0.61205  0.21994  1.0000
  H   H616      1.0  0.03045  0.55990  0.47848  1.0000
  S   S150      1.0  0.03034  0.15196  0.23380  1.0000
  C   C381      1.0  0.85220  0.15628  0.42774  1.0000
  C   C382      1.0  0.99584  0.59802  0.52702  1.0000
  C   C383      1.0  0.02151  0.57923  0.20118  1.0000
  Fe  Fe76      1.0  0.93968  0.62836  0.58745  1.0000
  H   H617      1.0  0.97237  0.15380  0.48787  1.0000
  N   N41       1.0  0.02557  0.58788  0.15407  1.0000
  H   H618      1.0  0.89981  0.13709  0.48856  1.0000
  C   C384      1.0  0.07490  0.39299  0.27613  1.0000
  H   H619      1.0  0.99894  0.48168  0.51497  1.0000
  S   S151      1.0  0.01211  0.60356  0.32401  1.0000
  C   C385      1.0  0.86728  0.16407  0.51342  1.0000
  H   H620      1.0  0.06278  0.59607  0.16027  1.0000
  S   S152      1.0  0.07781  0.60852  0.36685  1.0000
  H   H621      1.0  0.04213  0.52277  0.14251  1.0000
  C   C386      1.0  0.05416  0.13135  0.15818  1.0000
  H   H622      1.0  0.95571  0.13191  0.39831  1.0000
  H   H623      1.0  0.09936  0.13193  0.49873  1.0000
  H   H624      1.0  0.98900  0.59507  0.14115  1.0000
  S   S153      1.0  0.00392  0.54504  0.78247  1.0000
  S   S154      1.0  0.98049  0.31703  0.83618  1.0000
  C   C387      1.0  0.89258  0.58501  0.70580  1.0000
  H   H625      1.0  0.05155  0.62078  0.11178  1.0000
  Fe  Fe77      1.0  0.09008  0.14571  0.02083  1.0000
  C   C388      1.0  0.97727  0.50766  0.71788  1.0000
  S   S155      1.0  0.09695  0.15402  0.94893  1.0000
  C   C389      1.0  0.87382  0.60286  0.88384  1.0000
  H   H626      1.0  0.88072  0.53478  0.80434  1.0000
  H   H627      1.0  0.97960  0.47459  0.73344  1.0000
  C   C390      1.0  0.98475  0.59010  0.71458  1.0000
  C   C391      1.0  0.89946  0.50647  0.72778  1.0000
  S   S156      1.0  0.09686  0.19933  0.07137  1.0000
  S   S157      1.0  0.95752  0.44708  0.82085  1.0000
  C   C392      1.0  0.91923  0.56952  0.76342  1.0000
  H   H628      1.0  0.87948  0.14179  0.73602  1.0000
  H   H629      1.0  0.08396  0.53071  0.09905  1.0000
  H   H630      1.0  0.01095  0.52193  0.13598  1.0000
  H   H631      1.0  0.00510  0.20960  0.77209  1.0000
  H   H632      1.0  0.94425  0.32082  0.77269  1.0000
  C   C393      1.0  0.91441  0.62291  0.86741  1.0000
  S   S158      1.0  0.03320  0.15796  0.90191  1.0000
  C   C394      1.0  0.96460  0.51036  0.67949  1.0000
  C   C395      1.0  0.91923  0.26703  0.79153  1.0000
  H   H633      1.0  0.95204  0.19081  0.76722  1.0000
  H   H634      1.0  0.95702  0.47934  0.66577  1.0000
  C   C396      1.0  0.96455  0.14922  0.93726  1.0000
  Fe  Fe78      1.0  0.97784  0.39209  0.85395  1.0000
  N   N42       1.0  0.89723  0.55454  0.74313  1.0000
  C   C397      1.0  0.96169  0.55307  0.65900  1.0000
  C   C398      1.0  0.87767  0.55709  0.77554  1.0000
  H   H635      1.0  0.96895  0.62609  0.66236  1.0000
  C   C399      1.0  0.98756  0.54754  0.73518  1.0000
  H   H636      1.0  0.97326  0.18749  0.72304  1.0000
  H   H637      1.0  0.86077  0.54570  0.76153  1.0000
  S   S159      1.0  0.88151  0.14775  0.93646  1.0000
  N   N43       1.0  0.01839  0.29416  0.95258  1.0000
  C   C400      1.0  0.01232  0.59375  0.00581  1.0000
  C   C401      1.0  0.02736  0.25913  0.98265  1.0000
  H   H638      1.0  0.02108  0.22377  0.97400  1.0000
  H   H639      1.0  0.98515  0.25853  0.94928  1.0000
  H   H640      1.0  0.05446  0.56844  0.91157  1.0000
  H   H641      1.0  0.92342  0.54682  0.79135  1.0000
  H   H642      1.0  0.88307  0.49398  0.71258  1.0000
  H   H643      1.0  0.02170  0.35015  0.99818  1.0000
  S   S160      1.0  0.02391  0.46073  0.97392  1.0000
  C   C402      1.0  0.02735  0.34047  0.96452  1.0000
  S   S161      1.0  0.01115  0.43422  0.85564  1.0000
  H   H644      1.0  0.87538  0.59299  0.78757  1.0000
  S   S162      1.0  0.96594  0.41088  0.92157  1.0000
  C   C403      1.0  0.92090  0.57806  0.87881  1.0000
  C   C404      1.0  0.92693  0.22687  0.85861  1.0000
  C   C405      1.0  0.02772  0.51751  0.99210  1.0000
  H   H645      1.0  0.00891  0.17785  0.82167  1.0000
  C   C406      1.0  0.04981  0.53301  0.00499  1.0000
  H   H646      1.0  0.06432  0.50951  0.00481  1.0000
  Fe  Fe79      1.0  0.99767  0.45745  0.92085  1.0000
  C   C407      1.0  0.99251  0.29362  0.95545  1.0000
  H   H647      1.0  0.90320  0.48260  0.75512  1.0000
  H   H648      1.0  0.98658  0.19333  0.89623  1.0000
  H   H649      1.0  0.98588  0.30459  0.98813  1.0000
  H   H650      1.0  0.02155  0.26583  0.01688  1.0000
  H   H651      1.0  0.04685  0.25863  0.98160  1.0000
  C   C408      1.0  0.88036  0.55832  0.89599  1.0000
  H   H652      1.0  0.04557  0.27937  0.90492  1.0000
  H   H653      1.0  0.02992  0.54846  0.09533  1.0000
  H   H654      1.0  0.92218  0.20062  0.88247  1.0000
  H   H655      1.0  0.02073  0.36751  0.94239  1.0000
  C   C409      1.0  0.90386  0.54561  0.89296  1.0000
  H   H656      1.0  0.91809  0.60550  0.77581  1.0000
  Fe  Fe80      1.0  0.88833  0.13897  0.86459  1.0000
  H   H657      1.0  0.99170  0.53566  0.98418  1.0000
  H   H658      1.0  0.04681  0.34251  0.96250  1.0000
  H   H659      1.0  0.89114  0.62167  0.71613  1.0000
  H   H660      1.0  0.01796  0.25121  0.89568  1.0000
  C   C410      1.0  0.93925  0.29509  0.79698  1.0000
  C   C411      1.0  0.99569  0.18964  0.79839  1.0000
  C   C412      1.0  0.97151  0.59294  0.67704  1.0000
  C   C413      1.0  0.95320  0.28868  0.83309  1.0000
  C   C414      1.0  0.02628  0.28360  0.90753  1.0000
  H   H661      1.0  0.02162  0.31152  0.88454  1.0000
  H   H662      1.0  0.90687  0.58332  0.68040  1.0000
  H   H663      1.0  0.95745  0.25001  0.89209  1.0000
  H   H664      1.0  0.90867  0.27147  0.76323  1.0000
  S   S163      1.0  0.88963  0.19461  0.81346  1.0000
  C   C415      1.0  0.00893  0.54780  0.99295  1.0000
  H   H665      1.0  0.93903  0.56862  0.87630  1.0000
  C   C416      1.0  0.05327  0.57922  0.01710  1.0000
  H   H666      1.0  0.98511  0.31726  0.93098  1.0000
  S   S164      1.0  0.91130  0.48870  0.90571  1.0000
  S   S165      1.0  0.97910  0.51837  0.89462  1.0000
  H   H667      1.0  0.86714  0.53347  0.90727  1.0000
  H   H668      1.0  0.99250  0.62108  0.72805  1.0000
  Fe  Fe81      1.0  0.94838  0.46990  0.88880  1.0000
  H   H669      1.0  0.85566  0.61237  0.88642  1.0000
  C   C417      1.0  0.94686  0.25489  0.86407  1.0000
  Fe  Fe82      1.0  0.98976  0.49121  0.82912  1.0000
  H   H670      1.0  0.87587  0.57504  0.69020  1.0000
  C   C418      1.0  0.98585  0.16322  0.91699  1.0000
  H   H671      1.0  0.02415  0.57294  0.89927  1.0000
  C   C419      1.0  0.91327  0.23251  0.82211  1.0000
  H   H672      1.0  0.95452  0.13879  0.73595  1.0000
  H   H673      1.0  0.07032  0.59107  0.02700  1.0000
  C   C420      1.0  0.03456  0.60965  0.01716  1.0000
  N   N44       1.0  0.98217  0.15029  0.78076  1.0000
  C   C421      1.0  0.07826  0.18647  0.11634  1.0000
  H   H674      1.0  0.85775  0.21452  0.67747  1.0000
  H   H675      1.0  0.91397  0.50349  0.70298  1.0000
  H   H676      1.0  0.93432  0.56845  0.73985  1.0000
  C   C422      1.0  0.04227  0.57927  0.88601  1.0000
  H   H677      1.0  0.98407  0.21410  0.81604  1.0000
  H   H678      1.0  0.03363  0.61988  0.80874  1.0000
  H   H679      1.0  0.04468  0.55597  0.85750  1.0000
  H   H680      1.0  0.87696  0.13907  0.67798  1.0000
  H   H681      1.0  0.94888  0.16871  0.93246  1.0000
  C   C423      1.0  0.96474  0.16766  0.75040  1.0000
  H   H682      1.0  0.00864  0.62202  0.10164  1.0000
  C   C424      1.0  0.00619  0.13853  0.92413  1.0000
  H   H683      1.0  0.95803  0.14805  0.83561  1.0000
  C   C425      1.0  0.02720  0.54329  0.13100  1.0000
  H   H684      1.0  0.07474  0.61365  0.82908  1.0000
  H   H685      1.0  0.00689  0.13575  0.72869  1.0000
  H   H686      1.0  0.99774  0.61713  0.00620  1.0000
  H   H687      1.0  0.08325  0.62723  0.88348  1.0000
  H   H688      1.0  0.86068  0.21798  0.73550  1.0000
  C   C426      1.0  0.10007  0.54572  0.11074  1.0000
  C   C427      1.0  0.00594  0.61439  0.13700  1.0000
  C   C428      1.0  0.06898  0.14171  0.12221  1.0000
  C   C429      1.0  0.86768  0.13099  0.70955  1.0000
  N   N45       1.0  0.04611  0.62827  0.87361  1.0000
  C   C430      1.0  0.01667  0.08147  0.41127  1.0000
  H   H689      1.0  0.98455  0.05571  0.38454  1.0000
  H   H690      1.0  0.00362  0.10221  0.16430  1.0000
  C   C431      1.0  0.98670  0.09534  0.14819  1.0000
  C   C432      1.0  0.99412  0.69735  0.43850  1.0000
  C   C433      1.0  0.01664  0.69885  0.41937  1.0000
  H   H691      1.0  0.03951  0.67218  0.36895  1.0000
  C   C434      1.0  0.85798  0.64387  0.49443  1.0000
  S   S166      1.0  0.93482  0.64198  0.51628  1.0000
  C   C435      1.0  0.96613  0.92403  0.49339  1.0000
  C   C436      1.0  0.02213  0.67060  0.38371  1.0000
  C   C437      1.0  0.99388  0.06288  0.41399  1.0000
  S   S167      1.0  0.95383  0.03524  0.45717  1.0000
  C   C438      1.0  0.01810  0.08131  0.48995  1.0000
  S   S168      1.0  0.05664  0.11675  0.44570  1.0000
  H   H692      1.0  0.02494  0.08836  0.37974  1.0000
  C   C439      1.0  0.97690  0.66837  0.42126  1.0000
  H   H693      1.0  0.99007  0.82392  0.52736  1.0000
  H   H694      1.0  0.04741  0.09650  0.16298  1.0000
  S   S169      1.0  0.89965  0.05810  0.62953  1.0000
  C   C440      1.0  0.90963  0.90697  0.63872  1.0000
  H   H695      1.0  0.02995  0.72154  0.43239  1.0000
  H   H696      1.0  0.98766  0.00269  0.15025  1.0000
  C   C441      1.0  0.02876  0.09080  0.44923  1.0000
  S   S170      1.0  0.98811  0.73096  0.48468  1.0000
  C   C442      1.0  0.98296  0.05469  0.45466  1.0000
  H   H697      1.0  0.97469  0.94767  0.51683  1.0000
  S   S171      1.0  0.90836  0.66836  0.61040  1.0000
  H   H698      1.0  0.94810  0.93681  0.48861  1.0000
  H   H699      1.0  0.00409  0.64811  0.15395  1.0000
  H   H700      1.0  0.97590  0.92791  0.46168  1.0000
  Fe  Fe83      1.0  0.93861  0.05740  0.61931  1.0000
  H   H701      1.0  0.95931  0.66798  0.43515  1.0000
  H   H702      1.0  0.95975  0.89559  0.57583  1.0000
  H   H703      1.0  0.99892  0.88220  0.53967  1.0000
  H   H704      1.0  0.93359  0.88224  0.54707  1.0000
  S   S172      1.0  0.87514  0.93996  0.58820  1.0000
  H   H705      1.0  0.00044  0.86163  0.48443  1.0000
  S   S173      1.0  0.89753  0.04570  0.52365  1.0000
  Fe  Fe84      1.0  0.93400  0.72770  0.61264  1.0000
  H   H706      1.0  0.93584  0.85480  0.47207  1.0000
  H   H707      1.0  0.95502  0.80881  0.48576  1.0000
  S   S174      1.0  0.92851  0.75062  0.54434  1.0000
  H   H708      1.0  0.98666  0.05731  0.52421  1.0000
  C   C443      1.0  0.95451  0.84585  0.47629  1.0000
  C   C444      1.0  0.98233  0.64044  0.38526  1.0000
  Fe  Fe85      1.0  0.90084  0.10390  0.57092  1.0000
  C   C445      1.0  0.95221  0.87246  0.55079  1.0000
  C   C446      1.0  0.88410  0.84991  0.60614  1.0000
  H   H709      1.0  0.85770  0.97560  0.50346  1.0000
  N   N46       1.0  0.96567  0.87567  0.50900  1.0000
  H   H710      1.0  0.88634  0.12925  0.41308  1.0000
  H   H711      1.0  0.02744  0.08869  0.51934  1.0000
  S   S175      1.0  0.87216  0.69642  0.50578  1.0000
  H   H712      1.0  0.96372  0.84885  0.44396  1.0000
  C   C447      1.0  0.89778  0.81464  0.62260  1.0000
  S   S176      1.0  0.96558  0.68664  0.59525  1.0000
  H   H713      1.0  0.89315  0.77895  0.61625  1.0000
  Fe  Fe86      1.0  0.90580  0.68736  0.53990  1.0000
  H   H714      1.0  0.97434  0.08038  0.17332  1.0000
  Fe  Fe87      1.0  0.93657  0.04602  0.52248  1.0000
  S   S177      1.0  0.94002  0.10897  0.56451  1.0000
  S   S178      1.0  0.93870  0.99484  0.57662  1.0000
  C   C448      1.0  0.99505  0.06371  0.49271  1.0000
  Fe  Fe88      1.0  0.89971  0.00036  0.58185  1.0000
  C   C449      1.0  0.89032  0.89605  0.61345  1.0000
  C   C450      1.0  0.98987  0.86032  0.51542  1.0000
  Fe  Fe89      1.0  0.95793  0.70421  0.52639  1.0000
  H   H715      1.0  0.86914  0.84143  0.58668  1.0000
  H   H716      1.0  0.95217  0.83682  0.56441  1.0000
  H   H717      1.0  0.04688  0.64890  0.16319  1.0000
  H   H718      1.0  0.93779  0.12736  0.44688  1.0000
  H   H719      1.0  0.85194  0.03410  0.55991  1.0000
  C   C451      1.0  0.00504  0.64109  0.36684  1.0000
  H   H720      1.0  0.85139  0.05714  0.48056  1.0000
  Fe  Fe90      1.0  0.10020  0.63065  0.30898  1.0000
  C   C452      1.0  0.88560  0.78421  0.75373  1.0000
  C   C453      1.0  0.91500  0.99476  0.78599  1.0000
  C   C454      1.0  0.88106  0.82630  0.82086  1.0000
  C   C455      1.0  0.90935  0.03735  0.76781  1.0000
  C   C456      1.0  0.91678  0.83438  0.77754  1.0000
  H   H721      1.0  0.95917  0.08823  0.07845  1.0000
  C   C457      1.0  0.92347  0.05669  0.73423  1.0000
  H   H722      1.0  0.93847  0.88023  0.67416  1.0000
  C   C458      1.0  0.94365  0.03413  0.71962  1.0000
  H   H723      1.0  0.02333  0.09347  0.09237  1.0000
  C   C459      1.0  0.08910  0.95957  0.07049  1.0000
  C   C460      1.0  0.94951  0.99187  0.73816  1.0000
  H   H724      1.0  0.03169  0.67751  0.82962  1.0000
  S   S179      1.0  0.96109  0.05829  0.67735  1.0000
  C   C461      1.0  0.00604  0.08564  0.07811  1.0000
  H   H725      1.0  0.98248  0.11025  0.83980  1.0000
  C   C462      1.0  0.04152  0.65788  0.91187  1.0000
  H   H726      1.0  0.88492  0.85891  0.83864  1.0000
  H   H727      1.0  0.86151  0.86353  0.75120  1.0000
  H   H728      1.0  0.02325  0.65304  0.92501  1.0000
  H   H729      1.0  0.96508  0.97434  0.72679  1.0000
  N   N47       1.0  0.89111  0.82797  0.77602  1.0000
  C   C463      1.0  0.88095  0.86677  0.75203  1.0000
  H   H730      1.0  0.01228  0.10679  0.77930  1.0000
  H   H731      1.0  0.92499  0.80496  0.79438  1.0000
  H   H732      1.0  0.93988  0.93974  0.78584  1.0000
  C   C464      1.0  0.93505  0.97194  0.77107  1.0000
  H   H733      1.0  0.07355  0.11472  0.09950  1.0000
  H   H734      1.0  0.86174  0.82091  0.82085  1.0000
  C   C465      1.0  0.07060  0.63561  0.85785  1.0000
  S   S180      1.0  0.89789  0.97234  0.82962  1.0000
  H   H735      1.0  0.89402  0.05536  0.77952  1.0000
  H   H736      1.0  0.89248  0.75393  0.77143  1.0000
  H   H737      1.0  0.92154  0.86657  0.79508  1.0000
  H   H738      1.0  0.98887  0.08744  0.74603  1.0000
  C   C466      1.0  0.06650  0.94938  0.05660  1.0000
  S   S181      1.0  0.05259  0.12458  0.01464  1.0000
  C   C467      1.0  0.98389  0.08531  0.97095  1.0000
  H   H739      1.0  0.88834  0.79717  0.83974  1.0000
  S   S182      1.0  0.86167  0.08241  0.85701  1.0000
  H   H740      1.0  0.09425  0.99479  0.07713  1.0000
  H   H741      1.0  0.07410  0.67226  0.84814  1.0000
  H   H742      1.0  0.88557  0.90064  0.76679  1.0000
  Fe  Fe91      1.0  0.07593  0.69198  0.01979  1.0000
  S   S183      1.0  0.03874  0.66774  0.03093  1.0000
  C   C468      1.0  0.92325  0.87169  0.65540  1.0000
  S   S184      1.0  0.08347  0.76056  0.98761  1.0000
  S   S185      1.0  0.04699  0.99405  0.04679  1.0000
  S   S186      1.0  0.88259  0.68948  0.85030  1.0000
  C   C469      1.0  0.07557  0.86772  0.05595  1.0000
  H   H743      1.0  0.04420  0.69513  0.90383  1.0000
  S   S187      1.0  0.91812  0.09077  0.87215  1.0000
  Fe  Fe92      1.0  0.90898  0.09387  0.94337  1.0000
  H   H744      1.0  0.05346  0.64975  0.93865  1.0000
  H   H745      1.0  0.02053  0.07891  0.95508  1.0000
  H   H746      1.0  0.92491  0.83661  0.74424  1.0000
  H   H747      1.0  0.96832  0.03197  0.06221  1.0000
  H   H748      1.0  0.98303  0.05429  0.99055  1.0000
  H   H749      1.0  0.00158  0.99532  0.09753  1.0000
  C   C470      1.0  0.00510  0.09918  0.95060  1.0000
  S   S188      1.0  0.07024  0.05182  0.93989  1.0000
  C   C471      1.0  0.05964  0.90336  0.04987  1.0000
  H   H750      1.0  0.09216  0.91885  0.96544  1.0000
  H   H751      1.0  0.00938  0.06222  0.05005  1.0000
  Fe  Fe93      1.0  0.89082  0.03465  0.87056  1.0000
  S   S189      1.0  0.93752  0.09392  0.99176  1.0000
  S   S190      1.0  0.88415  0.03307  0.94258  1.0000
  C   C472      1.0  0.03001  0.64036  0.83871  1.0000
  H   H752      1.0  0.95383  0.03969  0.11418  1.0000
  H   H753      1.0  0.99911  0.11838  0.06500  1.0000
  C   C473      1.0  0.99930  0.01980  0.12520  1.0000
  H   H754      1.0  0.91412  0.94263  0.64541  1.0000
  H   H755      1.0  0.07016  0.83227  0.05079  1.0000
  H   H756      1.0  0.04211  0.89530  0.03939  1.0000
  H   H757      1.0  0.89327  0.78373  0.72009  1.0000
  H   H758      1.0  0.91888  0.08934  0.71994  1.0000
  C   C474      1.0  0.96370  0.11065  0.96481  1.0000
  H   H759      1.0  0.86640  0.77921  0.75106  1.0000
  Fe  Fe94      1.0  0.06602  0.05261  0.01246  1.0000
  C   C475      1.0  0.96676  0.05560  0.09061  1.0000
  H   H760      1.0  0.95906  0.09577  0.80434  1.0000
  H   H761      1.0  0.92762  0.64776  0.85616  1.0000
  S   S191      1.0  0.93536  0.78152  0.66443  1.0000
  N   N48       1.0  0.98967  0.06409  0.11057  1.0000
  C   C476      1.0  0.91748  0.82558  0.64675  1.0000
  H   H762      1.0  0.88741  0.86777  0.71760  1.0000
  H   H763      1.0  0.86532  0.09281  0.71174  1.0000
  H   H764      1.0  0.09877  0.85447  0.91315  1.0000
  Fe  Fe95      1.0  0.85734  0.08643  0.92962  1.0000
  C   C477      1.0  0.96991  0.12499  0.81674  1.0000
  H   H765      1.0  0.01140  0.63304  0.84870  1.0000
  C   C478      1.0  0.89081  0.63506  0.86915  1.0000
  C   C479      1.0  0.99831  0.11878  0.75765  1.0000
  C   C480      1.0  0.09822  0.87808  0.06954  1.0000
  H   H766      1.0  0.85447  0.98136  0.87639  1.0000
  Fe  Fe96      1.0  0.06032  0.12612  0.94306  1.0000
  H   H767      1.0  0.01690  0.02490  0.13935  1.0000
  H   H768      1.0  0.97982  0.12935  0.13814  1.0000
  S   S192      1.0  0.09972  0.70460  0.07515  1.0000
