data_image0
_chemical_formula_structural       CFeSC3SHFeCHC2HCSH4FeHNHSCH4C3SH2C3H3CHFeC3FeNH5CH2SHCSH3CH2FeH2CHS2CH2SH4CHCH3NC2H2CH8CH3NCH2CH2NC3H2FeS2FeHS2H2CFeH2SC2HCHCH2C3HCHCFeCH4SNH2SHC3HC3SHC2H3CHFeH3NHFeH2CH3C2H2SC2HFeS2CH4CHC3HSHCHC3HFeSH2CH2CNHS3H4CHNH2NCH5SHC2H3CHCH5SCHFe3SCSH3SC3SH2C4HCH2SCSHSFeCFeSCHFe2SH3CFeHC2HC2HFeHSH2SHS2HCHSNH3SC6HNH2SC4HCNHCHSCSHC2FeCH2C2HFeH2SCHCHFeH4CH2CSC2HCH8SHSCHCH4CH10SCH2CS2HCFeC2HSH5CH7C2NSHCH4SH2S2HCHC4H3CFeH5CNCSHC2SHFeC4H2CH3FeNHSC4HCSH2SH2NCH3CH4CHCH3FeH3CHFeSFeS2CHSHSHCHFeHC3HC2HC2FeHCH7S2HCHCSCNC3HCH2FeH2FeC2H3S2CFeSH5C7H4C3SCHCH6NCH2C3H2S2HNHFeSHC2HFeCHFeCH2SH3CH2S3CSCH5NS2HC2FeH5CFeSCH3CSH2SHCFeH2CFeC5H3CH2CNFeCHCSH3CH3C3H2CNH3NCH2C4HSH4FeS2FeSFeSFeS3HCH2SH4SCHFe2HCH3C3HC6HSH2CH4SH3CH2CH6NC4HSHCH5CHCH2CHCFe2CSH2SHSHSC4H5FeHSC6H4CHCFeHC2H2SNCHSH2CH8CHCSFeSHCHFeH4FeH2C7H3SH2CSFeHSH3CS2NFeCHSC5SH3CH2CSCSH4CSNHCHCHCH2CH4CH3CHCNH2FeSFeSCH2SHNFeHSHFeHSCHC3HC2NSH4CHC6H6SH5SFeH4CH4NSCFe2H2SHC4H4CHCH3CFeSFeSHFeSFeS3C2H2SCHSC2HC4H3CH3CH5SCHSH7CH2CHFeCHCHSH4C9H3SHFeHCHCSH2CH3CSCH4SCHCH2NCSNHFeS2FeSFeCFeS3H3SCHCHCHCSCH2SC4H5CNC3HNSFeNH2C2HCHCH5CHNSH2CHCH2C3NHC2FeCH2CH4FeCH4CHCH5SCH2C4S2CHCFeCHCH5CHCH2FeH2C2SHS3FeCH3CH5CHSHNHCSCS2CHFeC3SCSCHCFeSCSNHCFeHNC3FeHCHC3H4CH2CSH3SCH6FeSH3CSHFeHCHCH3CH2CH4FeSHC2HNSH2CH6CSHFeS2C4FeH2S2C5H4C2H3C4H3C2HNHCH2CHSHFeHCH5NCH2CHC2NH3CH2CH2CHCH3C5HCSFeSHC2HSH2NC6H6SHSH2CNH4CSCHC3H2SH3CH4FeH6C
_chemical_formula_sum              "C480 Fe96 S192 H768 N48"
_cell_length_a       44.3101
_cell_length_b       42.0274
_cell_length_c       29.195
_cell_angle_alpha    90.5473
_cell_angle_beta     90.2003
_cell_angle_gamma    90.0181

_space_group_name_H-M_alt    "P 1"
_space_group_IT_number       1

loop_
  _space_group_symop_operation_xyz
  'x, y, z'

loop_
  _atom_site_type_symbol
  _atom_site_label
  _atom_site_symmetry_multiplicity
  _atom_site_fract_x
  _atom_site_fract_y
  _atom_site_fract_z
  _atom_site_occupancy
  C   C1        1.0  0.35422  0.20175  0.22028  1.0000
  Fe  Fe1       1.0  0.26886  0.20314  0.43609  1.0000
  S   S1        1.0  0.21594  0.30305  0.48123  1.0000
  C   C2        1.0  0.18303  0.39055  0.45295  1.0000
  C   C3        1.0  0.33999  0.22541  0.19476  1.0000
  C   C4        1.0  0.32079  0.64251  0.20488  1.0000
  S   S2        1.0  0.22183  0.21242  0.46106  1.0000
  H   H1        1.0  0.20221  0.19232  0.21482  1.0000
  Fe  Fe2       1.0  0.25867  0.23967  0.34823  1.0000
  C   C5        1.0  0.25363  0.68785  0.29126  1.0000
  H   H2        1.0  0.23875  0.24792  0.13457  1.0000
  C   C6        1.0  0.22935  0.25949  0.16585  1.0000
  C   C7        1.0  0.17836  0.38898  0.40556  1.0000
  H   H3        1.0  0.17651  0.41160  0.47203  1.0000
  C   C8        1.0  0.21936  0.20831  0.19951  1.0000
  S   S3        1.0  0.27416  0.25597  0.27936  1.0000
  H   H4        1.0  0.24848  0.26410  0.18983  1.0000
  H   H5        1.0  0.30976  0.20410  0.31521  1.0000
  H   H6        1.0  0.31816  0.63285  0.16946  1.0000
  H   H7        1.0  0.19211  0.50425  0.29459  1.0000
  Fe  Fe3       1.0  0.22966  0.26200  0.43585  1.0000
  H   H8        1.0  0.18340  0.36042  0.34441  1.0000
  N   N1        1.0  0.20608  0.23939  0.18731  1.0000
  H   H9        1.0  0.19765  0.36508  0.51288  1.0000
  S   S4        1.0  0.27807  0.25380  0.41665  1.0000
  C   C9        1.0  0.18674  0.36165  0.38113  1.0000
  H   H10       1.0  0.35040  0.65615  0.28270  1.0000
  H   H11       1.0  0.30014  0.65660  0.21258  1.0000
  H   H12       1.0  0.27225  0.22233  0.52702  1.0000
  H   H13       1.0  0.30495  0.26087  0.19384  1.0000
  C   C10       1.0  0.20306  0.33668  0.45160  1.0000
  C   C11       1.0  0.30446  0.23436  0.25667  1.0000
  C   C12       1.0  0.19955  0.33580  0.40401  1.0000
  S   S5        1.0  0.21085  0.25172  0.36580  1.0000
  H   H14       1.0  0.17871  0.48300  0.34360  1.0000
  H   H15       1.0  0.20643  0.31519  0.38467  1.0000
  C   C13       1.0  0.19497  0.36421  0.47605  1.0000
  C   C14       1.0  0.31795  0.20987  0.28151  1.0000
  C   C15       1.0  0.31523  0.24183  0.21305  1.0000
  H   H16       1.0  0.22001  0.28303  0.15592  1.0000
  H   H17       1.0  0.22075  0.25971  0.56012  1.0000
  H   H18       1.0  0.34877  0.23184  0.16157  1.0000
  C   C16       1.0  0.19470  0.25543  0.22907  1.0000
  H   H19       1.0  0.16609  0.45325  0.14803  1.0000
  Fe  Fe4       1.0  0.20782  0.20152  0.38905  1.0000
  C   C17       1.0  0.17377  0.50335  0.32055  1.0000
  C   C18       1.0  0.23832  0.67372  0.25394  1.0000
  C   C19       1.0  0.34272  0.19345  0.26313  1.0000
  Fe  Fe5       1.0  0.15625  0.57184  0.16490  1.0000
  N   N2        1.0  0.34829  0.66224  0.20958  1.0000
  H   H20       1.0  0.34560  0.67966  0.14059  1.0000
  H   H21       1.0  0.21296  0.25938  0.25469  1.0000
  H   H22       1.0  0.23818  0.21117  0.22460  1.0000
  H   H23       1.0  0.18498  0.27918  0.22116  1.0000
  H   H24       1.0  0.17676  0.24122  0.24590  1.0000
  C   C20       1.0  0.37529  0.64259  0.20030  1.0000
  H   H25       1.0  0.32110  0.62211  0.22887  1.0000
  H   H26       1.0  0.17506  0.52565  0.34136  1.0000
  S   S6        1.0  0.18301  0.59370  0.22261  1.0000
  H   H27       1.0  0.22364  0.65354  0.25933  1.0000
  C   C21       1.0  0.18086  0.23438  0.15478  1.0000
  S   S7        1.0  0.22728  0.66595  0.16156  1.0000
  H   H28       1.0  0.22852  0.19577  0.16880  1.0000
  H   H29       1.0  0.37469  0.63226  0.16507  1.0000
  H   H30       1.0  0.17048  0.25732  0.14433  1.0000
  C   C22       1.0  0.35010  0.67531  0.25670  1.0000
  H   H31       1.0  0.37722  0.62265  0.22492  1.0000
  H   H32       1.0  0.16272  0.21967  0.17021  1.0000
  Fe  Fe6       1.0  0.18696  0.63606  0.17722  1.0000
  H   H33       1.0  0.18849  0.22177  0.12314  1.0000
  H   H34       1.0  0.15549  0.52798  0.24011  1.0000
  C   C23       1.0  0.27497  0.20239  0.54979  1.0000
  H   H35       1.0  0.25073  0.67850  0.32535  1.0000
  S   S8        1.0  0.16630  0.52123  0.14411  1.0000
  S   S9        1.0  0.16482  0.61228  0.11726  1.0000
  C   C24       1.0  0.24297  0.68509  0.20958  1.0000
  H   H36       1.0  0.16057  0.47040  0.24350  1.0000
  H   H37       1.0  0.17664  0.31435  0.56578  1.0000
  S   S10       1.0  0.15940  0.41966  0.37720  1.0000
  H   H38       1.0  0.16358  0.27646  0.43777  1.0000
  H   H39       1.0  0.21546  0.31655  0.58234  1.0000
  H   H40       1.0  0.39636  0.65701  0.20337  1.0000
  H   H41       1.0  0.18164  0.25780  0.54543  1.0000
  C   C25       1.0  0.19785  0.25525  0.57434  1.0000
  H   H42       1.0  0.19719  0.23009  0.58594  1.0000
  C   C26       1.0  0.19186  0.20954  0.91615  1.0000
  H   H43       1.0  0.15894  0.23276  0.81654  1.0000
  H   H44       1.0  0.15809  0.24678  0.64273  1.0000
  H   H45       1.0  0.21536  0.21696  0.90797  1.0000
  N   N3        1.0  0.19088  0.27772  0.61210  1.0000
  C   C27       1.0  0.16779  0.68755  0.91781  1.0000
  C   C28       1.0  0.21297  0.27357  0.64964  1.0000
  H   H46       1.0  0.21284  0.24870  0.66269  1.0000
  H   H47       1.0  0.16124  0.25453  0.86945  1.0000
  C   C29       1.0  0.17222  0.23538  0.84882  1.0000
  H   H48       1.0  0.20589  0.62434  0.96127  1.0000
  H   H49       1.0  0.22822  0.68566  0.91550  1.0000
  H   H50       1.0  0.20802  0.28976  0.67907  1.0000
  H   H51       1.0  0.23383  0.67485  0.97452  1.0000
  H   H52       1.0  0.16864  0.62514  0.93722  1.0000
  H   H53       1.0  0.17708  0.68664  0.88243  1.0000
  H   H54       1.0  0.25398  0.22622  0.60686  1.0000
  H   H55       1.0  0.23636  0.27872  0.63799  1.0000
  C   C30       1.0  0.16016  0.27140  0.62935  1.0000
  H   H56       1.0  0.15408  0.28814  0.65767  1.0000
  H   H57       1.0  0.18191  0.22800  0.93915  1.0000
  H   H58       1.0  0.19512  0.24390  0.83931  1.0000
  N   N4        1.0  0.18791  0.67127  0.95062  1.0000
  C   C31       1.0  0.21797  0.68655  0.95029  1.0000
  H   H59       1.0  0.20034  0.63478  0.90211  1.0000
  H   H60       1.0  0.18635  0.32836  0.62207  1.0000
  C   C32       1.0  0.19091  0.63741  0.93722  1.0000
  H   H61       1.0  0.18966  0.66168  0.02296  1.0000
  H   H62       1.0  0.39495  0.68199  0.61935  1.0000
  N   N5        1.0  0.17361  0.20510  0.87407  1.0000
  C   C33       1.0  0.17500  0.67355  0.99716  1.0000
  C   C34       1.0  0.26456  0.20463  0.59496  1.0000
  C   C35       1.0  0.19246  0.31070  0.59502  1.0000
  H   H63       1.0  0.21068  0.93536  0.19614  1.0000
  H   H64       1.0  0.35049  0.73237  0.54488  1.0000
  Fe  Fe7       1.0  0.33386  0.75973  0.30626  1.0000
  S   S11       1.0  0.33793  0.81202  0.32146  1.0000
  S   S12       1.0  0.29511  0.72904  0.32967  1.0000
  Fe  Fe8       1.0  0.35628  0.81473  0.24985  1.0000
  H   H65       1.0  0.16842  0.77842  0.15226  1.0000
  S   S13       1.0  0.34901  0.76313  0.23341  1.0000
  S   S14       1.0  0.38016  0.74836  0.33206  1.0000
  H   H66       1.0  0.27699  0.93653  0.16980  1.0000
  H   H67       1.0  0.32086  0.72087  0.42588  1.0000
  C   C36       1.0  0.33538  0.72697  0.51533  1.0000
  Fe  Fe9       1.0  0.38601  0.80098  0.34030  1.0000
  H   H68       1.0  0.31781  0.76255  0.41451  1.0000
  H   H69       1.0  0.29381  0.80708  0.23059  1.0000
  S   S15       1.0  0.16946  0.16891  0.37177  1.0000
  C   C37       1.0  0.26663  0.79400  0.17212  1.0000
  C   C38       1.0  0.33151  0.78308  0.49956  1.0000
  H   H70       1.0  0.37080  0.68988  0.26183  1.0000
  C   C39       1.0  0.27663  0.72554  0.24015  1.0000
  H   H71       1.0  0.29047  0.74609  0.23472  1.0000
  C   C40       1.0  0.26193  0.71115  0.20286  1.0000
  H   H72       1.0  0.28395  0.89461  0.17466  1.0000
  H   H73       1.0  0.26520  0.72032  0.16868  1.0000
  C   C41       1.0  0.29014  0.81030  0.19427  1.0000
  C   C42       1.0  0.31639  0.74448  0.44212  1.0000
  C   C43       1.0  0.36902  0.75111  0.46084  1.0000
  H   H74       1.0  0.37532  0.72723  0.44712  1.0000
  C   C44       1.0  0.30887  0.83059  0.16956  1.0000
  H   H75       1.0  0.16540  0.78420  0.09185  1.0000
  C   C45       1.0  0.22578  0.87625  0.16688  1.0000
  Fe  Fe10      1.0  0.26147  0.06643  0.10646  1.0000
  C   C46       1.0  0.27983  0.81892  0.10056  1.0000
  H   H76       1.0  0.36741  0.70405  0.17920  1.0000
  H   H77       1.0  0.37149  0.76846  0.43266  1.0000
  H   H78       1.0  0.17119  0.10170  0.39103  1.0000
  H   H79       1.0  0.25205  0.77850  0.19144  1.0000
  S   S16       1.0  0.40014  0.08859  0.37990  1.0000
  N   N6        1.0  0.33806  0.75140  0.47949  1.0000
  H   H80       1.0  0.31198  0.72555  0.52882  1.0000
  H   H81       1.0  0.35328  0.00752  0.57903  1.0000
  S   S17       1.0  0.33939  0.84921  0.19719  1.0000
  H   H82       1.0  0.21899  0.87707  0.20353  1.0000
  C   C47       1.0  0.35097  0.11931  0.11938  1.0000
  C   C48       1.0  0.29339  0.14927  0.56457  1.0000
  C   C49       1.0  0.39001  0.83648  0.44348  1.0000
  H   H83       1.0  0.35257  0.13893  0.14515  1.0000
  C   C50       1.0  0.26656  0.91349  0.17961  1.0000
  C   C51       1.0  0.30337  0.83543  0.12285  1.0000
  C   C52       1.0  0.26186  0.79771  0.12517  1.0000
  S   S18       1.0  0.29956  0.17101  0.47642  1.0000
  H   H84       1.0  0.37522  0.10172  0.46921  1.0000
  C   C53       1.0  0.30041  0.11981  0.30461  1.0000
  C   C54       1.0  0.35636  0.87034  0.50892  1.0000
  H   H85       1.0  0.33055  0.69094  0.26448  1.0000
  H   H86       1.0  0.26154  0.91473  0.21691  1.0000
  H   H87       1.0  0.34186  0.70298  0.50213  1.0000
  C   C55       1.0  0.39614  0.83286  0.49025  1.0000
  H   H88       1.0  0.33341  0.80213  0.47349  1.0000
  Fe  Fe11      1.0  0.20330  0.03150  0.12226  1.0000
  H   H89       1.0  0.20549  0.86997  0.14605  1.0000
  H   H90       1.0  0.36239  0.86004  0.39335  1.0000
  H   H91       1.0  0.20020  0.05751  0.35495  1.0000
  N   N7        1.0  0.39077  0.14286  0.50658  1.0000
  H   H92       1.0  0.28681  0.14190  0.30824  1.0000
  Fe  Fe12      1.0  0.23641  0.06093  0.20217  1.0000
  H   H93       1.0  0.29270  0.74438  0.45458  1.0000
  H   H94       1.0  0.28651  0.10217  0.28539  1.0000
  C   C56       1.0  0.22109  0.11770  0.28472  1.0000
  H   H95       1.0  0.39100  0.08093  0.15821  1.0000
  H   H96       1.0  0.33649  0.12264  0.40734  1.0000
  H   H97       1.0  0.30394  0.12753  0.55279  1.0000
  C   C57       1.0  0.18724  0.13698  0.34394  1.0000
  C   C58       1.0  0.18487  0.10613  0.36112  1.0000
  H   H98       1.0  0.22578  0.95589  0.14773  1.0000
  H   H99       1.0  0.34995  0.13595  0.35301  1.0000
  S   S19       1.0  0.17410  0.99103  0.09969  1.0000
  C   C59       1.0  0.24697  0.90475  0.10327  1.0000
  C   C60       1.0  0.20550  0.14276  0.30595  1.0000
  H   H100      1.0  0.34012  0.09860  0.13617  1.0000
  Fe  Fe13      1.0  0.39556  0.75616  0.26028  1.0000
  S   S20       1.0  0.18357  0.15022  0.12542  1.0000
  S   S21       1.0  0.25001  0.02426  0.14980  1.0000
  C   C61       1.0  0.21686  0.93259  0.15942  1.0000
  H   H101      1.0  0.30833  0.78422  0.51401  1.0000
  H   H102      1.0  0.33298  0.89041  0.45118  1.0000
  H   H103      1.0  0.19564  0.92805  0.13978  1.0000
  H   H104      1.0  0.39438  0.15052  0.43408  1.0000
  C   C62       1.0  0.27322  0.71354  0.28421  1.0000
  H   H105      1.0  0.28943  0.09299  0.41300  1.0000
  C   C63       1.0  0.32673  0.07741  0.34275  1.0000
  C   C64       1.0  0.20141  0.08123  0.34093  1.0000
  C   C65       1.0  0.36702  0.85695  0.42944  1.0000
  H   H106      1.0  0.38388  0.14607  0.57939  1.0000
  S   S22       1.0  0.25301  0.10248  0.16190  1.0000
  H   H107      1.0  0.26849  0.08217  0.36253  1.0000
  C   C66       1.0  0.32920  0.13108  0.37307  1.0000
  H   H108      1.0  0.32024  0.12546  0.28288  1.0000
  C   C67       1.0  0.37907  0.84948  0.52306  1.0000
  C   C68       1.0  0.21947  0.08699  0.30266  1.0000
  C   C69       1.0  0.38847  0.16365  0.46612  1.0000
  H   H109      1.0  0.31715  0.15407  0.37837  1.0000
  Fe  Fe14      1.0  0.20623  0.10316  0.13310  1.0000
  S   S23       1.0  0.24079  0.05618  0.27803  1.0000
  H   H110      1.0  0.31248  0.05892  0.32561  1.0000
  H   H111      1.0  0.20760  0.16666  0.29290  1.0000
  C   C70       1.0  0.28295  0.10103  0.37811  1.0000
  H   H112      1.0  0.35874  0.17009  0.54590  1.0000
  H   H113      1.0  0.23505  0.12238  0.25529  1.0000
  C   C71       1.0  0.35051  0.87422  0.46213  1.0000
  N   N8        1.0  0.30980  0.10736  0.34965  1.0000
  H   H114      1.0  0.24218  0.85643  0.16294  1.0000
  S   S24       1.0  0.18866  0.06473  0.17818  1.0000
  S   S25       1.0  0.33558  0.89248  0.54892  1.0000
  S   S26       1.0  0.38690  0.18350  0.19896  1.0000
  H   H115      1.0  0.34620  0.12342  0.49859  1.0000
  H   H116      1.0  0.26876  0.12262  0.38251  1.0000
  H   H117      1.0  0.34700  0.08114  0.32102  1.0000
  H   H118      1.0  0.17847  0.72062  0.14154  1.0000
  C   C72       1.0  0.36689  0.98560  0.58438  1.0000
  H   H119      1.0  0.35290  0.17442  0.28208  1.0000
  N   N9        1.0  0.23905  0.90677  0.15233  1.0000
  H   H120      1.0  0.33474  0.06757  0.37590  1.0000
  H   H121      1.0  0.38385  0.84662  0.55916  1.0000
  N   N10       1.0  0.38097  0.11090  0.10083  1.0000
  C   C73       1.0  0.28893  0.17451  0.53424  1.0000
  H   H122      1.0  0.34755  0.78904  0.52784  1.0000
  H   H123      1.0  0.15371  0.15058  0.25127  1.0000
  H   H124      1.0  0.32690  0.70399  0.18246  1.0000
  H   H125      1.0  0.38601  0.75745  0.48744  1.0000
  H   H126      1.0  0.36517  0.17315  0.46192  1.0000
  S   S27       1.0  0.23300  0.77594  0.09834  1.0000
  H   H127      1.0  0.37201  0.09879  0.53013  1.0000
  C   C74       1.0  0.37010  0.11550  0.50089  1.0000
  C   C75       1.0  0.38236  0.16106  0.54820  1.0000
  H   H128      1.0  0.26335  0.88527  0.09640  1.0000
  H   H129      1.0  0.15945  0.10829  0.25560  1.0000
  H   H130      1.0  0.35929  0.96729  0.55896  1.0000
  C   C76       1.0  0.16328  0.72165  0.11102  1.0000
  H   H131      1.0  0.39068  0.99156  0.57630  1.0000
  C   C77       1.0  0.40100  0.10087  0.13861  1.0000
  H   H132      1.0  0.39738  0.18199  0.55359  1.0000
  H   H133      1.0  0.39799  0.15881  0.10276  1.0000
  H   H134      1.0  0.31787  0.85114  0.10370  1.0000
  H   H135      1.0  0.15394  0.69730  0.10539  1.0000
  H   H136      1.0  0.33535  0.12729  0.09183  1.0000
  S   S28       1.0  0.25413  0.18828  0.36566  1.0000
  C   C78       1.0  0.34699  0.68863  0.17650  1.0000
  H   H137      1.0  0.25733  0.92727  0.09122  1.0000
  Fe  Fe15      1.0  0.21863  0.79662  0.03187  1.0000
  Fe  Fe16      1.0  0.34935  0.82044  0.68736  1.0000
  Fe  Fe17      1.0  0.20589  0.78733  0.93087  1.0000
  S   S29       1.0  0.21182  0.75217  0.87363  1.0000
  C   C79       1.0  0.39626  0.70770  0.61921  1.0000
  S   S30       1.0  0.24485  0.80905  0.96908  1.0000
  H   H138      1.0  0.33382  0.91267  0.90979  1.0000
  H   H139      1.0  0.22386  0.81827  0.85384  1.0000
  H   H140      1.0  0.38217  0.93667  0.67336  1.0000
  S   S31       1.0  0.19353  0.84242  0.03535  1.0000
  C   C80       1.0  0.38376  0.94599  0.63786  1.0000
  C   C81       1.0  0.37796  0.08451  0.06730  1.0000
  C   C82       1.0  0.39901  0.77426  0.61861  1.0000
  S   S32       1.0  0.37921  0.78005  0.70691  1.0000
  H   H141      1.0  0.37050  0.99110  0.70067  1.0000
  H   H142      1.0  0.27606  0.82204  0.06428  1.0000
  C   C83       1.0  0.18772  0.18045  0.84472  1.0000
  C   C84       1.0  0.22212  0.77147  0.82312  1.0000
  C   C85       1.0  0.22481  0.75384  0.78250  1.0000
  C   C86       1.0  0.23008  0.76933  0.74099  1.0000
  H   H143      1.0  0.25669  0.12033  0.05897  1.0000
  C   C87       1.0  0.22583  0.80454  0.82254  1.0000
  H   H144      1.0  0.22212  0.72825  0.78288  1.0000
  H   H145      1.0  0.23147  0.75573  0.70940  1.0000
  S   S33       1.0  0.30126  0.07018  0.05984  1.0000
  C   C88       1.0  0.23337  0.80242  0.74025  1.0000
  S   S34       1.0  0.21567  0.07028  0.07420  1.0000
  H   H146      1.0  0.26374  0.87281  0.86824  1.0000
  S   S35       1.0  0.18254  0.77043  0.99373  1.0000
  Fe  Fe18      1.0  0.28439  0.83999  0.68082  1.0000
  C   C89       1.0  0.23158  0.82001  0.78109  1.0000
  Fe  Fe19      1.0  0.21606  0.85305  0.96860  1.0000
  S   S36       1.0  0.31662  0.83802  0.73992  1.0000
  C   C90       1.0  0.37297  0.99917  0.66465  1.0000
  H   H147      1.0  0.29336  0.91555  0.90650  1.0000
  Fe  Fe20      1.0  0.15901  0.81724  0.99235  1.0000
  Fe  Fe21      1.0  0.33039  0.86888  0.61709  1.0000
  S   S37       1.0  0.17879  0.83228  0.92530  1.0000
  H   H148      1.0  0.23229  0.99541  0.05535  1.0000
  H   H149      1.0  0.39892  0.11629  0.92241  1.0000
  H   H150      1.0  0.39695  0.00621  0.65981  1.0000
  C   C91       1.0  0.38666  0.09888  0.72241  1.0000
  Fe  Fe22      1.0  0.32316  0.11696  0.77493  1.0000
  H   H151      1.0  0.33830  0.83529  0.84688  1.0000
  C   C92       1.0  0.31380  0.90665  0.88832  1.0000
  C   C93       1.0  0.39402  0.13890  0.07792  1.0000
  H   H152      1.0  0.34190  0.87379  0.82172  1.0000
  C   C94       1.0  0.36894  0.10315  0.68328  1.0000
  C   C95       1.0  0.33919  0.86126  0.85479  1.0000
  H   H153      1.0  0.27044  0.04898  0.93696  1.0000
  Fe  Fe23      1.0  0.27187  0.13946  0.83517  1.0000
  H   H154      1.0  0.17799  0.02336  0.91617  1.0000
  S   S38       1.0  0.25696  0.16009  0.90267  1.0000
  H   H155      1.0  0.31573  0.92028  0.85592  1.0000
  H   H156      1.0  0.34681  0.99364  0.78204  1.0000
  S   S39       1.0  0.31606  0.81845  0.62935  1.0000
  H   H157      1.0  0.28534  0.13163  0.63257  1.0000
  S   S40       1.0  0.30121  0.16448  0.78480  1.0000
  S   S41       1.0  0.29683  0.09336  0.83029  1.0000
  H   H158      1.0  0.30776  0.03549  0.78316  1.0000
  C   C96       1.0  0.31535  0.95566  0.76797  1.0000
  H   H159      1.0  0.32936  0.85906  0.94515  1.0000
  S   S42       1.0  0.23713  0.82186  0.68789  1.0000
  N   N11       1.0  0.22507  0.03576  0.91844  1.0000
  H   H160      1.0  0.30713  0.82872  0.91706  1.0000
  H   H161      1.0  0.21440  0.08499  0.90634  1.0000
  H   H162      1.0  0.28585  0.87849  0.81752  1.0000
  S   S43       1.0  0.29238  0.10040  0.71824  1.0000
  C   C97       1.0  0.29241  0.09914  0.01908  1.0000
  C   C98       1.0  0.26814  0.11984  0.02640  1.0000
  C   C99       1.0  0.25800  0.13955  0.99109  1.0000
  C   C100      1.0  0.27259  0.13913  0.94872  1.0000
  C   C101      1.0  0.29857  0.12063  0.94292  1.0000
  C   C102      1.0  0.30828  0.10030  0.97782  1.0000
  H   H163      1.0  0.35894  0.02096  0.66067  1.0000
  N   N12       1.0  0.31179  0.87205  0.87913  1.0000
  H   H164      1.0  0.31116  0.12190  0.91149  1.0000
  H   H165      1.0  0.32737  0.08474  0.97212  1.0000
  S   S44       1.0  0.23663  0.12565  0.78354  1.0000
  C   C103      1.0  0.22019  0.97523  0.04118  1.0000
  C   C104      1.0  0.23413  0.95532  0.00865  1.0000
  C   C105      1.0  0.21887  0.92847  0.99168  1.0000
  C   C106      1.0  0.18929  0.92243  0.00550  1.0000
  H   H166      1.0  0.25185  0.02380  0.97753  1.0000
  C   C107      1.0  0.30929  0.85485  0.92288  1.0000
  N   N13       1.0  0.36398  0.97394  0.63173  1.0000
  H   H167      1.0  0.21804  0.00136  0.86434  1.0000
  C   C108      1.0  0.30119  0.01104  0.77772  1.0000
  H   H168      1.0  0.32453  0.94629  0.61512  1.0000
  S   S45       1.0  0.24285  0.03261  0.77460  1.0000
  C   C109      1.0  0.32336  0.98730  0.77680  1.0000
  S   S46       1.0  0.34367  0.92666  0.76464  1.0000
  H   H169      1.0  0.24185  0.06504  0.97374  1.0000
  C   C110      1.0  0.22114  0.06303  0.88736  1.0000
  C   C111      1.0  0.19614  0.02894  0.94146  1.0000
  Fe  Fe24      1.0  0.33114  0.88638  0.71745  1.0000
  C   C112      1.0  0.38912  0.75847  0.65778  1.0000
  H   H170      1.0  0.18849  0.04955  0.96271  1.0000
  H   H171      1.0  0.27868  0.92317  0.75423  1.0000
  C   C113      1.0  0.26270  0.97127  0.76352  1.0000
  C   C114      1.0  0.33227  0.96483  0.64003  1.0000
  H   H172      1.0  0.25711  0.95992  0.99819  1.0000
  Fe  Fe25      1.0  0.26829  0.14658  0.73190  1.0000
  H   H173      1.0  0.23921  0.96502  0.75848  1.0000
  H   H174      1.0  0.28289  0.83961  0.84210  1.0000
  S   S47       1.0  0.23768  0.90071  0.95708  1.0000
  C   C115      1.0  0.23473  0.00750  0.89168  1.0000
  H   H175      1.0  0.21657  0.71213  0.96028  1.0000
  C   C116      1.0  0.24832  0.04367  0.95318  1.0000
  H   H176      1.0  0.23835  0.15442  0.99630  1.0000
  Fe  Fe26      1.0  0.26395  0.08115  0.77482  1.0000
  H   H177      1.0  0.24243  0.06842  0.86901  1.0000
  H   H178      1.0  0.35994  0.86598  0.87532  1.0000
  H   H179      1.0  0.36338  0.09214  0.61176  1.0000
  H   H180      1.0  0.16954  0.80187  0.74759  1.0000
  C   C117      1.0  0.27079  0.00306  0.77152  1.0000
  H   H181      1.0  0.25663  0.01179  0.87413  1.0000
  H   H182      1.0  0.20381  0.05795  0.86053  1.0000
  C   C118      1.0  0.28502  0.94760  0.76109  1.0000
  S   S48       1.0  0.36708  0.86854  0.67000  1.0000
  C   C119      1.0  0.17536  0.94231  0.03779  1.0000
  C   C120      1.0  0.37787  0.08987  0.64139  1.0000
  H   H183      1.0  0.16481  0.71311  0.92702  1.0000
  C   C121      1.0  0.28488  0.86542  0.85051  1.0000
  H   H184      1.0  0.28913  0.86271  0.94251  1.0000
  H   H185      1.0  0.37872  0.14792  0.05068  1.0000
  H   H186      1.0  0.17205  0.69874  0.00804  1.0000
  H   H187      1.0  0.38046  0.71304  0.68860  1.0000
  H   H188      1.0  0.34834  0.11671  0.68525  1.0000
  H   H189      1.0  0.19810  0.00814  0.96458  1.0000
  H   H190      1.0  0.23744  0.98625  0.91380  1.0000
  H   H191      1.0  0.40115  0.15759  0.90680  1.0000
  S   S49       1.0  0.37352  0.11168  0.77591  1.0000
  H   H192      1.0  0.23373  0.84565  0.78036  1.0000
  S   S50       1.0  0.29553  0.89038  0.66341  1.0000
  C   C122      1.0  0.19092  0.96841  0.05616  1.0000
  H   H193      1.0  0.36761  0.06314  0.08316  1.0000
  C   C123      1.0  0.28281  0.15154  0.60987  1.0000
  H   H194      1.0  0.31683  0.98559  0.63700  1.0000
  H   H195      1.0  0.16704  0.74307  0.75319  1.0000
  H   H196      1.0  0.36327  0.09135  0.03808  1.0000
  H   H197      1.0  0.39994  0.79998  0.61818  1.0000
  C   C124      1.0  0.38808  0.72523  0.65827  1.0000
  H   H198      1.0  0.37760  0.92641  0.61360  1.0000
  H   H199      1.0  0.17711  0.90219  0.99162  1.0000
  H   H200      1.0  0.38691  0.12874  0.86671  1.0000
  H   H201      1.0  0.40032  0.07734  0.05315  1.0000
  H   H202      1.0  0.18979  0.15740  0.86295  1.0000
  H   H203      1.0  0.32935  0.95502  0.67492  1.0000
  H   H204      1.0  0.21097  0.18750  0.83443  1.0000
  H   H205      1.0  0.17793  0.72766  0.08152  1.0000
  H   H206      1.0  0.15810  0.77721  0.82196  1.0000
  H   H207      1.0  0.17443  0.17619  0.81281  1.0000
  S   S51       1.0  0.25200  0.18211  0.67997  1.0000
  C   C125      1.0  0.26789  0.17908  0.62490  1.0000
  H   H208      1.0  0.22669  0.90005  0.08165  1.0000
  H   H209      1.0  0.19361  0.18703  0.93585  1.0000
  C   C126      1.0  0.63863  0.39502  0.27363  1.0000
  S   S52       1.0  0.60824  0.24259  0.29843  1.0000
  S   S53       1.0  0.50262  0.67663  0.53145  1.0000
  H   H210      1.0  0.57939  0.62144  0.55059  1.0000
  C   C127      1.0  0.52056  0.22807  0.44151  1.0000
  Fe  Fe27      1.0  0.63163  0.22968  0.36395  1.0000
  C   C128      1.0  0.55162  0.22383  0.44820  1.0000
  C   C129      1.0  0.50691  0.21712  0.40112  1.0000
  H   H211      1.0  0.56222  0.23206  0.47962  1.0000
  S   S54       1.0  0.61225  0.33729  0.29133  1.0000
  H   H212      1.0  0.61713  0.40197  0.25915  1.0000
  H   H213      1.0  0.63404  0.61197  0.53811  1.0000
  H   H214      1.0  0.48133  0.29372  0.30137  1.0000
  H   H215      1.0  0.51744  0.34307  0.35374  1.0000
  H   H216      1.0  0.55255  0.26280  0.35414  1.0000
  C   C130      1.0  0.54948  0.28898  0.35491  1.0000
  H   H217      1.0  0.49910  0.25877  0.32318  1.0000
  H   H218      1.0  0.48969  0.29068  0.36152  1.0000
  H   H219      1.0  0.51035  0.34327  0.29301  1.0000
  H   H220      1.0  0.52426  0.29634  0.24537  1.0000
  H   H221      1.0  0.54122  0.29548  0.38972  1.0000
  H   H222      1.0  0.56230  0.29918  0.26626  1.0000
  H   H223      1.0  0.54833  0.34586  0.31427  1.0000
  C   C131      1.0  0.49831  0.28514  0.32654  1.0000
  C   C132      1.0  0.53967  0.28892  0.27346  1.0000
  N   N14       1.0  0.52835  0.29939  0.31874  1.0000
  S   S55       1.0  0.62815  0.49259  0.13380  1.0000
  H   H224      1.0  0.57222  0.29986  0.35070  1.0000
  C   C133      1.0  0.52594  0.33446  0.32001  1.0000
  H   H225      1.0  0.54196  0.26255  0.27155  1.0000
  H   H226      1.0  0.64526  0.55075  0.17959  1.0000
  H   H227      1.0  0.51390  0.19397  0.33574  1.0000
  H   H228      1.0  0.60337  0.63760  0.47769  1.0000
  S   S56       1.0  0.54315  0.66330  0.41547  1.0000
  H   H229      1.0  0.60179  0.52876  0.36945  1.0000
  H   H230      1.0  0.55044  0.59077  0.32330  1.0000
  S   S57       1.0  0.55373  0.61481  0.18723  1.0000
  S   S58       1.0  0.60790  0.20545  0.42149  1.0000
  H   H231      1.0  0.63384  0.54057  0.33612  1.0000
  C   C134      1.0  0.61324  0.54953  0.35381  1.0000
  H   H232      1.0  0.59501  0.60664  0.27686  1.0000
  C   C135      1.0  0.57433  0.58082  0.17261  1.0000
  C   C136      1.0  0.60523  0.57938  0.18194  1.0000
  C   C137      1.0  0.62149  0.55176  0.17159  1.0000
  C   C138      1.0  0.55973  0.55466  0.15249  1.0000
  H   H233      1.0  0.61655  0.59919  0.19823  1.0000
  H   H234      1.0  0.56512  0.50742  0.12402  1.0000
  H   H235      1.0  0.56588  0.64527  0.32822  1.0000
  C   C139      1.0  0.58331  0.54429  0.28490  1.0000
  Fe  Fe28      1.0  0.58053  0.65902  0.17422  1.0000
  H   H236      1.0  0.56766  0.55621  0.26055  1.0000
  H   H237      1.0  0.57127  0.52330  0.29886  1.0000
  H   H238      1.0  0.63002  0.58541  0.28274  1.0000
  H   H239      1.0  0.60288  0.53530  0.26471  1.0000
  H   H240      1.0  0.57290  0.59568  0.37423  1.0000
  C   C140      1.0  0.60950  0.59344  0.30150  1.0000
  N   N15       1.0  0.59310  0.56639  0.32173  1.0000
  C   C141      1.0  0.56638  0.57836  0.34673  1.0000
  S   S59       1.0  0.63047  0.66341  0.18482  1.0000
  H   H241      1.0  0.55373  0.55869  0.36317  1.0000
  C   C142      1.0  0.52431  0.20226  0.36718  1.0000
  C   C143      1.0  0.60717  0.52599  0.15006  1.0000
  S   S60       1.0  0.46824  0.22241  0.39249  1.0000
  H   H242      1.0  0.50711  0.23949  0.46780  1.0000
  Fe  Fe29      1.0  0.65126  0.22625  0.26570  1.0000
  C   C144      1.0  0.57627  0.52742  0.14046  1.0000
  C   C145      1.0  0.58530  0.64528  0.56493  1.0000
  C   C146      1.0  0.55549  0.19893  0.37327  1.0000
  C   C147      1.0  0.57807  0.66614  0.33943  1.0000
  H   H243      1.0  0.53574  0.55568  0.14548  1.0000
  H   H244      1.0  0.61704  0.61073  0.32832  1.0000
  C   C148      1.0  0.57119  0.68046  0.38141  1.0000
  H   H245      1.0  0.62075  0.56553  0.38229  1.0000
  H   H246      1.0  0.56578  0.66130  0.55862  1.0000
  H   H247      1.0  0.60437  0.66869  0.27795  1.0000
  Fe  Fe30      1.0  0.63190  0.28943  0.30684  1.0000
  N   N16       1.0  0.61313  0.65793  0.54413  1.0000
  H   H248      1.0  0.58978  0.67728  0.48610  1.0000
  S   S61       1.0  0.58033  0.68077  0.10445  1.0000
  C   C149      1.0  0.56909  0.20962  0.41386  1.0000
  C   C150      1.0  0.64217  0.36466  0.29223  1.0000
  C   C151      1.0  0.63848  0.63599  0.55308  1.0000
  C   C152      1.0  0.60873  0.66095  0.49413  1.0000
  H   H249      1.0  0.62932  0.67022  0.47702  1.0000
  C   C153      1.0  0.59946  0.67979  0.31056  1.0000
  S   S62       1.0  0.65092  0.27839  0.37581  1.0000
  H   H250      1.0  0.47415  0.68406  0.19140  1.0000
  H   H251      1.0  0.60695  0.19388  0.12640  1.0000
  S   S63       1.0  0.64945  0.19885  0.19937  1.0000
  H   H252      1.0  0.56928  0.18926  0.10458  1.0000
  H   H253      1.0  0.60925  0.66977  0.01773  1.0000
  N   N17       1.0  0.63871  0.58294  0.03434  1.0000
  C   C154      1.0  0.63017  0.54977  0.02291  1.0000
  H   H254      1.0  0.64974  0.53595  0.00961  1.0000
  H   H255      1.0  0.59404  0.60225  0.02591  1.0000
  H   H256      1.0  0.63249  0.59997  0.96563  1.0000
  C   C155      1.0  0.65006  0.59893  0.99290  1.0000
  H   H257      1.0  0.61201  0.54887  0.99652  1.0000
  H   H258      1.0  0.62174  0.53699  0.05361  1.0000
  H   H259      1.0  0.60220  0.58784  0.08226  1.0000
  H   H260      1.0  0.58761  0.64312  0.60277  1.0000
  C   C156      1.0  0.61211  0.60018  0.05226  1.0000
  H   H261      1.0  0.61824  0.62463  0.06395  1.0000
  C   C157      1.0  0.62388  0.68390  0.99667  1.0000
  H   H262      1.0  0.64266  0.63308  0.59047  1.0000
  H   H263      1.0  0.59167  0.68656  0.94140  1.0000
  H   H264      1.0  0.62308  0.68815  0.60214  1.0000
  Fe  Fe31      1.0  0.41719  0.16849  0.25647  1.0000
  H   H265      1.0  0.42461  0.11512  0.54102  1.0000
  H   H266      1.0  0.50999  0.76015  0.24381  1.0000
  H   H267      1.0  0.55934  0.14968  0.16528  1.0000
  C   C158      1.0  0.48424  0.88042  0.58917  1.0000
  H   H268      1.0  0.41733  0.76882  0.55075  1.0000
  Fe  Fe32      1.0  0.57371  0.72696  0.14189  1.0000
  S   S64       1.0  0.62301  0.73776  0.14967  1.0000
  Fe  Fe33      1.0  0.50860  0.76420  0.49367  1.0000
  S   S65       1.0  0.40591  0.17298  0.33114  1.0000
  S   S66       1.0  0.51416  0.81486  0.47287  1.0000
  C   C159      1.0  0.51567  0.72124  0.31448  1.0000
  H   H269      1.0  0.55554  0.76369  0.34968  1.0000
  S   S67       1.0  0.48358  0.72802  0.45149  1.0000
  H   H270      1.0  0.42324  0.09261  0.12555  1.0000
  S   S68       1.0  0.52669  0.97161  0.57620  1.0000
  H   H271      1.0  0.58105  0.71984  0.42680  1.0000
  C   C160      1.0  0.46767  0.85283  0.57925  1.0000
  H   H272      1.0  0.45072  0.91095  0.50608  1.0000
  Fe  Fe34      1.0  0.45423  0.18658  0.33983  1.0000
  H   H273      1.0  0.45143  0.87209  0.48016  1.0000
  C   C161      1.0  0.60760  0.72220  0.36574  1.0000
  C   C162      1.0  0.47564  0.12634  0.11839  1.0000
  C   C163      1.0  0.59265  0.17970  0.10233  1.0000
  H   H274      1.0  0.61862  0.74424  0.37553  1.0000
  C   C164      1.0  0.51062  0.88675  0.56484  1.0000
  C   C165      1.0  0.50526  0.75082  0.14650  1.0000
  H   H275      1.0  0.53941  0.71423  0.30745  1.0000
  C   C166      1.0  0.50987  0.08195  0.10921  1.0000
  C   C167      1.0  0.47640  0.70884  0.18219  1.0000
  Fe  Fe35      1.0  0.46576  0.71199  0.51904  1.0000
  H   H276      1.0  0.46587  0.75549  0.29607  1.0000
  C   C168      1.0  0.48282  0.77282  0.15853  1.0000
  H   H277      1.0  0.52005  0.79636  0.27314  1.0000
  H   H278      1.0  0.47716  0.79077  0.32693  1.0000
  H   H279      1.0  0.50893  0.70984  0.34719  1.0000
  H   H280      1.0  0.52470  0.75839  0.38831  1.0000
  H   H281      1.0  0.46378  0.81150  0.53533  1.0000
  H   H282      1.0  0.64023  0.14601  0.13412  1.0000
  H   H283      1.0  0.47183  0.75423  0.35687  1.0000
  S   S69       1.0  0.54969  0.73423  0.50415  1.0000
  S   S70       1.0  0.48767  0.75074  0.56025  1.0000
  H   H284      1.0  0.54716  0.76476  0.26698  1.0000
  C   C169      1.0  0.45459  0.73091  0.19593  1.0000
  H   H285      1.0  0.52867  0.79520  0.35877  1.0000
  C   C170      1.0  0.45749  0.76287  0.18350  1.0000
  S   S71       1.0  0.53929  0.76348  0.12225  1.0000
  C   C171      1.0  0.52288  0.77007  0.27336  1.0000
  N   N18       1.0  0.51252  0.75623  0.31691  1.0000
  C   C172      1.0  0.53117  0.76895  0.35501  1.0000
  C   C173      1.0  0.48047  0.76456  0.32449  1.0000
  C   C174      1.0  0.50163  0.71876  0.15748  1.0000
  H   H286      1.0  0.48552  0.79765  0.14995  1.0000
  C   C175      1.0  0.47723  0.83210  0.54421  1.0000
  H   H287      1.0  0.44044  0.77994  0.19344  1.0000
  H   H288      1.0  0.40402  0.18442  0.46897  1.0000
  Fe  Fe36      1.0  0.42307  0.12320  0.33466  1.0000
  H   H289      1.0  0.40532  0.12082  0.16313  1.0000
  H   H290      1.0  0.57989  0.05849  0.39596  1.0000
  Fe  Fe37      1.0  0.47670  0.13630  0.27401  1.0000
  C   C176      1.0  0.50672  0.10976  0.18232  1.0000
  C   C177      1.0  0.44610  0.94247  0.42460  1.0000
  H   H291      1.0  0.54042  0.04899  0.39690  1.0000
  H   H292      1.0  0.60123  0.70664  0.55834  1.0000
  H   H293      1.0  0.43833  0.15116  0.51572  1.0000
  S   S72       1.0  0.41413  0.05384  0.58696  1.0000
  S   S73       1.0  0.43037  0.11717  0.25952  1.0000
  C   C178      1.0  0.44433  0.89717  0.47479  1.0000
  Fe  Fe38      1.0  0.49925  0.99788  0.52455  1.0000
  S   S74       1.0  0.50591  0.00083  0.44859  1.0000
  H   H294      1.0  0.59693  0.11406  0.41169  1.0000
  H   H295      1.0  0.50311  0.09083  0.41941  1.0000
  H   H296      1.0  0.42124  0.94184  0.41904  1.0000
  H   H297      1.0  0.42910  0.11744  0.48004  1.0000
  H   H298      1.0  0.54118  0.13225  0.35663  1.0000
  C   C179      1.0  0.57521  0.11758  0.43012  1.0000
  C   C180      1.0  0.42838  0.06229  0.39712  1.0000
  C   C181      1.0  0.45139  0.05317  0.36688  1.0000
  C   C182      1.0  0.47496  0.03351  0.38210  1.0000
  C   C183      1.0  0.47613  0.02427  0.42801  1.0000
  C   C184      1.0  0.45344  0.03419  0.45804  1.0000
  C   C185      1.0  0.42920  0.05230  0.44245  1.0000
  H   H299      1.0  0.45089  0.06104  0.33169  1.0000
  H   H300      1.0  0.49242  0.02599  0.35856  1.0000
  H   H301      1.0  0.45450  0.02849  0.49368  1.0000
  H   H302      1.0  0.51845  0.70148  0.14733  1.0000
  C   C186      1.0  0.52218  0.10482  0.43422  1.0000
  C   C187      1.0  0.58282  0.14080  0.16077  1.0000
  C   C188      1.0  0.55814  0.06415  0.41313  1.0000
  S   S75       1.0  0.47070  0.13690  0.34999  1.0000
  C   C189      1.0  0.49139  0.91235  0.43971  1.0000
  H   H303      1.0  0.56905  0.18795  0.34670  1.0000
  C   C190      1.0  0.58611  0.70846  0.39468  1.0000
  H   H304      1.0  0.56001  0.05663  0.44953  1.0000
  H   H305      1.0  0.53642  0.07021  0.16892  1.0000
  H   H306      1.0  0.52424  0.90710  0.57354  1.0000
  H   H307      1.0  0.56803  0.10225  0.34098  1.0000
  H   H308      1.0  0.41175  0.05945  0.46620  1.0000
  H   H309      1.0  0.47517  0.14869  0.18472  1.0000
  N   N19       1.0  0.55064  0.09832  0.40954  1.0000
  C   C191      1.0  0.54699  0.10669  0.36073  1.0000
  H   H310      1.0  0.57001  0.14346  0.42896  1.0000
  H   H311      1.0  0.57902  0.11146  0.46671  1.0000
  C   C192      1.0  0.45153  0.88929  0.39366  1.0000
  C   C193      1.0  0.48495  0.13005  0.16391  1.0000
  C   C194      1.0  0.50317  0.83911  0.51894  1.0000
  H   H312      1.0  0.59734  0.15371  0.18607  1.0000
  H   H313      1.0  0.51600  0.13049  0.43252  1.0000
  S   S76       1.0  0.45530  0.97896  0.55034  1.0000
  S   S77       1.0  0.51671  0.11367  0.24019  1.0000
  H   H314      1.0  0.54037  0.87144  0.51076  1.0000
  N   N20       1.0  0.45834  0.91036  0.43320  1.0000
  H   H315      1.0  0.52866  0.09256  0.34397  1.0000
  Fe  Fe39      1.0  0.52298  0.69648  0.46766  1.0000
  S   S78       1.0  0.41197  0.81621  0.40295  1.0000
  H   H316      1.0  0.49736  0.92705  0.47039  1.0000
  C   C195      1.0  0.51969  0.08608  0.15469  1.0000
  C   C196      1.0  0.51998  0.86629  0.52961  1.0000
  H   H317      1.0  0.50142  0.71081  0.28659  1.0000
  Fe  Fe40      1.0  0.52631  0.71709  0.56674  1.0000
  C   C197      1.0  0.61384  0.70814  0.32325  1.0000
  H   H318      1.0  0.50145  0.88831  0.44434  1.0000
  Fe  Fe41      1.0  0.61934  0.71099  0.21541  1.0000
  C   C198      1.0  0.62490  0.13373  0.10933  1.0000
  H   H319      1.0  0.52403  0.09838  0.47105  1.0000
  H   H320      1.0  0.58289  0.11520  0.17017  1.0000
  S   S79       1.0  0.42480  0.71789  0.23026  1.0000
  H   H321      1.0  0.41927  0.89721  0.47227  1.0000
  H   H322      1.0  0.45911  0.14247  0.10449  1.0000
  H   H323      1.0  0.45067  0.95882  0.45396  1.0000
  C   C199      1.0  0.40868  0.75665  0.58039  1.0000
  H   H324      1.0  0.50260  0.92345  0.40978  1.0000
  H   H325      1.0  0.45660  0.95340  0.39392  1.0000
  S   S80       1.0  0.41713  0.70133  0.53183  1.0000
  S   S81       1.0  0.63661  0.72756  0.28352  1.0000
  S   S82       1.0  0.49839  0.04323  0.56528  1.0000
  C   C200      1.0  0.40685  0.72337  0.58045  1.0000
  S   S83       1.0  0.56935  0.70447  0.21052  1.0000
  C   C201      1.0  0.42210  0.13116  0.51106  1.0000
  H   H326      1.0  0.46155  0.89848  0.36152  1.0000
  H   H327      1.0  0.42675  0.88675  0.38822  1.0000
  H   H328      1.0  0.62630  0.10772  0.11585  1.0000
  H   H329      1.0  0.46059  0.86484  0.39913  1.0000
  H   H330      1.0  0.64084  0.69987  0.54946  1.0000
  N   N21       1.0  0.59357  0.14547  0.11341  1.0000
  S   S84       1.0  0.40498  0.80817  0.26998  1.0000
  S   S85       1.0  0.46430  0.18756  0.26469  1.0000
  H   H331      1.0  0.41403  0.81711  0.50105  1.0000
  C   C202      1.0  0.61998  0.68953  0.56434  1.0000
  C   C203      1.0  0.48744  0.10177  0.09129  1.0000
  Fe  Fe42      1.0  0.62949  0.68928  0.11821  1.0000
  H   H332      1.0  0.46344  0.84686  0.68366  1.0000
  H   H333      1.0  0.45352  0.11672  0.94267  1.0000
  H   H334      1.0  0.63414  0.15514  0.87959  1.0000
  H   H335      1.0  0.43898  0.17495  0.84962  1.0000
  H   H336      1.0  0.40789  0.95196  0.63171  1.0000
  C   C204      1.0  0.44096  0.14971  0.83833  1.0000
  Fe  Fe43      1.0  0.63417  0.77393  0.85426  1.0000
  S   S86       1.0  0.61852  0.72517  0.87316  1.0000
  C   C205      1.0  0.61396  0.69331  0.95332  1.0000
  H   H337      1.0  0.42486  0.14586  0.80945  1.0000
  H   H338      1.0  0.57931  0.74877  0.97982  1.0000
  H   H339      1.0  0.64087  0.77346  0.00803  1.0000
  C   C206      1.0  0.63238  0.71222  0.92597  1.0000
  S   S87       1.0  0.55188  0.70967  0.63198  1.0000
  H   H340      1.0  0.63397  0.13775  0.07437  1.0000
  H   H341      1.0  0.43252  0.81931  0.68517  1.0000
  S   S88       1.0  0.60142  0.81439  0.85596  1.0000
  H   H342      1.0  0.51418  0.83022  0.71204  1.0000
  C   C207      1.0  0.58187  0.76017  0.01419  1.0000
  Fe  Fe44      1.0  0.52071  0.01492  0.62041  1.0000
  H   H343      1.0  0.48061  0.12974  0.90155  1.0000
  H   H344      1.0  0.57455  0.10167  0.08772  1.0000
  C   C208      1.0  0.57841  0.80316  0.70190  1.0000
  Fe  Fe45      1.0  0.62033  0.82653  0.78736  1.0000
  C   C209      1.0  0.55890  0.77472  0.63517  1.0000
  C   C210      1.0  0.56209  0.74582  0.65822  1.0000
  C   C211      1.0  0.57303  0.74569  0.70318  1.0000
  C   C212      1.0  0.58097  0.77430  0.72506  1.0000
  C   C213      1.0  0.46092  0.77428  0.73433  1.0000
  H   H345      1.0  0.47698  0.75426  0.73970  1.0000
  H   H346      1.0  0.57509  0.72346  0.72134  1.0000
  H   H347      1.0  0.58852  0.77397  0.76025  1.0000
  C   C214      1.0  0.48293  0.78808  0.66191  1.0000
  H   H348      1.0  0.51893  0.79152  0.73617  1.0000
  H   H349      1.0  0.46245  0.78060  0.64242  1.0000
  C   C215      1.0  0.58808  0.90030  0.89166  1.0000
  N   N22       1.0  0.59569  0.79208  0.01085  1.0000
  Fe  Fe46      1.0  0.45548  0.02337  0.59326  1.0000
  C   C216      1.0  0.57397  0.12771  0.08104  1.0000
  H   H350      1.0  0.56475  0.82570  0.63909  1.0000
  C   C217      1.0  0.40416  0.13280  0.89396  1.0000
  S   S89       1.0  0.58879  0.83879  0.72959  1.0000
  H   H351      1.0  0.49473  0.80646  0.64136  1.0000
  H   H352      1.0  0.55905  0.76141  0.02990  1.0000
  H   H353      1.0  0.61634  0.01405  0.96710  1.0000
  C   C218      1.0  0.45707  0.13328  0.91365  1.0000
  H   H354      1.0  0.44650  0.83644  0.73741  1.0000
  H   H355      1.0  0.63511  0.05114  0.90710  1.0000
  H   H356      1.0  0.44695  0.84800  0.59742  1.0000
  C   C219      1.0  0.45346  0.82691  0.70339  1.0000
  C   C220      1.0  0.50251  0.81131  0.73175  1.0000
  C   C221      1.0  0.56696  0.80342  0.65710  1.0000
  H   H357      1.0  0.41597  0.13294  0.06152  1.0000
  H   H358      1.0  0.44100  0.76419  0.71603  1.0000
  C   C222      1.0  0.63963  0.00409  0.96817  1.0000
  N   N23       1.0  0.47494  0.80019  0.70791  1.0000
  H   H359      1.0  0.58589  0.83708  0.97964  1.0000
  H   H360      1.0  0.61220  0.99776  0.88702  1.0000
  H   H361      1.0  0.49808  0.76700  0.66397  1.0000
  N   N24       1.0  0.43502  0.12757  0.87633  1.0000
  C   C223      1.0  0.57591  0.81291  0.98344  1.0000
  H   H362      1.0  0.55073  0.91847  0.85262  1.0000
  H   H363      1.0  0.58142  0.13106  0.04502  1.0000
  C   C224      1.0  0.63966  0.11033  0.97572  1.0000
  C   C225      1.0  0.62543  0.78926  0.98846  1.0000
  C   C226      1.0  0.64334  0.14600  0.91124  1.0000
  C   C227      1.0  0.42358  0.07021  0.67685  1.0000
  H   H364      1.0  0.45307  0.78278  0.76845  1.0000
  S   S90       1.0  0.65006  0.78357  0.78329  1.0000
  H   H365      1.0  0.57754  0.80843  0.07509  1.0000
  H   H366      1.0  0.49734  0.82106  0.76638  1.0000
  H   H367      1.0  0.61007  0.83003  0.05575  1.0000
  H   H368      1.0  0.57222  0.80298  0.94841  1.0000
  Fe  Fe47      1.0  0.53412  0.02122  0.93141  1.0000
  S   S91       1.0  0.49668  0.05599  0.92030  1.0000
  S   S92       1.0  0.52862  0.97233  0.90117  1.0000
  Fe  Fe48      1.0  0.57534  0.07127  0.97213  1.0000
  S   S93       1.0  0.54184  0.11064  0.96317  1.0000
  Fe  Fe49      1.0  0.50867  0.07523  0.98963  1.0000
  S   S94       1.0  0.47302  0.09549  0.03591  1.0000
  Fe  Fe50      1.0  0.53286  0.08816  0.89473  1.0000
  S   S95       1.0  0.52126  0.11494  0.83118  1.0000
  S   S96       1.0  0.54287  0.03705  0.00399  1.0000
  S   S97       1.0  0.56969  0.05206  0.90072  1.0000
  H   H369      1.0  0.60665  0.11336  0.92150  1.0000
  C   C228      1.0  0.62778  0.12232  0.93499  1.0000
  H   H370      1.0  0.57000  0.96828  0.97824  1.0000
  H   H371      1.0  0.59167  0.90772  0.72979  1.0000
  S   S98       1.0  0.56029  0.02871  0.66375  1.0000
  H   H372      1.0  0.42848  0.08019  0.74897  1.0000
  H   H373      1.0  0.50588  0.06498  0.68076  1.0000
  H   H374      1.0  0.44482  0.05772  0.67447  1.0000
  H   H375      1.0  0.51607  0.97045  0.74210  1.0000
  S   S99       1.0  0.47750  0.99929  0.65320  1.0000
  C   C229      1.0  0.43788  0.09445  0.85939  1.0000
  H   H376      1.0  0.62318  0.77907  0.95331  1.0000
  Fe  Fe51      1.0  0.48230  0.95715  0.60637  1.0000
  Fe  Fe52      1.0  0.64032  0.84290  0.88351  1.0000
  H   H377      1.0  0.45556  0.15801  0.92732  1.0000
  C   C230      1.0  0.57514  0.94942  0.95402  1.0000
  H   H378      1.0  0.46407  0.14632  0.82421  1.0000
  H   H379      1.0  0.59737  0.94962  0.73875  1.0000
  H   H380      1.0  0.43426  0.07700  0.88722  1.0000
  C   C231      1.0  0.60493  0.90319  0.93202  1.0000
  C   C232      1.0  0.59959  0.80596  0.05719  1.0000
  C   C233      1.0  0.63553  0.98800  0.88876  1.0000
  H   H381      1.0  0.59582  0.74405  0.03567  1.0000
  C   C234      1.0  0.53241  0.09218  0.78360  1.0000
  C   C235      1.0  0.51273  0.08792  0.74640  1.0000
  C   C236      1.0  0.52117  0.06839  0.70933  1.0000
  C   C237      1.0  0.54952  0.05370  0.70914  1.0000
  C   C238      1.0  0.56936  0.05847  0.74593  1.0000
  C   C239      1.0  0.56072  0.07750  0.78327  1.0000
  H   H382      1.0  0.49082  0.09929  0.74653  1.0000
  S   S100      1.0  0.63450  0.87668  0.94292  1.0000
  H   H383      1.0  0.59139  0.04738  0.74560  1.0000
  H   H384      1.0  0.57626  0.08143  0.81136  1.0000
  C   C240      1.0  0.55801  0.94607  0.91392  1.0000
  H   H385      1.0  0.53896  0.96238  0.79161  1.0000
  H   H386      1.0  0.55339  0.81586  0.99977  1.0000
  H   H387      1.0  0.55043  0.77499  0.60037  1.0000
  H   H388      1.0  0.59323  0.88179  0.86703  1.0000
  S   S101      1.0  0.47122  0.90787  0.63014  1.0000
  H   H389      1.0  0.61094  0.92942  0.99512  1.0000
  H   H390      1.0  0.46063  0.08996  0.84455  1.0000
  H   H391      1.0  0.63350  0.96236  0.89757  1.0000
  C   C241      1.0  0.59824  0.92753  0.96350  1.0000
  H   H392      1.0  0.58305  0.92542  0.78430  1.0000
  H   H393      1.0  0.55366  0.98584  0.74561  1.0000
  C   C242      1.0  0.56427  0.92129  0.88316  1.0000
  H   H394      1.0  0.50787  0.91215  0.72985  1.0000
  H   H395      1.0  0.56538  0.96042  0.67074  1.0000
  H   H396      1.0  0.63665  0.81287  0.98544  1.0000
  H   H397      1.0  0.52774  0.94459  0.66788  1.0000
  H   H398      1.0  0.55951  0.91840  0.66256  1.0000
  H   H399      1.0  0.53984  0.88600  0.72580  1.0000
  N   N25       1.0  0.55098  0.93562  0.73094  1.0000
  C   C243      1.0  0.53141  0.90832  0.74218  1.0000
  C   C244      1.0  0.55094  0.93996  0.68080  1.0000
  C   C245      1.0  0.58214  0.92935  0.74671  1.0000
  C   C246      1.0  0.53941  0.96477  0.75362  1.0000
  H   H400      1.0  0.53057  0.90431  0.77972  1.0000
  S   S102      1.0  0.62038  0.08040  0.00517  1.0000
  H   H401      1.0  0.55004  0.13559  0.08350  1.0000
  C   C247      1.0  0.41440  0.08312  0.71898  1.0000
  H   H402      1.0  0.60112  0.18412  0.06707  1.0000
  H   H403      1.0  0.42109  0.08912  0.83198  1.0000
  H   H404      1.0  0.64536  0.98932  0.85382  1.0000
  H   H405      1.0  0.63799  0.97925  0.98062  1.0000
  H   H406      1.0  0.65263  0.70765  0.77238  1.0000
  C   C248      1.0  0.65275  0.69227  0.01202  1.0000
  H   H407      1.0  0.61426  0.79077  0.07894  1.0000
  C   C249      1.0  0.40495  0.07299  0.63836  1.0000
  H   H408      1.0  0.65243  0.01814  0.99430  1.0000
  H   H409      1.0  0.51893  0.06276  0.08864  1.0000
  C   C250      1.0  0.88955  0.57066  0.53007  1.0000
  H   H410      1.0  0.82238  0.61777  0.40899  1.0000
  C   C251      1.0  0.77567  0.47455  0.55671  1.0000
  Fe  Fe53      1.0  0.71365  0.54176  0.21937  1.0000
  Fe  Fe54      1.0  0.69056  0.25945  0.33679  1.0000
  C   C252      1.0  0.70744  0.21815  0.09665  1.0000
  S   S103      1.0  0.73770  0.27347  0.35669  1.0000
  H   H411      1.0  0.70241  0.32838  0.44800  1.0000
  H   H412      1.0  0.81465  0.63864  0.35685  1.0000
  S   S104      1.0  0.72228  0.43266  0.28975  1.0000
  H   H413      1.0  0.78775  0.60784  0.11974  1.0000
  S   S105      1.0  0.67295  0.27438  0.26828  1.0000
  H   H414      1.0  0.68930  0.36817  0.50831  1.0000
  S   S106      1.0  0.75170  0.28917  0.57090  1.0000
  C   C253      1.0  0.69419  0.38702  0.48284  1.0000
  C   C254      1.0  0.70723  0.22048  0.19250  1.0000
  C   C255      1.0  0.68859  0.35643  0.18393  1.0000
  C   C256      1.0  0.74567  0.36875  0.47585  1.0000
  H   H415      1.0  0.77767  0.61513  0.29958  1.0000
  H   H416      1.0  0.65476  0.57124  0.10135  1.0000
  H   H417      1.0  0.80880  0.53632  0.51542  1.0000
  H   H418      1.0  0.72437  0.34001  0.39949  1.0000
  H   H419      1.0  0.74137  0.35013  0.50196  1.0000
  Fe  Fe55      1.0  0.71578  0.47113  0.23790  1.0000
  H   H420      1.0  0.73744  0.36571  0.23779  1.0000
  S   S107      1.0  0.66176  0.60763  0.44047  1.0000
  C   C257      1.0  0.74281  0.27410  0.41638  1.0000
  C   C258      1.0  0.71955  0.26471  0.44561  1.0000
  C   C259      1.0  0.72261  0.26878  0.49318  1.0000
  C   C260      1.0  0.74922  0.28152  0.51172  1.0000
  C   C261      1.0  0.77303  0.28944  0.48261  1.0000
  C   C262      1.0  0.76971  0.28605  0.43500  1.0000
  H   H421      1.0  0.69905  0.25460  0.43165  1.0000
  H   H422      1.0  0.70427  0.26219  0.51555  1.0000
  H   H423      1.0  0.79392  0.29849  0.49662  1.0000
  H   H424      1.0  0.78792  0.29294  0.41256  1.0000
  C   C263      1.0  0.69104  0.40717  0.29130  1.0000
  H   H425      1.0  0.76801  0.61631  0.42522  1.0000
  C   C264      1.0  0.67013  0.35570  0.31033  1.0000
  Fe  Fe56      1.0  0.74106  0.49674  0.14992  1.0000
  H   H426      1.0  0.72814  0.41220  0.57311  1.0000
  C   C265      1.0  0.69442  0.37695  0.31011  1.0000
  C   C266      1.0  0.72423  0.40295  0.41820  1.0000
  H   H427      1.0  0.67275  0.39274  0.46473  1.0000
  H   H428      1.0  0.88138  0.20770  0.15732  1.0000
  S   S108      1.0  0.77793  0.49518  0.09789  1.0000
  N   N26       1.0  0.71786  0.37681  0.45034  1.0000
  C   C267      1.0  0.66315  0.41622  0.27284  1.0000
  H   H429      1.0  0.68609  0.35351  0.40538  1.0000
  S   S109      1.0  0.70827  0.45751  0.16426  1.0000
  H   H430      1.0  0.74000  0.30085  0.15069  1.0000
  H   H431      1.0  0.77655  0.49729  0.54009  1.0000
  C   C268      1.0  0.70723  0.34849  0.42462  1.0000
  H   H432      1.0  0.67582  0.35769  0.15110  1.0000
  H   H433      1.0  0.75511  0.38989  0.49407  1.0000
  H   H434      1.0  0.74206  0.39619  0.39314  1.0000
  H   H435      1.0  0.70742  0.22111  0.22954  1.0000
  H   H436      1.0  0.73200  0.42480  0.43672  1.0000
  H   H437      1.0  0.80005  0.19310  0.13119  1.0000
  H   H438      1.0  0.71608  0.36963  0.32354  1.0000
  H   H439      1.0  0.75939  0.63612  0.37251  1.0000
  C   C269      1.0  0.68198  0.20889  0.16885  1.0000
  H   H440      1.0  0.75157  0.24090  0.18686  1.0000
  C   C270      1.0  0.73218  0.23084  0.12046  1.0000
  S   S110      1.0  0.75192  0.50718  0.22358  1.0000
  Fe  Fe57      1.0  0.72015  0.52531  0.52950  1.0000
  S   S111      1.0  0.82274  0.34534  0.55296  1.0000
  H   H441      1.0  0.70108  0.40879  0.50207  1.0000
  C   C271      1.0  0.73232  0.23144  0.16834  1.0000
  H   H442      1.0  0.68601  0.55343  0.39257  1.0000
  Fe  Fe58      1.0  0.86315  0.31533  0.56922  1.0000
  H   H443      1.0  0.70378  0.40958  0.39817  1.0000
  H   H444      1.0  0.76348  0.35938  0.45253  1.0000
  H   H445      1.0  0.77236  0.54912  0.38187  1.0000
  H   H446      1.0  0.76232  0.57656  0.31016  1.0000
  Fe  Fe59      1.0  0.67381  0.49647  0.16603  1.0000
  H   H447      1.0  0.86794  0.24523  0.13624  1.0000
  H   H448      1.0  0.70690  0.54742  0.31435  1.0000
  C   C272      1.0  0.71723  0.31135  0.15628  1.0000
  C   C273      1.0  0.83597  0.57862  0.51589  1.0000
  C   C274      1.0  0.76365  0.61243  0.38800  1.0000
  C   C275      1.0  0.86522  0.59094  0.52033  1.0000
  C   C276      1.0  0.73505  0.34171  0.22161  1.0000
  C   C277      1.0  0.85559  0.52559  0.52897  1.0000
  C   C278      1.0  0.81693  0.61453  0.37190  1.0000
  H   H449      1.0  0.86901  0.61623  0.51675  1.0000
  H   H450      1.0  0.67318  0.33234  0.32455  1.0000
  H   H451      1.0  0.82107  0.47754  0.58294  1.0000
  S   S112      1.0  0.67828  0.50691  0.24110  1.0000
  H   H452      1.0  0.87212  0.41094  0.50934  1.0000
  H   H453      1.0  0.81510  0.22927  0.15430  1.0000
  C   C279      1.0  0.79302  0.56398  0.38611  1.0000
  S   S113      1.0  0.67877  0.55383  0.54577  1.0000
  Fe  Fe60      1.0  0.75996  0.58333  0.51883  1.0000
  H   H454      1.0  0.74241  0.59861  0.38491  1.0000
  S   S114      1.0  0.75016  0.55205  0.57868  1.0000
  H   H455      1.0  0.83665  0.60262  0.35562  1.0000
  H   H456      1.0  0.80162  0.58050  0.29754  1.0000
  H   H457      1.0  0.66046  0.43944  0.25782  1.0000
  C   C280      1.0  0.73629  0.36465  0.14614  1.0000
  S   S115      1.0  0.80570  0.60430  0.50442  1.0000
  S   S116      1.0  0.71716  0.47198  0.52816  1.0000
  N   N27       1.0  0.78902  0.59571  0.36551  1.0000
  Fe  Fe61      1.0  0.69437  0.58498  0.48890  1.0000
  C   C281      1.0  0.88472  0.53794  0.53452  1.0000
  H   H458      1.0  0.73856  0.38908  0.16098  1.0000
  S   S117      1.0  0.73333  0.55397  0.46833  1.0000
  C   C282      1.0  0.69935  0.59645  0.29652  1.0000
  C   C283      1.0  0.67554  0.60317  0.38481  1.0000
  C   C284      1.0  0.78248  0.59187  0.31605  1.0000
  C   C285      1.0  0.74934  0.45637  0.55433  1.0000
  C   C286      1.0  0.68657  0.57366  0.36994  1.0000
  S   S118      1.0  0.67301  0.20947  0.33066  1.0000
  H   H459      1.0  0.68894  0.64625  0.28884  1.0000
  H   H460      1.0  0.81208  0.55078  0.37009  1.0000
  H   H461      1.0  0.66285  0.19820  0.10241  1.0000
  C   C287      1.0  0.68827  0.62593  0.31137  1.0000
  H   H462      1.0  0.85207  0.50022  0.53084  1.0000
  H   H463      1.0  0.79788  0.56587  0.42348  1.0000
  C   C288      1.0  0.69814  0.57020  0.32557  1.0000
  S   S119      1.0  0.72209  0.61712  0.53376  1.0000
  C   C289      1.0  0.83120  0.54592  0.52001  1.0000
  S   S120      1.0  0.71555  0.59266  0.24224  1.0000
  H   H464      1.0  0.72258  0.32638  0.24610  1.0000
  H   H465      1.0  0.66724  0.65202  0.36663  1.0000
  H   H466      1.0  0.75810  0.33154  0.21782  1.0000
  H   H467      1.0  0.70445  0.29476  0.17854  1.0000
  C   C290      1.0  0.67597  0.62918  0.35533  1.0000
  S   S121      1.0  0.70585  0.53451  0.14456  1.0000
  N   N28       1.0  0.71928  0.34352  0.17698  1.0000
  H   H468      1.0  0.68938  0.38093  0.19872  1.0000
  C   C291      1.0  0.68229  0.20709  0.12091  1.0000
  H   H469      1.0  0.67527  0.34145  0.20781  1.0000
  C   C292      1.0  0.74860  0.42620  0.57415  1.0000
  H   H470      1.0  0.65972  0.64479  0.53738  1.0000
  C   C293      1.0  0.80093  0.46320  0.58024  1.0000
  H   H471      1.0  0.78030  0.66654  0.11708  1.0000
  H   H472      1.0  0.71308  0.64881  0.12074  1.0000
  C   C294      1.0  0.73069  0.62994  0.12266  1.0000
  H   H473      1.0  0.71902  0.60653  0.12363  1.0000
  H   H474      1.0  0.74250  0.63289  0.15618  1.0000
  H   H475      1.0  0.89666  0.37964  0.48880  1.0000
  H   H476      1.0  0.72488  0.36687  0.11227  1.0000
  C   C295      1.0  0.82121  0.20450  0.14404  1.0000
  H   H477      1.0  0.88907  0.44692  0.57124  1.0000
  H   H478      1.0  0.70568  0.31169  0.12236  1.0000
  H   H479      1.0  0.75948  0.35544  0.13974  1.0000
  C   C296      1.0  0.89032  0.39412  0.51945  1.0000
  H   H480      1.0  0.89078  0.22022  0.10045  1.0000
  C   C297      1.0  0.87246  0.22000  0.12654  1.0000
  N   N29       1.0  0.84496  0.20424  0.10857  1.0000
  H   H481      1.0  0.82849  0.19169  0.17534  1.0000
  H   H482      1.0  0.88056  0.37742  0.54467  1.0000
  Fe  Fe62      1.0  0.70987  0.58327  0.58922  1.0000
  S   S122      1.0  0.76258  0.24753  0.09123  1.0000
  Fe  Fe63      1.0  0.79777  0.21014  0.93963  1.0000
  S   S123      1.0  0.77078  0.31741  0.88579  1.0000
  C   C298      1.0  0.74129  0.25904  0.69012  1.0000
  H   H483      1.0  0.72896  0.20688  0.73978  1.0000
  H   H484      1.0  0.70494  0.54063  0.99068  1.0000
  S   S124      1.0  0.66538  0.67995  0.06586  1.0000
  H   H485      1.0  0.89780  0.41367  0.60683  1.0000
  N   N30       1.0  0.77995  0.50485  0.70542  1.0000
  Fe  Fe64      1.0  0.76463  0.27196  0.92401  1.0000
  H   H486      1.0  0.72652  0.67522  0.73419  1.0000
  S   S125      1.0  0.79898  0.25732  0.97564  1.0000
  H   H487      1.0  0.79059  0.60613  0.05831  1.0000
  Fe  Fe65      1.0  0.84411  0.30381  0.66683  1.0000
  H   H488      1.0  0.78275  0.21932  0.72622  1.0000
  S   S126      1.0  0.86130  0.28062  0.73080  1.0000
  C   C299      1.0  0.89446  0.25056  0.98336  1.0000
  H   H489      1.0  0.89963  0.19020  0.80633  1.0000
  C   C300      1.0  0.72692  0.23019  0.75793  1.0000
  C   C301      1.0  0.76709  0.53678  0.71385  1.0000
  C   C302      1.0  0.77936  0.24249  0.74422  1.0000
  H   H490      1.0  0.67006  0.58641  0.97828  1.0000
  C   C303      1.0  0.80779  0.50790  0.67805  1.0000
  C   C304      1.0  0.78928  0.53294  0.02433  1.0000
  N   N31       1.0  0.74801  0.25401  0.73920  1.0000
  S   S127      1.0  0.80159  0.33249  0.66012  1.0000
  H   H491      1.0  0.78550  0.23919  0.78090  1.0000
  H   H492      1.0  0.71004  0.65906  0.83363  1.0000
  H   H493      1.0  0.67052  0.66810  0.82943  1.0000
  H   H494      1.0  0.72124  0.29391  0.76163  1.0000
  C   C305      1.0  0.74457  0.28437  0.76462  1.0000
  H   H495      1.0  0.89803  0.33562  0.72344  1.0000
  C   C306      1.0  0.80064  0.31111  0.84774  1.0000
  C   C307      1.0  0.80490  0.33158  0.81084  1.0000
  C   C308      1.0  0.82523  0.32331  0.77601  1.0000
  C   C309      1.0  0.84105  0.29456  0.77810  1.0000
  C   C310      1.0  0.83851  0.27537  0.81664  1.0000
  C   C311      1.0  0.81836  0.28371  0.85147  1.0000
  H   H496      1.0  0.79155  0.35304  0.80823  1.0000
  H   H497      1.0  0.82814  0.33887  0.74718  1.0000
  H   H498      1.0  0.85074  0.25318  0.81855  1.0000
  H   H499      1.0  0.68289  0.56969  0.05782  1.0000
  H   H500      1.0  0.72000  0.50603  0.05531  1.0000
  H   H501      1.0  0.68894  0.64660  0.78392  1.0000
  S   S128      1.0  0.76127  0.19005  0.98395  1.0000
  H   H502      1.0  0.86208  0.62081  0.66736  1.0000
  H   H503      1.0  0.81591  0.26832  0.88051  1.0000
  H   H504      1.0  0.74939  0.28139  0.80184  1.0000
  H   H505      1.0  0.79579  0.25964  0.72959  1.0000
  H   H506      1.0  0.74387  0.23670  0.66970  1.0000
  S   S129      1.0  0.72497  0.25839  0.96708  1.0000
  Fe  Fe66      1.0  0.83074  0.36681  0.62229  1.0000
  H   H507      1.0  0.89518  0.27626  0.98613  1.0000
  H   H508      1.0  0.85679  0.25010  0.93656  1.0000
  H   H509      1.0  0.81842  0.48426  0.67161  1.0000
  H   H510      1.0  0.77358  0.39113  0.61200  1.0000
  C   C312      1.0  0.69186  0.66619  0.80943  1.0000
  H   H511      1.0  0.76668  0.48708  0.77121  1.0000
  H   H512      1.0  0.76663  0.46062  0.67367  1.0000
  H   H513      1.0  0.72384  0.60480  0.03749  1.0000
  H   H514      1.0  0.71785  0.26779  0.68480  1.0000
  N   N32       1.0  0.75195  0.63173  0.08379  1.0000
  S   S130      1.0  0.87337  0.34053  0.63500  1.0000
  C   C313      1.0  0.87257  0.23577  0.95567  1.0000
  Fe  Fe67      1.0  0.75980  0.23900  0.01536  1.0000
  Fe  Fe68      1.0  0.72938  0.21073  0.93205  1.0000
  H   H515      1.0  0.70735  0.21756  0.05958  1.0000
  H   H516      1.0  0.82481  0.52315  0.69580  1.0000
  S   S131      1.0  0.76614  0.22601  0.88467  1.0000
  H   H517      1.0  0.80305  0.51880  0.64412  1.0000
  C   C314      1.0  0.80021  0.43318  0.60010  1.0000
  C   C315      1.0  0.76734  0.51678  0.04941  1.0000
  C   C316      1.0  0.75777  0.48503  0.68015  1.0000
  C   C317      1.0  0.87089  0.20255  0.95334  1.0000
  H   H518      1.0  0.81287  0.53072  0.03354  1.0000
  H   H519      1.0  0.80380  0.50417  0.76972  1.0000
  H   H520      1.0  0.70304  0.23814  0.75481  1.0000
  H   H521      1.0  0.79707  0.46560  0.74444  1.0000
  C   C318      1.0  0.73690  0.51940  0.03704  1.0000
  H   H522      1.0  0.78324  0.55241  0.73283  1.0000
  C   C319      1.0  0.78720  0.48976  0.74965  1.0000
  H   H523      1.0  0.74596  0.53561  0.73431  1.0000
  H   H524      1.0  0.76142  0.54886  0.68118  1.0000
  H   H525      1.0  0.89317  0.64174  0.72979  1.0000
  C   C320      1.0  0.72838  0.53886  0.00047  1.0000
  Fe  Fe69      1.0  0.80807  0.67608  0.91482  1.0000
  S   S132      1.0  0.77458  0.65337  0.86732  1.0000
  Fe  Fe70      1.0  0.84744  0.61753  0.91827  1.0000
  S   S133      1.0  0.81738  0.58907  0.87157  1.0000
  H   H526      1.0  0.75087  0.68283  0.08179  1.0000
  Fe  Fe71      1.0  0.81533  0.63396  0.83102  1.0000
  S   S134      1.0  0.82161  0.63258  0.75486  1.0000
  Fe  Fe72      1.0  0.77974  0.61083  0.91230  1.0000
  S   S135      1.0  0.73901  0.58359  0.93523  1.0000
  S   S136      1.0  0.84844  0.66097  0.87440  1.0000
  S   S137      1.0  0.81011  0.63521  0.96323  1.0000
  C   C321      1.0  0.66262  0.58292  0.06966  1.0000
  C   C322      1.0  0.88014  0.62751  0.64273  1.0000
  H   H527      1.0  0.75207  0.49545  0.64627  1.0000
  H   H528      1.0  0.75442  0.62017  0.62334  1.0000
  S   S138      1.0  0.83157  0.41953  0.63027  1.0000
  C   C323      1.0  0.75021  0.55615  0.97678  1.0000
  H   H529      1.0  0.81353  0.21010  0.05309  1.0000
  S   S139      1.0  0.89147  0.59940  0.94493  1.0000
  C   C324      1.0  0.78693  0.62405  0.72882  1.0000
  C   C325      1.0  0.78408  0.62585  0.68125  1.0000
  H   H530      1.0  0.85137  0.22201  0.04078  1.0000
  C   C326      1.0  0.73445  0.60798  0.73420  1.0000
  C   C327      1.0  0.76217  0.61490  0.75529  1.0000
  C   C328      1.0  0.73160  0.60994  0.68663  1.0000
  C   C329      1.0  0.78071  0.55282  0.98826  1.0000
  H   H531      1.0  0.71556  0.60009  0.75454  1.0000
  H   H532      1.0  0.76455  0.61223  0.79184  1.0000
  H   H533      1.0  0.76033  0.30283  0.75169  1.0000
  C   C330      1.0  0.83405  0.22150  0.06799  1.0000
  H   H534      1.0  0.79777  0.56562  0.96957  1.0000
  H   H535      1.0  0.88091  0.59997  0.84779  1.0000
  H   H536      1.0  0.89184  0.20851  0.86067  1.0000
  C   C331      1.0  0.75645  0.61872  0.66015  1.0000
  H   H537      1.0  0.73630  0.48266  0.69947  1.0000
  H   H538      1.0  0.89766  0.26940  0.60418  1.0000
  H   H539      1.0  0.71790  0.64715  0.03616  1.0000
  H   H540      1.0  0.73129  0.22591  0.79499  1.0000
  H   H541      1.0  0.80316  0.63283  0.66062  1.0000
  S   S140      1.0  0.69771  0.59927  0.65995  1.0000
  C   C332      1.0  0.73524  0.62825  0.04014  1.0000
  H   H542      1.0  0.89938  0.58510  0.70415  1.0000
  S   S141      1.0  0.83674  0.27602  0.60189  1.0000
  H   H543      1.0  0.75677  0.27692  0.67488  1.0000
  H   H544      1.0  0.75057  0.62995  0.01018  1.0000
  H   H545      1.0  0.82820  0.24663  0.07648  1.0000
  H   H546      1.0  0.65716  0.62382  0.00065  1.0000
  H   H547      1.0  0.78350  0.66517  0.05567  1.0000
  H   H548      1.0  0.87850  0.61093  0.61288  1.0000
  H   H549      1.0  0.66949  0.60761  0.07917  1.0000
  C   C333      1.0  0.76739  0.66292  0.08470  1.0000
  H   H550      1.0  0.87480  0.65184  0.63035  1.0000
  H   H551      1.0  0.67162  0.68565  0.72782  1.0000
  C   C334      1.0  0.77424  0.41438  0.59646  1.0000
  H   H552      1.0  0.74680  0.68702  0.78499  1.0000
  Fe  Fe73      1.0  0.79706  0.30821  0.59165  1.0000
  C   C335      1.0  0.77444  0.60588  0.08746  1.0000
  H   H553      1.0  0.76342  0.58204  0.08722  1.0000
  C   C336      1.0  0.85204  0.17105  0.09530  1.0000
  H   H554      1.0  0.86023  0.15714  0.12510  1.0000
  S   S142      1.0  0.80036  0.72503  0.94269  1.0000
  H   H555      1.0  0.69405  0.71675  0.99577  1.0000
  H   H556      1.0  0.67573  0.73531  0.92052  1.0000
  H   H557      1.0  0.83181  0.15870  0.08093  1.0000
  H   H558      1.0  0.67951  0.72724  0.73628  1.0000
  C   C337      1.0  0.68439  0.99055  0.92542  1.0000
  C   C338      1.0  0.66123  0.72083  0.94139  1.0000
  C   C339      1.0  0.66710  0.12211  0.99276  1.0000
  C   C340      1.0  0.75348  0.78572  0.83494  1.0000
  C   C341      1.0  0.75011  0.79281  0.88154  1.0000
  C   C342      1.0  0.76512  0.77456  0.91451  1.0000
  C   C343      1.0  0.78300  0.74872  0.90102  1.0000
  C   C344      1.0  0.78650  0.74163  0.85437  1.0000
  C   C345      1.0  0.77213  0.76046  0.82133  1.0000
  H   H559      1.0  0.76249  0.78018  0.95052  1.0000
  H   H560      1.0  0.80057  0.72189  0.84374  1.0000
  H   H561      1.0  0.77494  0.75504  0.78531  1.0000
  S   S143      1.0  0.67137  0.80098  0.88876  1.0000
  H   H562      1.0  0.89115  0.15845  0.97438  1.0000
  Fe  Fe74      1.0  0.68504  0.81402  0.81756  1.0000
  H   H563      1.0  0.68280  0.96511  0.93568  1.0000
  C   C346      1.0  0.68243  0.14624  0.96935  1.0000
  H   H564      1.0  0.67648  0.11275  0.02412  1.0000
  C   C347      1.0  0.70180  0.72197  0.82186  1.0000
  S   S144      1.0  0.73268  0.80666  0.79371  1.0000
  H   H565      1.0  0.73627  0.81271  0.89219  1.0000
  H   H566      1.0  0.70692  0.74523  0.80593  1.0000
  C   C348      1.0  0.67163  0.71031  0.98407  1.0000
  H   H567      1.0  0.67128  0.05290  0.93398  1.0000
  H   H568      1.0  0.72012  0.71689  0.84698  1.0000
  H   H569      1.0  0.69612  0.99123  0.89178  1.0000
  C   C349      1.0  0.72790  0.69364  0.76174  1.0000
  S   S145      1.0  0.65697  0.85855  0.81473  1.0000
  C   C350      1.0  0.67462  0.70460  0.75436  1.0000
  H   H570      1.0  0.70346  0.15545  0.98275  1.0000
  H   H571      1.0  0.86987  0.17014  0.06852  1.0000
  H   H572      1.0  0.73422  0.71653  0.74540  1.0000
  H   H573      1.0  0.68044  0.72499  0.84119  1.0000
  S   S146      1.0  0.84091  0.18384  0.92481  1.0000
  C   C351      1.0  0.67061  0.15811  0.92841  1.0000
  H   H574      1.0  0.69901  0.00300  0.95101  1.0000
  C   C352      1.0  0.89235  0.18416  0.97624  1.0000
  H   H575      1.0  0.89084  0.70038  0.93343  1.0000
  H   H576      1.0  0.66818  0.04116  0.87473  1.0000
  N   N33       1.0  0.69908  0.69656  0.78683  1.0000
  C   C353      1.0  0.65739  0.03904  0.90892  1.0000
  S   S147      1.0  0.68948  0.18769  0.89757  1.0000
  N   N34       1.0  0.65421  0.00544  0.92277  1.0000
  H   H577      1.0  0.00687  0.28893  0.58576  1.0000
  Fe  Fe75      1.0  0.08260  0.39593  0.25174  1.0000
  S   S148      1.0  0.06252  0.34860  0.26905  1.0000
  S   S149      1.0  0.06369  0.42397  0.19332  1.0000
  Fe  Fe76      1.0  0.12732  0.39453  0.32973  1.0000
  S   S150      1.0  0.11222  0.34639  0.35177  1.0000
  Fe  Fe77      1.0  0.11077  0.33395  0.27781  1.0000
  C   C354      1.0  0.14329  0.47008  0.27106  1.0000
  Fe  Fe78      1.0  0.06578  0.36572  0.34180  1.0000
  S   S151      1.0  0.03300  0.35705  0.39859  1.0000
  S   S152      1.0  0.13104  0.38027  0.25560  1.0000
  S   S153      1.0  0.08087  0.41475  0.32392  1.0000
  H   H578      1.0  0.10142  0.52917  0.15352  1.0000
  H   H579      1.0  0.10552  0.23886  0.36209  1.0000
  H   H580      1.0  0.91197  0.58039  0.53429  1.0000
  S   S154      1.0  0.12401  0.28481  0.25589  1.0000
  C   C355      1.0  0.12464  0.30801  0.16891  1.0000
  H   H581      1.0  0.96024  0.39943  0.56718  1.0000
  C   C356      1.0  0.12161  0.23135  0.45112  1.0000
  H   H582      1.0  0.13608  0.32861  0.18310  1.0000
  C   C357      1.0  0.13664  0.49398  0.15101  1.0000
  H   H583      1.0  0.13188  0.45168  0.50372  1.0000
  C   C358      1.0  0.11706  0.28252  0.19710  1.0000
  S   S155      1.0  0.14495  0.65942  0.20288  1.0000
  C   C359      1.0  0.93150  0.29244  0.56362  1.0000
  H   H584      1.0  0.13976  0.55008  0.28697  1.0000
  H   H585      1.0  0.05124  0.64713  0.49882  1.0000
  S   S156      1.0  0.00002  0.50555  0.52073  1.0000
  C   C360      1.0  0.04256  0.33589  0.48596  1.0000
  C   C361      1.0  0.05392  0.35329  0.44925  1.0000
  C   C362      1.0  0.08314  0.36573  0.45170  1.0000
  C   C363      1.0  0.10160  0.35946  0.48951  1.0000
  H   H586      1.0  0.00879  0.30221  0.15215  1.0000
  H   H587      1.0  0.02004  0.32595  0.48406  1.0000
  H   H588      1.0  0.09157  0.38030  0.42440  1.0000
  H   H589      1.0  0.12448  0.36844  0.49066  1.0000
  H   H590      1.0  0.14520  0.24489  0.36986  1.0000
  C   C364      1.0  0.14320  0.46144  0.15334  1.0000
  N   N35       1.0  0.02705  0.34474  0.12246  1.0000
  C   C365      1.0  0.09111  0.45026  0.17287  1.0000
  C   C366      1.0  0.08413  0.48249  0.16779  1.0000
  C   C367      1.0  0.10692  0.50435  0.15705  1.0000
  H   H591      1.0  0.06131  0.49074  0.17357  1.0000
  N   N36       1.0  0.91665  0.41105  0.53906  1.0000
  S   S157      1.0  0.90517  0.31087  0.52748  1.0000
  Fe  Fe79      1.0  0.95970  0.53546  0.53757  1.0000
  N   N37       1.0  0.08552  0.46128  0.48640  1.0000
  H   H592      1.0  0.07289  0.46958  0.41617  1.0000
  H   H593      1.0  0.12305  0.32676  0.10046  1.0000
  C   C368      1.0  0.06083  0.33022  0.52439  1.0000
  C   C369      1.0  0.96247  0.29754  0.55811  1.0000
  H   H594      1.0  0.93677  0.41985  0.47342  1.0000
  C   C370      1.0  0.08703  0.27397  0.43327  1.0000
  H   H595      1.0  0.94739  0.37308  0.52217  1.0000
  C   C371      1.0  0.09427  0.25538  0.13226  1.0000
  H   H596      1.0  0.12593  0.41465  0.16769  1.0000
  H   H597      1.0  0.97056  0.31140  0.52964  1.0000
  H   H598      1.0  0.13720  0.29013  0.48030  1.0000
  H   H599      1.0  0.12128  0.27788  0.35659  1.0000
  H   H600      1.0  0.08170  0.23564  0.11863  1.0000
  C   C372      1.0  0.09040  0.34194  0.52603  1.0000
  H   H601      1.0  0.08344  0.29666  0.41463  1.0000
  N   N38       1.0  0.04564  0.66248  0.42922  1.0000
  S   S158      1.0  0.11378  0.33477  0.57315  1.0000
  H   H602      1.0  0.12560  0.46228  0.44492  1.0000
  H   H603      1.0  0.04150  0.29608  0.11756  1.0000
  C   C373      1.0  0.12054  0.43963  0.16477  1.0000
  H   H604      1.0  0.05243  0.31568  0.55179  1.0000
  C   C374      1.0  0.07385  0.44376  0.52634  1.0000
  H   H605      1.0  0.04548  0.31354  0.17354  1.0000
  H   H606      1.0  0.06249  0.43112  0.43741  1.0000
  C   C375      1.0  0.06485  0.45672  0.44697  1.0000
  C   C376      1.0  0.14010  0.28499  0.44306  1.0000
  C   C377      1.0  0.10255  0.25584  0.17857  1.0000
  N   N39       1.0  0.11783  0.26147  0.42598  1.0000
  H   H607      1.0  0.02299  0.36764  0.18825  1.0000
  C   C378      1.0  0.01802  0.66349  0.58439  1.0000
  C   C379      1.0  0.06484  0.65164  0.46754  1.0000
  Fe  Fe80      1.0  0.13863  0.61495  0.24370  1.0000
  C   C380      1.0  0.05864  0.55574  0.33061  1.0000
  H   H608      1.0  0.09646  0.23619  0.20035  1.0000
  H   H609      1.0  0.11529  0.42375  0.46443  1.0000
  C   C381      1.0  0.10134  0.28097  0.10408  1.0000
  H   H610      1.0  0.04181  0.46587  0.45463  1.0000
  H   H611      1.0  0.08148  0.57940  0.27555  1.0000
  H   H612      1.0  0.00844  0.63245  0.44806  1.0000
  H   H613      1.0  0.07705  0.56302  0.44330  1.0000
  Fe  Fe81      1.0  0.01122  0.54342  0.47024  1.0000
  C   C382      1.0  0.11733  0.30694  0.12218  1.0000
  H   H614      1.0  0.08897  0.44651  0.55668  1.0000
  H   H615      1.0  0.03394  0.61496  0.40745  1.0000
  H   H616      1.0  0.98770  0.35608  0.16247  1.0000
  H   H617      1.0  0.11811  0.23491  0.48856  1.0000
  C   C383      1.0  0.01063  0.36546  0.15510  1.0000
  H   H618      1.0  0.07674  0.62912  0.45875  1.0000
  C   C384      1.0  0.03086  0.31278  0.14243  1.0000
  H   H619      1.0  0.07123  0.35986  0.14454  1.0000
  H   H620      1.0  0.14801  0.44898  0.29250  1.0000
  H   H621      1.0  0.09644  0.50946  0.46872  1.0000
  H   H622      1.0  0.08270  0.27888  0.47019  1.0000
  H   H623      1.0  0.12085  0.46638  0.25467  1.0000
  S   S159      1.0  0.02784  0.52830  0.40079  1.0000
  C   C385      1.0  0.92910  0.43295  0.50459  1.0000
  H   H624      1.0  0.13611  0.19448  0.10686  1.0000
  H   H625      1.0  0.06950  0.25693  0.42098  1.0000
  C   C386      1.0  0.08760  0.49552  0.49795  1.0000
  C   C387      1.0  0.11587  0.44928  0.47442  1.0000
  C   C388      1.0  0.90709  0.42945  0.57991  1.0000
  C   C389      1.0  0.02302  0.63768  0.41804  1.0000
  S   S160      1.0  0.91472  0.51216  0.54733  1.0000
  S   S161      1.0  0.03834  0.57296  0.51929  1.0000
  C   C390      1.0  0.93995  0.38761  0.55223  1.0000
  H   H626      1.0  0.05503  0.38352  0.10021  1.0000
  C   C391      1.0  0.12266  0.25552  0.37654  1.0000
  Fe  Fe82      1.0  0.99457  0.59652  0.53671  1.0000
  C   C392      1.0  0.06461  0.66848  0.38863  1.0000
  H   H627      1.0  0.04238  0.54417  0.30822  1.0000
  C   C393      1.0  0.13845  0.52708  0.26794  1.0000
  H   H628      1.0  0.07173  0.41783  0.51882  1.0000
  H   H629      1.0  0.08226  0.66967  0.47689  1.0000
  H   H630      1.0  0.06515  0.50548  0.50685  1.0000
  H   H631      1.0  0.10527  0.21298  0.43898  1.0000
  H   H632      1.0  0.10258  0.49982  0.52812  1.0000
  C   C394      1.0  0.05674  0.55176  0.37808  1.0000
  H   H633      1.0  0.13798  0.30812  0.42515  1.0000
  C   C395      1.0  0.10034  0.58599  0.38821  1.0000
  H   H634      1.0  0.09729  0.49627  0.31794  1.0000
  H   H635      1.0  0.07670  0.64662  0.37735  1.0000
  Fe  Fe83      1.0  0.12214  0.63247  0.14591  1.0000
  H   H636      1.0  0.11664  0.59753  0.41054  1.0000
  H   H637      1.0  0.05119  0.45262  0.53676  1.0000
  C   C396      1.0  0.08088  0.57553  0.31204  1.0000
  C   C397      1.0  0.10162  0.59086  0.34088  1.0000
  S   S162      1.0  0.99212  0.64956  0.54323  1.0000
  H   H638      1.0  0.93115  0.37050  0.57786  1.0000
  S   S163      1.0  0.12861  0.61727  0.31938  1.0000
  S   S164      1.0  0.11134  0.59009  0.18921  1.0000
  S   S165      1.0  0.96840  0.57069  0.48199  1.0000
  Fe  Fe84      1.0  0.02429  0.53697  0.57086  1.0000
  C   C398      1.0  0.07787  0.56658  0.40681  1.0000
  H   H639      1.0  0.11583  0.52558  0.25133  1.0000
  H   H640      1.0  0.00798  0.64507  0.38947  1.0000
  H   H641      1.0  0.12345  0.47802  0.35678  1.0000
  C   C399      1.0  0.12014  0.49866  0.33372  1.0000
  H   H642      1.0  0.12009  0.52071  0.35510  1.0000
  H   H643      1.0  0.00812  0.39006  0.14172  1.0000
  H   H644      1.0  0.14467  0.22129  0.44617  1.0000
  H   H645      1.0  0.91196  0.45078  0.49375  1.0000
  H   H646      1.0  0.05089  0.67659  0.35896  1.0000
  C   C400      1.0  0.05699  0.35873  0.11304  1.0000
  H   H647      1.0  0.08210  0.68688  0.39585  1.0000
  S   S166      1.0  0.09099  0.65915  0.09911  1.0000
  H   H648      1.0  0.94869  0.44657  0.51853  1.0000
  N   N40       1.0  0.14390  0.49980  0.29839  1.0000
  H   H649      1.0  0.01525  0.68845  0.47295  1.0000
  C   C401      1.0  0.96524  0.68594  0.95349  1.0000
  S   S167      1.0  0.08766  0.28224  0.04771  1.0000
  C   C402      1.0  0.05821  0.21798  0.80754  1.0000
  S   S168      1.0  0.01674  0.25327  0.98131  1.0000
  S   S169      1.0  0.06638  0.19700  0.00056  1.0000
  C   C403      1.0  0.97248  0.26759  0.62740  1.0000
  H   H650      1.0  0.03408  0.57294  0.73581  1.0000
  Fe  Fe85      1.0  0.98686  0.22838  0.03107  1.0000
  C   C404      1.0  0.94750  0.59819  0.90588  1.0000
  C   C405      1.0  0.95859  0.20607  0.80341  1.0000
  C   C406      1.0  0.07895  0.23858  0.78725  1.0000
  S   S170      1.0  0.09708  0.35304  0.70107  1.0000
  C   C407      1.0  0.00802  0.45278  0.67734  1.0000
  S   S171      1.0  0.04214  0.31132  0.74674  1.0000
  C   C408      1.0  0.91662  0.59340  0.67929  1.0000
  H   H651      1.0  0.07018  0.23829  0.91919  1.0000
  C   C409      1.0  0.08443  0.66608  0.00647  1.0000
  Fe  Fe86      1.0  0.09139  0.30506  0.73254  1.0000
  S   S172      1.0  0.12056  0.28625  0.78847  1.0000
  C   C410      1.0  0.94171  0.26137  0.63162  1.0000
  S   S173      1.0  0.03645  0.33556  0.64060  1.0000
  N   N41       1.0  0.94410  0.33256  0.74547  1.0000
  H   H652      1.0  0.11465  0.60126  0.05815  1.0000
  C   C411      1.0  0.02909  0.43080  0.69378  1.0000
  Fe  Fe87      1.0  0.05361  0.24385  0.03211  1.0000
  H   H653      1.0  0.93909  0.59170  0.69639  1.0000
  N   N42       1.0  0.93908  0.20471  0.84437  1.0000
  C   C412      1.0  0.05940  0.68616  0.65013  1.0000
  C   C413      1.0  0.01771  0.47869  0.65124  1.0000
  C   C414      1.0  0.05976  0.43487  0.68451  1.0000
  Fe  Fe88      1.0  0.04676  0.35700  0.70900  1.0000
  H   H654      1.0  0.96484  0.65964  0.94844  1.0000
  C   C415      1.0  0.92469  0.60208  0.81668  1.0000
  H   H655      1.0  0.95910  0.36533  0.69404  1.0000
  C   C416      1.0  0.09673  0.25877  0.81453  1.0000
  C   C417      1.0  0.09385  0.25833  0.86216  1.0000
  C   C418      1.0  0.07282  0.23799  0.88244  1.0000
  H   H656      1.0  0.96530  0.37314  0.77743  1.0000
  H   H657      1.0  0.97943  0.32851  0.69558  1.0000
  H   H658      1.0  0.10699  0.27454  0.88326  1.0000
  H   H659      1.0  0.92619  0.44322  0.59507  1.0000
  C   C419      1.0  0.95666  0.33931  0.69971  1.0000
  H   H660      1.0  0.00629  0.36562  0.06326  1.0000
  H   H661      1.0  0.15246  0.66202  0.99867  1.0000
  C   C420      1.0  0.96366  0.34686  0.78124  1.0000
  S   S174      1.0  0.94168  0.25052  0.04369  1.0000
  H   H662      1.0  0.06942  0.34461  0.08678  1.0000
  H   H663      1.0  0.95662  0.22929  0.78572  1.0000
  H   H664      1.0  0.00143  0.49562  0.63839  1.0000
  S   S175      1.0  0.99704  0.25515  0.67077  1.0000
  C   C421      1.0  0.06952  0.46121  0.65965  1.0000
  H   H665      1.0  0.97192  0.22750  0.88810  1.0000
  H   H666      1.0  0.93252  0.29162  0.78534  1.0000
  H   H667      1.0  0.08466  0.52450  0.81003  1.0000
  H   H668      1.0  0.98427  0.44963  0.68449  1.0000
  H   H669      1.0  0.09336  0.46464  0.65341  1.0000
  H   H670      1.0  0.07612  0.41822  0.69768  1.0000
  Fe  Fe89      1.0  0.03547  0.28926  0.67766  1.0000
  S   S176      1.0  0.01730  0.39868  0.72679  1.0000
  H   H671      1.0  0.91570  0.60345  0.78241  1.0000
  H   H672      1.0  0.03864  0.53619  0.70504  1.0000
  H   H673      1.0  0.08505  0.52451  0.74835  1.0000
  C   C422      1.0  0.04851  0.48301  0.64290  1.0000
  S   S177      1.0  0.08432  0.27823  0.66679  1.0000
  H   H674      1.0  0.93351  0.24729  0.65981  1.0000
  Fe  Fe90      1.0  0.08614  0.32673  0.63591  1.0000
  H   H675      1.0  0.02164  0.61866  0.61920  1.0000
  C   C423      1.0  0.91351  0.34630  0.74924  1.0000
  H   H676      1.0  0.91657  0.57643  0.64971  1.0000
  C   C424      1.0  0.94794  0.23009  0.87718  1.0000
  H   H677      1.0  0.92823  0.28633  0.72471  1.0000
  H   H678      1.0  0.96533  0.28667  0.74934  1.0000
  H   H679      1.0  0.08098  0.23896  0.75040  1.0000
  C   C425      1.0  0.05494  0.21790  0.85509  1.0000
  H   H680      1.0  0.92980  0.66088  0.61914  1.0000
  H   H681      1.0  0.08129  0.56121  0.77974  1.0000
  C   C426      1.0  0.98297  0.28518  0.59017  1.0000
  H   H682      1.0  0.91373  0.37247  0.74387  1.0000
  H   H683      1.0  0.00321  0.54552  0.81968  1.0000
  H   H684      1.0  0.93362  0.62041  0.60016  1.0000
  H   H685      1.0  0.00401  0.54458  0.73476  1.0000
  Fe  Fe91      1.0  0.02658  0.20427  0.95490  1.0000
  S   S178      1.0  0.06123  0.51620  0.61315  1.0000
  H   H686      1.0  0.90376  0.23246  0.81337  1.0000
  C   C427      1.0  0.91529  0.23213  0.00750  1.0000
  C   C428      1.0  0.07455  0.53572  0.77917  1.0000
  H   H687      1.0  0.98719  0.33102  0.08480  1.0000
  N   N43       1.0  0.04135  0.53210  0.77839  1.0000
  S   S179      1.0  0.02793  0.19330  0.88004  1.0000
  H   H688      1.0  0.08160  0.67276  0.93355  1.0000
  H   H689      1.0  0.93322  0.64699  0.72261  1.0000
  C   C429      1.0  0.94253  0.29775  0.75171  1.0000
  H   H690      1.0  0.12795  0.19262  0.85569  1.0000
  H   H691      1.0  0.03364  0.57350  0.82062  1.0000
  H   H692      1.0  0.04402  0.48534  0.74854  1.0000
  H   H693      1.0  0.13181  0.21270  0.90982  1.0000
  H   H694      1.0  0.04186  0.48593  0.80974  1.0000
  H   H695      1.0  0.03707  0.53704  0.85160  1.0000
  C   C430      1.0  0.02900  0.54704  0.73666  1.0000
  S   S180      1.0  0.02263  0.22327  0.08483  1.0000
  H   H696      1.0  0.95503  0.34196  0.81620  1.0000
  Fe  Fe92      1.0  0.01873  0.64058  0.79908  1.0000
  S   S181      1.0  0.06568  0.62916  0.77627  1.0000
  S   S182      1.0  0.97993  0.60939  0.77763  1.0000
  C   C431      1.0  0.92131  0.27408  0.60014  1.0000
  C   C432      1.0  0.11239  0.60816  0.98522  1.0000
  C   C433      1.0  0.14273  0.19506  0.88651  1.0000
  C   C434      1.0  0.91631  0.59853  0.89849  1.0000
  Fe  Fe93      1.0  0.07893  0.64491  0.84714  1.0000
  H   H697      1.0  0.00880  0.49407  0.77595  1.0000
  H   H698      1.0  0.93397  0.22934  0.90876  1.0000
  S   S183      1.0  0.03162  0.65211  0.87152  1.0000
  S   S184      1.0  0.10994  0.61744  0.89254  1.0000
  C   C435      1.0  0.03362  0.49788  0.77822  1.0000
  C   C436      1.0  0.90722  0.20920  0.83057  1.0000
  C   C437      1.0  0.02827  0.54763  0.81940  1.0000
  C   C438      1.0  0.10284  0.62807  0.94987  1.0000
  C   C439      1.0  0.93357  0.63612  0.63109  1.0000
  H   H699      1.0  0.12306  0.58563  0.97720  1.0000
  H   H700      1.0  0.95633  0.59652  0.94039  1.0000
  H   H701      1.0  0.98281  0.20285  0.81255  1.0000
  H   H702      1.0  0.04437  0.20255  0.78628  1.0000
  C   C440      1.0  0.02902  0.64314  0.61818  1.0000
  C   C441      1.0  0.04929  0.65461  0.65146  1.0000
  H   H703      1.0  0.94216  0.32924  0.67188  1.0000
  H   H704      1.0  0.93975  0.66804  0.87387  1.0000
  H   H705      1.0  0.05746  0.63887  0.67775  1.0000
  C   C442      1.0  0.95582  0.60332  0.82412  1.0000
  C   C443      1.0  0.08873  0.65700  0.96056  1.0000
  C   C444      1.0  0.96727  0.60082  0.86868  1.0000
  C   C445      1.0  0.09431  0.64632  0.04187  1.0000
  H   H706      1.0  0.99131  0.60055  0.87460  1.0000
  H   H707      1.0  0.90707  0.67308  0.69440  1.0000
  H   H708      1.0  0.02184  0.32662  0.05375  1.0000
  C   C446      1.0  0.10791  0.61715  0.03113  1.0000
  C   C447      1.0  0.91102  0.64796  0.70455  1.0000
  H   H709      1.0  0.94537  0.25410  0.86207  1.0000
  N   N44       1.0  0.91034  0.62626  0.66438  1.0000
  H   H710      1.0  0.95667  0.63527  0.64632  1.0000
  C   C448      1.0  0.00977  0.34194  0.07918  1.0000
  H   H711      1.0  0.14292  0.27441  0.60188  1.0000
  H   H712      1.0  0.98704  0.33745  0.77922  1.0000
  C   C449      1.0  0.91455  0.19895  0.00332  1.0000
  H   H713      1.0  0.90336  0.34165  0.78337  1.0000
  S   S185      1.0  0.98281  0.56326  0.59356  1.0000
  H   H714      1.0  0.90879  0.66282  0.94327  1.0000
  Fe  Fe94      1.0  0.06815  0.68095  0.75943  1.0000
  H   H715      1.0  0.14502  0.67639  0.91667  1.0000
  C   C450      1.0  0.90496  0.60013  0.85383  1.0000
  H   H716      1.0  0.01548  0.70120  0.41456  1.0000
  H   H717      1.0  0.09826  0.14758  0.19000  1.0000
  H   H718      1.0  0.01946  0.71096  0.55718  1.0000
  H   H719      1.0  0.13616  0.73711  0.18976  1.0000
  H   H720      1.0  0.13477  0.79597  0.12789  1.0000
  N   N45       1.0  0.13897  0.74541  0.11735  1.0000
  C   C451      1.0  0.12148  0.73757  0.15874  1.0000
  H   H721      1.0  0.10240  0.17210  0.24015  1.0000
  H   H722      1.0  0.07076  0.14541  0.23452  1.0000
  C   C452      1.0  0.03004  0.69220  0.44273  1.0000
  H   H723      1.0  0.10312  0.75514  0.16487  1.0000
  C   C453      1.0  0.09534  0.14808  0.22780  1.0000
  C   C454      1.0  0.14537  0.12696  0.23923  1.0000
  N   N46       1.0  0.11309  0.12263  0.24981  1.0000
  H   H724      1.0  0.11609  0.07153  0.24785  1.0000
  H   H725      1.0  0.08476  0.12104  0.30944  1.0000
  H   H726      1.0  0.11069  0.71370  0.15531  1.0000
  C   C455      1.0  0.10887  0.12422  0.29999  1.0000
  H   H727      1.0  0.10603  0.08936  0.19439  1.0000
  H   H728      1.0  0.07864  0.08716  0.23928  1.0000
  C   C456      1.0  0.10299  0.09128  0.23218  1.0000
  H   H729      1.0  0.09285  0.08563  0.09868  1.0000
  H   H730      1.0  0.04641  0.71127  0.45215  1.0000
  C   C457      1.0  0.02798  0.69509  0.58313  1.0000
  H   H731      1.0  0.12220  0.10546  0.31764  1.0000
  C   C458      1.0  0.14562  0.14431  0.11124  1.0000
  H   H732      1.0  0.14958  0.12541  0.20185  1.0000
  H   H733      1.0  0.11655  0.14753  0.31433  1.0000
  H   H734      1.0  0.14784  0.09301  0.11205  1.0000
  C   C459      1.0  0.12694  0.17068  0.10544  1.0000
  C   C460      1.0  0.13344  0.11355  0.10847  1.0000
  C   C461      1.0  0.08374  0.13589  0.09555  1.0000
  C   C462      1.0  0.10235  0.10932  0.10099  1.0000
  C   C463      1.0  0.09612  0.16635  0.09763  1.0000
  H   H735      1.0  0.08164  0.18661  0.09360  1.0000
  C   C464      1.0  0.15241  0.77743  0.12277  1.0000
  S   S186      1.0  0.01998  0.74235  0.88909  1.0000
  Fe  Fe95      1.0  0.03242  0.17676  0.04924  1.0000
  S   S187      1.0  0.11094  0.81972  0.01484  1.0000
  H   H736      1.0  0.13966  0.74185  0.70777  1.0000
  C   C465      1.0  0.13375  0.77753  0.81249  1.0000
  C   C466      1.0  0.94066  0.69415  0.88071  1.0000
  H   H737      1.0  0.10019  0.76288  0.08067  1.0000
  S   S188      1.0  0.04503  0.13198  0.08583  1.0000
  H   H738      1.0  0.92803  0.17149  0.89733  1.0000
  H   H739      1.0  0.96174  0.74641  0.92380  1.0000
  N   N47       1.0  0.93938  0.70127  0.93038  1.0000
  C   C467      1.0  0.04596  0.76280  0.92428  1.0000
  C   C468      1.0  0.07713  0.75791  0.92038  1.0000
  C   C469      1.0  0.09735  0.77552  0.94780  1.0000
  C   C470      1.0  0.08632  0.79756  0.97986  1.0000
  C   C471      1.0  0.05519  0.80193  0.98443  1.0000
  C   C472      1.0  0.03508  0.78483  0.95640  1.0000
  H   H740      1.0  0.08572  0.74088  0.89609  1.0000
  H   H741      1.0  0.12138  0.77202  0.94417  1.0000
  H   H742      1.0  0.12400  0.80002  0.82640  1.0000
  H   H743      1.0  0.01106  0.78880  0.95957  1.0000
  H   H744      1.0  0.13569  0.82509  0.75145  1.0000
  H   H745      1.0  0.96631  0.16940  0.87774  1.0000
  S   S189      1.0  0.99355  0.17983  0.00024  1.0000
  H   H746      1.0  0.10786  0.72134  0.07204  1.0000
  S   S190      1.0  0.08679  0.69565  0.82789  1.0000
  H   H747      1.0  0.93031  0.18460  0.02247  1.0000
  H   H748      1.0  0.04661  0.81898  0.00915  1.0000
  C   C473      1.0  0.94067  0.73608  0.93795  1.0000
  N   N48       1.0  0.12952  0.77491  0.76231  1.0000
  H   H749      1.0  0.96195  0.70329  0.86537  1.0000
  H   H750      1.0  0.98714  0.69474  0.93992  1.0000
  H   H751      1.0  0.08628  0.79827  0.76320  1.0000
  H   H752      1.0  0.13081  0.75078  0.04509  1.0000
  C   C474      1.0  0.11862  0.74502  0.07707  1.0000
  S   S191      1.0  0.02009  0.69137  0.77716  1.0000
  C   C475      1.0  0.14253  0.74460  0.74553  1.0000
  H   H753      1.0  0.92138  0.74831  0.92109  1.0000
  C   C476      1.0  0.09693  0.77571  0.75128  1.0000
  C   C477      1.0  0.04903  0.70627  0.61554  1.0000
  C   C478      1.0  0.14492  0.80176  0.73983  1.0000
  H   H754      1.0  0.05660  0.73073  0.61462  1.0000
  H   H755      1.0  0.08466  0.75571  0.76768  1.0000
  S   S192      1.0  0.08385  0.70085  0.69285  1.0000
  H   H756      1.0  0.94008  0.74224  0.97509  1.0000
  H   H757      1.0  0.92140  0.70517  0.86212  1.0000
  H   H758      1.0  0.13140  0.72375  0.76144  1.0000
  C   C479      1.0  0.94257  0.17341  0.86646  1.0000
  H   H759      1.0  0.14254  0.80038  0.70188  1.0000
  H   H760      1.0  0.09293  0.77331  0.71370  1.0000
  H   H761      1.0  0.12274  0.75749  0.83057  1.0000
  H   H762      1.0  0.93635  0.15359  0.84273  1.0000
  Fe  Fe96      1.0  0.03831  0.70188  0.84728  1.0000
  H   H763      1.0  0.14280  0.17180  0.90442  1.0000
  H   H764      1.0  0.90947  0.69296  0.98698  1.0000
  H   H765      1.0  0.15263  0.93716  0.04905  1.0000
  H   H766      1.0  0.95269  0.18709  0.77808  1.0000
  H   H767      1.0  0.96516  0.69078  0.99102  1.0000
  H   H768      1.0  0.07376  0.68861  0.01448  1.0000
  C   C480      1.0  0.91088  0.68886  0.94935  1.0000
