data_image0
_chemical_formula_structural       CSCNFeSHFeSCSH2S2HCHC4HCH2C2HC4H4NCH4FeHCHCH3FeH3CHCSH3CH5CH4CNCHC2HFe2SHCH9CH8SCHCHCHCHSH2FeH2SC4H6CHSHCH2CSH3CSC2H2NCH2CH3C3FeHCHCNFeNH3CS2CSCSH4NHCNSCH2SCHFeH2CH3CH3CHSCHFe2S2FeH2SCHS2H3FeC2FeSH4CH2CHCSCH3CH2CHSC3HCHSHNH3CHFeSHC5H5NH2SHFeCH2SCNFeCHCFeH2NCHCH2CSH5CS2HSHSHSFeSCSCFeH2FeCFeH2C3H3CFe2HCSNCHSCH2FeH2SHFeH2CSC6H5C2SHCH2C4H4NHCHCHSH2SH2C2HFeH6C5H3NHSC2HS2H3CSC2HFeHSHSH3CHCHC4H4FeCN2SHCSFeCHC7H3CSHCHS2H2CH5SCFeHFe2SHSHNH4SC3FeSCH3C2S2H3CHCHNCHS2FeC2H4C4H3C2SH2C2H2CH3NC3H4FeS2H2C3HC2H3FeSHCHFe2H5SC3H4CHC3NS2HFeHSH4CSH2CHC2H4CHS2FeSC2HFeCH6SH4SHNH5CH2C3SHC6H3C7H3C2SCNCSCSHNCH2FeH3CFeHFeHCHCHCHCH3CH4SHSHCH3CH3CHCFeH5S2H4FeHSCH3SHCH4CH4CHCHCHSCHCHC6H4SHSNHNHCFe2HCH2SC2H2C2HCFeHSHCH2CHCHFeSFeS2FeSFeCS2H5C2HC4H3C3H2CHC4H2C2SCH2NSH6CSH4SH2CHFeHCSCSCFeHC2FeH3CH2SCSCH2NCHCH2FeH5CHCHCH3C2H2SC3NSC2SH4FeS2H2FeHFeHSCSCH2FeSHS2CH5CH2CHCH2SHCHCHCH4CHCHCFeSFeSCFeSFeHS2C2H2C2HC5H3C3H2CH2CH3CH4NH3CHNHCHSH2C4H5C2HSCH4CH2CH2CH11NC3HCHS2CHC4H3NH3C5H5CHFeNCH2CH2CHSCH5FeCHCHCH3C5HC2SNFeS2CSH2CH3FeC3HCHC2SHSHSCH2CHFeNFeH3S2HCHCH2CH3SH2SHSC2H2SHCSHC3H4FeSHFeS2FeSFeSCH5NCHCH3CH2C2SCH3SH2CHNCH3C2HC2H2CH3C2H5CHCFeS2H2C2HCHCH2NSHC2HCNH2CHSHCH3CH2CHCFeSHFeS2Fe2HS2H2CSC4HC2HSHSH2C2HC4H2C2HCHCH2CH2CHCH2CHCH5C3NHFeC3FeSCHSHSCFeHCHSH2C2SHCSH3CS2HFeSCFeSCH3SHCH3C2SH2FeC4HSC2HCH3S2Fe3H2NHCH3SNSH4CHCHNH3CH2SCH2CFeHNH3C2HCSHCSHFeCNH3CH6SNS2HCHFeH3CHSHCH2C2FeCFeHSH5CSCH2C3H2NSCH4C2HCHCH5C2
_chemical_formula_sum              "C480 S192 N48 Fe96 H768"
_cell_length_a       31.6592
_cell_length_b       34.2894
_cell_length_c       36.3503
_cell_angle_alpha    89.6057
_cell_angle_beta     89.8499
_cell_angle_gamma    89.3709

_space_group_name_H-M_alt    "P 1"
_space_group_IT_number       1

loop_
  _space_group_symop_operation_xyz
  'x, y, z'

loop_
  _atom_site_type_symbol
  _atom_site_label
  _atom_site_symmetry_multiplicity
  _atom_site_fract_x
  _atom_site_fract_y
  _atom_site_fract_z
  _atom_site_occupancy
  C   C1        1.0  0.46044  0.28621  0.19143  1.0000
  S   S1        1.0  0.38742  0.43189  0.22689  1.0000
  C   C2        1.0  0.49846  0.45014  0.36387  1.0000
  N   N1        1.0  0.59335  0.32138  0.22057  1.0000
  Fe  Fe1       1.0  0.63194  0.13909  0.28173  1.0000
  S   S2        1.0  0.49997  0.13711  0.35999  1.0000
  H   H1        1.0  0.36641  0.55298  0.17921  1.0000
  Fe  Fe2       1.0  0.42203  0.37755  0.20973  1.0000
  S   S3        1.0  0.41685  0.32451  0.24577  1.0000
  C   C3        1.0  0.42523  0.36414  0.33722  1.0000
  S   S4        1.0  0.48511  0.40598  0.20393  1.0000
  H   H2        1.0  0.24685  0.13348  0.37214  1.0000
  H   H3        1.0  0.50608  0.43378  0.27219  1.0000
  S   S5        1.0  0.57744  0.18140  0.28480  1.0000
  S   S6        1.0  0.53100  0.18777  0.18459  1.0000
  H   H4        1.0  0.44523  0.25257  0.27867  1.0000
  C   C4        1.0  0.32545  0.59284  0.37607  1.0000
  H   H5        1.0  0.51871  0.40078  0.33182  1.0000
  C   C5        1.0  0.49107  0.57697  0.17429  1.0000
  C   C6        1.0  0.34058  0.55618  0.26997  1.0000
  C   C7        1.0  0.59335  0.27871  0.22687  1.0000
  C   C8        1.0  0.48520  0.25536  0.17773  1.0000
  H   H6        1.0  0.39885  0.56873  0.21678  1.0000
  C   C9        1.0  0.48410  0.48747  0.29617  1.0000
  H   H7        1.0  0.55591  0.42921  0.16209  1.0000
  H   H8        1.0  0.50566  0.56014  0.19738  1.0000
  C   C10       1.0  0.39035  0.42707  0.33844  1.0000
  C   C11       1.0  0.44612  0.28531  0.22785  1.0000
  H   H9        1.0  0.34853  0.52524  0.27656  1.0000
  C   C12       1.0  0.49995  0.44924  0.29730  1.0000
  C   C13       1.0  0.49629  0.22397  0.20066  1.0000
  C   C14       1.0  0.48156  0.22283  0.23697  1.0000
  C   C15       1.0  0.45627  0.25339  0.25048  1.0000
  H   H10       1.0  0.31689  0.60866  0.19309  1.0000
  H   H11       1.0  0.45251  0.31068  0.17377  1.0000
  H   H12       1.0  0.48985  0.19859  0.25480  1.0000
  H   H13       1.0  0.41413  0.43856  0.35780  1.0000
  N   N2        1.0  0.38469  0.38472  0.34397  1.0000
  C   C16       1.0  0.35251  0.37053  0.31806  1.0000
  H   H14       1.0  0.44948  0.37227  0.35782  1.0000
  H   H15       1.0  0.29089  0.54163  0.18819  1.0000
  H   H16       1.0  0.56070  0.26745  0.22951  1.0000
  H   H17       1.0  0.44253  0.14040  0.29812  1.0000
  Fe  Fe3       1.0  0.54302  0.13171  0.31127  1.0000
  H   H18       1.0  0.59031  0.31546  0.16173  1.0000
  C   C17       1.0  0.63727  0.33567  0.22047  1.0000
  H   H19       1.0  0.62381  0.46234  0.17277  1.0000
  C   C18       1.0  0.57352  0.33044  0.18469  1.0000
  H   H20       1.0  0.66224  0.19790  0.23696  1.0000
  H   H21       1.0  0.54006  0.32100  0.18405  1.0000
  H   H22       1.0  0.46023  0.56331  0.16801  1.0000
  Fe  Fe4       1.0  0.55733  0.15355  0.23210  1.0000
  H   H23       1.0  0.53569  0.33078  0.25090  1.0000
  H   H24       1.0  0.58314  0.33422  0.27772  1.0000
  H   H25       1.0  0.29957  0.57432  0.36837  1.0000
  C   C19       1.0  0.29729  0.53777  0.21820  1.0000
  H   H26       1.0  0.48412  0.60699  0.18430  1.0000
  C   C20       1.0  0.50761  0.43073  0.33109  1.0000
  S   S7        1.0  0.43497  0.47472  0.15769  1.0000
  H   H27       1.0  0.36043  0.44362  0.34319  1.0000
  H   H28       1.0  0.61050  0.27048  0.25255  1.0000
  H   H29       1.0  0.43815  0.37131  0.30950  1.0000
  C   C21       1.0  0.28047  0.12528  0.37708  1.0000
  H   H30       1.0  0.38051  0.51951  0.21533  1.0000
  H   H31       1.0  0.40181  0.43392  0.31018  1.0000
  H   H32       1.0  0.60859  0.26270  0.20375  1.0000
  H   H33       1.0  0.29771  0.12908  0.35056  1.0000
  H   H34       1.0  0.36734  0.57427  0.27967  1.0000
  C   C22       1.0  0.37076  0.37727  0.38222  1.0000
  H   H35       1.0  0.40543  0.12570  0.18887  1.0000
  H   H36       1.0  0.31015  0.19792  0.37089  1.0000
  H   H37       1.0  0.56852  0.37300  0.24655  1.0000
  H   H38       1.0  0.36169  0.14405  0.38420  1.0000
  C   C23       1.0  0.47775  0.50784  0.32896  1.0000
  N   N3        1.0  0.33312  0.56191  0.23014  1.0000
  C   C24       1.0  0.29394  0.19078  0.39728  1.0000
  H   H39       1.0  0.31233  0.56479  0.28649  1.0000
  C   C25       1.0  0.32328  0.60346  0.22280  1.0000
  C   C26       1.0  0.37142  0.55030  0.20946  1.0000
  H   H40       1.0  0.30389  0.50613  0.22266  1.0000
  Fe  Fe5       1.0  0.44914  0.46098  0.21634  1.0000
  Fe  Fe6       1.0  0.37635  0.44045  0.16667  1.0000
  S   S8        1.0  0.46884  0.50850  0.25413  1.0000
  H   H41       1.0  0.46585  0.53755  0.32826  1.0000
  C   C27       1.0  0.48480  0.48910  0.36285  1.0000
  H   H42       1.0  0.57388  0.36226  0.17860  1.0000
  H   H43       1.0  0.63843  0.36793  0.21721  1.0000
  H   H44       1.0  0.57551  0.57912  0.17410  1.0000
  H   H45       1.0  0.36205  0.37608  0.28901  1.0000
  H   H46       1.0  0.47876  0.50458  0.38817  1.0000
  H   H47       1.0  0.45877  0.13677  0.20084  1.0000
  H   H48       1.0  0.42163  0.33192  0.33858  1.0000
  H   H49       1.0  0.34805  0.33850  0.32088  1.0000
  H   H50       1.0  0.36633  0.34560  0.38753  1.0000
  C   C28       1.0  0.56912  0.34073  0.25026  1.0000
  H   H51       1.0  0.30075  0.38777  0.15635  1.0000
  H   H52       1.0  0.32138  0.38511  0.32261  1.0000
  H   H53       1.0  0.25991  0.19895  0.39406  1.0000
  H   H54       1.0  0.65411  0.32787  0.24644  1.0000
  H   H55       1.0  0.65606  0.32294  0.19748  1.0000
  H   H56       1.0  0.34031  0.39247  0.38839  1.0000
  H   H57       1.0  0.26775  0.54556  0.23320  1.0000
  H   H58       1.0  0.29507  0.61348  0.23863  1.0000
  S   S9        1.0  0.22099  0.60396  0.39916  1.0000
  C   C29       1.0  0.55963  0.59536  0.15131  1.0000
  H   H59       1.0  0.21855  0.39519  0.43930  1.0000
  C   C30       1.0  0.34428  0.13912  0.41048  1.0000
  H   H60       1.0  0.32756  0.36687  0.59428  1.0000
  C   C31       1.0  0.35082  0.58253  0.40622  1.0000
  H   H61       1.0  0.61594  0.36966  0.59729  1.0000
  C   C32       1.0  0.32332  0.23869  0.54124  1.0000
  H   H62       1.0  0.49942  0.57381  0.62493  1.0000
  S   S10       1.0  0.41232  0.41787  0.48279  1.0000
  H   H63       1.0  0.46848  0.57513  0.52693  1.0000
  H   H64       1.0  0.36910  0.41740  0.56137  1.0000
  Fe  Fe7       1.0  0.42582  0.46610  0.52240  1.0000
  H   H65       1.0  0.29948  0.18076  0.58673  1.0000
  H   H66       1.0  0.33544  0.19182  0.62316  1.0000
  S   S11       1.0  0.44596  0.45706  0.58113  1.0000
  C   C33       1.0  0.24637  0.33238  0.50825  1.0000
  C   C34       1.0  0.28500  0.34883  0.51796  1.0000
  C   C35       1.0  0.29993  0.38168  0.49907  1.0000
  C   C36       1.0  0.27633  0.39803  0.47033  1.0000
  H   H67       1.0  0.48061  0.53319  0.55540  1.0000
  H   H68       1.0  0.24286  0.47053  0.50699  1.0000
  H   H69       1.0  0.30355  0.33615  0.53993  1.0000
  H   H70       1.0  0.32971  0.39419  0.50675  1.0000
  H   H71       1.0  0.26411  0.24553  0.59395  1.0000
  H   H72       1.0  0.50251  0.34477  0.61459  1.0000
  C   C37       1.0  0.41553  0.42204  0.60423  1.0000
  H   H73       1.0  0.23549  0.50685  0.54182  1.0000
  S   S12       1.0  0.29533  0.43806  0.44544  1.0000
  H   H74       1.0  0.38550  0.57896  0.59880  1.0000
  C   C38       1.0  0.36968  0.36359  0.64059  1.0000
  H   H75       1.0  0.35571  0.17800  0.57922  1.0000
  H   H76       1.0  0.52729  0.40444  0.58455  1.0000
  C   C39       1.0  0.22193  0.49502  0.51603  1.0000
  S   S13       1.0  0.59417  0.61861  0.64056  1.0000
  H   H77       1.0  0.29242  0.22601  0.53339  1.0000
  H   H78       1.0  0.46408  0.53355  0.62172  1.0000
  H   H79       1.0  0.29962  0.25608  0.63107  1.0000
  C   C40       1.0  0.22210  0.34960  0.48032  1.0000
  S   S14       1.0  0.22952  0.28975  0.53051  1.0000
  C   C41       1.0  0.33004  0.19490  0.59306  1.0000
  C   C42       1.0  0.26097  0.54085  0.47905  1.0000
  H   H80       1.0  0.37197  0.28521  0.58195  1.0000
  H   H81       1.0  0.24361  0.15077  0.44091  1.0000
  N   N4        1.0  0.32997  0.23629  0.58140  1.0000
  C   C43       1.0  0.37091  0.25400  0.59061  1.0000
  H   H82       1.0  0.39782  0.23814  0.57750  1.0000
  H   H83       1.0  0.29498  0.28903  0.59292  1.0000
  C   C44       1.0  0.23716  0.38231  0.46124  1.0000
  H   H84       1.0  0.64553  0.52038  0.58946  1.0000
  H   H85       1.0  0.32298  0.26949  0.53147  1.0000
  H   H86       1.0  0.37640  0.25329  0.62072  1.0000
  C   C45       1.0  0.58766  0.35239  0.60528  1.0000
  C   C46       1.0  0.35600  0.37808  0.60649  1.0000
  C   C47       1.0  0.29566  0.25754  0.60067  1.0000
  Fe  Fe8       1.0  0.35927  0.45709  0.46403  1.0000
  H   H87       1.0  0.35970  0.15698  0.43192  1.0000
  C   C48       1.0  0.37935  0.40678  0.58797  1.0000
  H   H88       1.0  0.34872  0.22295  0.52602  1.0000
  C   C49       1.0  0.47933  0.56563  0.55478  1.0000
  N   N5        1.0  0.55912  0.37513  0.62942  1.0000
  Fe  Fe9       1.0  0.45168  0.45264  0.44349  1.0000
  N   N6        1.0  0.29895  0.14897  0.40668  1.0000
  H   H89       1.0  0.19169  0.33782  0.47338  1.0000
  H   H90       1.0  0.30724  0.20964  0.41906  1.0000
  H   H91       1.0  0.19058  0.48246  0.52282  1.0000
  C   C50       1.0  0.38389  0.60664  0.41688  1.0000
  S   S15       1.0  0.41471  0.59446  0.45552  1.0000
  S   S16       1.0  0.66777  0.44258  0.61345  1.0000
  C   C51       1.0  0.46590  0.56597  0.62002  1.0000
  S   S17       1.0  0.42829  0.16523  0.62922  1.0000
  C   C52       1.0  0.42796  0.40887  0.63915  1.0000
  S   S18       1.0  0.47019  0.49739  0.48446  1.0000
  H   H92       1.0  0.44663  0.57814  0.64297  1.0000
  H   H93       1.0  0.40576  0.53518  0.57811  1.0000
  H   H94       1.0  0.28251  0.51769  0.46842  1.0000
  H   H95       1.0  0.29216  0.15578  0.46524  1.0000
  N   N7        1.0  0.45115  0.58078  0.58393  1.0000
  H   H96       1.0  0.57147  0.34379  0.57948  1.0000
  C   C53       1.0  0.20016  0.50849  0.45362  1.0000
  N   N8        1.0  0.21844  0.52550  0.48721  1.0000
  S   S19       1.0  0.39744  0.48770  0.42120  1.0000
  C   C54       1.0  0.27705  0.14069  0.44181  1.0000
  H   H97       1.0  0.51227  0.57601  0.55834  1.0000
  H   H98       1.0  0.22044  0.48451  0.44269  1.0000
  S   S20       1.0  0.36904  0.50250  0.50719  1.0000
  C   C55       1.0  0.46795  0.12941  0.63275  1.0000
  H   H99       1.0  0.59921  0.32533  0.61924  1.0000
  Fe  Fe10      1.0  0.41228  0.52990  0.46580  1.0000
  H   H100      1.0  0.25983  0.56448  0.45807  1.0000
  H   H101      1.0  0.39442  0.38789  0.40238  1.0000
  C   C56       1.0  0.40755  0.56759  0.57742  1.0000
  H   H102      1.0  0.27574  0.55360  0.50392  1.0000
  H   H103      1.0  0.19654  0.53067  0.43138  1.0000
  H   H104      1.0  0.34388  0.55652  0.42193  1.0000
  C   C57       1.0  0.52192  0.35147  0.63920  1.0000
  H   H105      1.0  0.39573  0.57775  0.55009  1.0000
  H   H106      1.0  0.57276  0.42933  0.60185  1.0000
  H   H107      1.0  0.18701  0.58077  0.47886  1.0000
  C   C58       1.0  0.54531  0.41109  0.60998  1.0000
  H   H108      1.0  0.20400  0.57183  0.52504  1.0000
  S   S21       1.0  0.49742  0.42366  0.40518  1.0000
  C   C59       1.0  0.19072  0.55756  0.50025  1.0000
  H   H109      1.0  0.52431  0.42943  0.62753  1.0000
  Fe  Fe11      1.0  0.17148  0.26559  0.50442  1.0000
  Fe  Fe12      1.0  0.38575  0.22033  0.75131  1.0000
  S   S22       1.0  0.35981  0.22271  0.69448  1.0000
  S   S23       1.0  0.34545  0.19380  0.79510  1.0000
  Fe  Fe13      1.0  0.46543  0.26161  0.72958  1.0000
  H   H110      1.0  0.34297  0.37552  0.88037  1.0000
  H   H111      1.0  0.45605  0.40948  0.72814  1.0000
  S   S24       1.0  0.44680  0.26766  0.67037  1.0000
  C   C60       1.0  0.40572  0.37894  0.65687  1.0000
  H   H112      1.0  0.26906  0.16116  0.84046  1.0000
  S   S25       1.0  0.40313  0.28348  0.75184  1.0000
  S   S26       1.0  0.44953  0.19806  0.73421  1.0000
  H   H113      1.0  0.41411  0.23059  0.83240  1.0000
  H   H114      1.0  0.58492  0.23986  0.79652  1.0000
  H   H115      1.0  0.60173  0.16949  0.74818  1.0000
  Fe  Fe14      1.0  0.57436  0.49263  0.71551  1.0000
  C   C61       1.0  0.30912  0.26179  0.87966  1.0000
  C   C62       1.0  0.51993  0.41717  0.74636  1.0000
  Fe  Fe15      1.0  0.66188  0.52432  0.72609  1.0000
  S   S27       1.0  0.63850  0.46386  0.71609  1.0000
  H   H116      1.0  0.22613  0.13309  0.85854  1.0000
  H   H117      1.0  0.27979  0.27034  0.89273  1.0000
  H   H118      1.0  0.35541  0.31601  0.81815  1.0000
  H   H119      1.0  0.27855  0.22753  0.83844  1.0000
  C   C63       1.0  0.56015  0.35761  0.75787  1.0000
  H   H120      1.0  0.41525  0.27458  0.88640  1.0000
  H   H121      1.0  0.63958  0.56549  0.80733  1.0000
  C   C64       1.0  0.48494  0.39503  0.73684  1.0000
  H   H122      1.0  0.38662  0.40565  0.86731  1.0000
  C   C65       1.0  0.38480  0.23939  0.84549  1.0000
  S   S28       1.0  0.57356  0.50507  0.65471  1.0000
  C   C66       1.0  0.38547  0.26406  0.87607  1.0000
  H   H123      1.0  0.29678  0.40871  0.83559  1.0000
  H   H124      1.0  0.41483  0.35922  0.80071  1.0000
  H   H125      1.0  0.32158  0.34030  0.78560  1.0000
  C   C67       1.0  0.39111  0.38314  0.79688  1.0000
  H   H126      1.0  0.63998  0.53386  0.86989  1.0000
  H   H127      1.0  0.39173  0.35337  0.86606  1.0000
  C   C68       1.0  0.63568  0.56341  0.88194  1.0000
  H   H128      1.0  0.62812  0.23159  0.82773  1.0000
  S   S29       1.0  0.51671  0.46790  0.74216  1.0000
  C   C69       1.0  0.33349  0.34128  0.81437  1.0000
  C   C70       1.0  0.55756  0.39853  0.75706  1.0000
  C   C71       1.0  0.34629  0.22566  0.83232  1.0000
  H   H129      1.0  0.31237  0.41227  0.78804  1.0000
  C   C72       1.0  0.32451  0.41125  0.81676  1.0000
  H   H130      1.0  0.52787  0.59990  0.69246  1.0000
  S   S30       1.0  0.52845  0.28449  0.74700  1.0000
  H   H131      1.0  0.50118  0.36703  0.65909  1.0000
  N   N9        1.0  0.35473  0.37852  0.82213  1.0000
  H   H132      1.0  0.40767  0.41118  0.80151  1.0000
  H   H133      1.0  0.46130  0.33753  0.72803  1.0000
  H   H134      1.0  0.58917  0.34321  0.76623  1.0000
  C   C73       1.0  0.63409  0.59367  0.82175  1.0000
  H   H135      1.0  0.41565  0.36845  0.68357  1.0000
  Fe  Fe16      1.0  0.42508  0.20616  0.67676  1.0000
  S   S31       1.0  0.24091  0.34888  0.89382  1.0000
  H   H136      1.0  0.38103  0.38271  0.76753  1.0000
  C   C74       1.0  0.36974  0.37833  0.86060  1.0000
  C   C75       1.0  0.48782  0.35431  0.73696  1.0000
  C   C76       1.0  0.30846  0.23707  0.84923  1.0000
  C   C77       1.0  0.52526  0.33551  0.74758  1.0000
  C   C78       1.0  0.58170  0.38566  0.66338  1.0000
  H   H137      1.0  0.33947  0.43983  0.82246  1.0000
  H   H138      1.0  0.30623  0.33650  0.83319  1.0000
  H   H139      1.0  0.58451  0.41562  0.76494  1.0000
  H   H140      1.0  0.56213  0.40540  0.68074  1.0000
  H   H141      1.0  0.59700  0.19138  0.81245  1.0000
  N   N10       1.0  0.64026  0.21383  0.77201  1.0000
  H   H142      1.0  0.49574  0.15218  0.68199  1.0000
  H   H143      1.0  0.59053  0.21803  0.73194  1.0000
  S   S32       1.0  0.34125  0.32662  0.66284  1.0000
  H   H144      1.0  0.29027  0.51280  0.87477  1.0000
  Fe  Fe17      1.0  0.60305  0.56170  0.67033  1.0000
  C   C79       1.0  0.61134  0.21946  0.80359  1.0000
  H   H145      1.0  0.60122  0.56862  0.88593  1.0000
  H   H146      1.0  0.59934  0.59837  0.82402  1.0000
  S   S33       1.0  0.59729  0.55172  0.73116  1.0000
  C   C80       1.0  0.61646  0.19782  0.74073  1.0000
  N   N11       1.0  0.65464  0.59375  0.85821  1.0000
  Fe  Fe18      1.0  0.38315  0.28388  0.69270  1.0000
  C   C81       1.0  0.34759  0.27533  0.89303  1.0000
  H   H147      1.0  0.58998  0.35943  0.68018  1.0000
  C   C82       1.0  0.49679  0.12924  0.66187  1.0000
  Fe  Fe19      1.0  0.63945  0.48101  0.65656  1.0000
  H   H148      1.0  0.66182  0.15736  0.79070  1.0000
  H   H149      1.0  0.33987  0.15785  0.87171  1.0000
  N   N12       1.0  0.28559  0.12368  0.88600  1.0000
  C   C83       1.0  0.33113  0.12716  0.87762  1.0000
  H   H150      1.0  0.45475  0.42185  0.65255  1.0000
  C   C84       1.0  0.65851  0.25176  0.76124  1.0000
  H   H151      1.0  0.63339  0.27316  0.75319  1.0000
  H   H152      1.0  0.63739  0.19268  0.71654  1.0000
  C   C85       1.0  0.26059  0.13250  0.85258  1.0000
  S   S34       1.0  0.66902  0.53861  0.66657  1.0000
  H   H153      1.0  0.53134  0.32338  0.65257  1.0000
  H   H154      1.0  0.61150  0.40116  0.65718  1.0000
  H   H155      1.0  0.66376  0.59796  0.72621  1.0000
  H   H156      1.0  0.64667  0.61721  0.80372  1.0000
  H   H157      1.0  0.24034  0.14847  0.92337  1.0000
  C   C86       1.0  0.49831  0.60086  0.11203  1.0000
  S   S35       1.0  0.32582  0.56066  0.08904  1.0000
  S   S36       1.0  0.34810  0.30808  0.92954  1.0000
  H   H158      1.0  0.41536  0.41244  0.07654  1.0000
  S   S37       1.0  0.25875  0.61125  0.03692  1.0000
  H   H159      1.0  0.40387  0.48434  0.07482  1.0000
  S   S38       1.0  0.23069  0.29381  0.96755  1.0000
  H   H160      1.0  0.32800  0.43917  0.01178  1.0000
  S   S39       1.0  0.50736  0.41690  0.09597  1.0000
  Fe  Fe20      1.0  0.21748  0.34967  0.99756  1.0000
  S   S40       1.0  0.20527  0.34866  0.05814  1.0000
  C   C87       1.0  0.39097  0.41041  0.05473  1.0000
  S   S41       1.0  0.27245  0.38184  0.97385  1.0000
  C   C88       1.0  0.24301  0.41955  0.06676  1.0000
  Fe  Fe21      1.0  0.34353  0.61849  0.11276  1.0000
  H   H161      1.0  0.25528  0.34094  0.12350  1.0000
  H   H162      1.0  0.49676  0.52373  0.11920  1.0000
  Fe  Fe22      1.0  0.28184  0.32825  0.94021  1.0000
  C   C89       1.0  0.28455  0.39675  0.13149  1.0000
  Fe  Fe23      1.0  0.32667  0.59277  0.03515  1.0000
  H   H163      1.0  0.34921  0.47836  0.06402  1.0000
  H   H164      1.0  0.39743  0.38304  0.03932  1.0000
  C   C90       1.0  0.28808  0.43505  0.11851  1.0000
  C   C91       1.0  0.23835  0.38159  0.08043  1.0000
  C   C92       1.0  0.25885  0.37031  0.11292  1.0000
  H   H165      1.0  0.46667  0.58924  0.10500  1.0000
  H   H166      1.0  0.35962  0.40741  0.06847  1.0000
  H   H167      1.0  0.22715  0.42847  0.04170  1.0000
  C   C93       1.0  0.26696  0.44657  0.08635  1.0000
  Fe  Fe24      1.0  0.46535  0.41719  0.14569  1.0000
  Fe  Fe25      1.0  0.22709  0.39988  0.92978  1.0000
  H   H168      1.0  0.36652  0.41310  0.98476  1.0000
  C   C94       1.0  0.55546  0.44052  0.10382  1.0000
  S   S42       1.0  0.22992  0.45750  0.90097  1.0000
  N   N13       1.0  0.39194  0.44498  0.03029  1.0000
  C   C95       1.0  0.36074  0.44036  0.00054  1.0000
  H   H169      1.0  0.43630  0.47486  0.99558  1.0000
  S   S43       1.0  0.64065  0.57813  0.04758  1.0000
  C   C96       1.0  0.43461  0.44898  0.01420  1.0000
  H   H170      1.0  0.45889  0.45271  0.03599  1.0000
  H   H171      1.0  0.47806  0.14280  0.13532  1.0000
  Fe  Fe26      1.0  0.25911  0.58333  0.09290  1.0000
  H   H172      1.0  0.56419  0.45657  0.04691  1.0000
  H   H173      1.0  0.44379  0.42272  0.99811  1.0000
  S   S44       1.0  0.20143  0.55026  0.11015  1.0000
  H   H174      1.0  0.22721  0.53088  0.03722  1.0000
  Fe  Fe27      1.0  0.18820  0.31970  0.92419  1.0000
  H   H175      1.0  0.27843  0.18228  0.90599  1.0000
  H   H176      1.0  0.29355  0.14689  0.94031  1.0000
  C   C97       1.0  0.61480  0.47797  0.08064  1.0000
  S   S45       1.0  0.35572  0.56770  0.98410  1.0000
  C   C98       1.0  0.29092  0.51294  0.90452  1.0000
  C   C99       1.0  0.27400  0.15157  0.91525  1.0000
  C   C100      1.0  0.63181  0.47941  0.11609  1.0000
  C   C101      1.0  0.61075  0.46123  0.14532  1.0000
  C   C102      1.0  0.29215  0.51420  0.98146  1.0000
  C   C103      1.0  0.38137  0.48021  0.05175  1.0000
  H   H177      1.0  0.29281  0.51457  0.01119  1.0000
  H   H178      1.0  0.36192  0.46519  0.98071  1.0000
  H   H179      1.0  0.26923  0.47636  0.07650  1.0000
  H   H180      1.0  0.34059  0.55536  0.90741  1.0000
  H   H181      1.0  0.38197  0.50695  0.03424  1.0000
  C   C104      1.0  0.19346  0.53559  0.03702  1.0000
  C   C105      1.0  0.31962  0.53798  0.96139  1.0000
  S   S46       1.0  0.31906  0.46858  0.14217  1.0000
  H   H182      1.0  0.51778  0.60107  0.08648  1.0000
  C   C106      1.0  0.26499  0.48882  0.96303  1.0000
  H   H183      1.0  0.24410  0.47016  0.97862  1.0000
  H   H184      1.0  0.63131  0.49138  0.05785  1.0000
  C   C107      1.0  0.57696  0.45806  0.07444  1.0000
  C   C108      1.0  0.26397  0.48861  0.92452  1.0000
  C   C109      1.0  0.57229  0.44242  0.13930  1.0000
  C   C110      1.0  0.31933  0.53699  0.92294  1.0000
  H   H185      1.0  0.18783  0.52810  0.97844  1.0000
  H   H186      1.0  0.54895  0.53687  0.10501  1.0000
  H   H187      1.0  0.42455  0.13242  0.12287  1.0000
  H   H188      1.0  0.58170  0.59530  0.12744  1.0000
  N   N14       1.0  0.51883  0.57769  0.14156  1.0000
  H   H189      1.0  0.65049  0.56287  0.90975  1.0000
  C   C111      1.0  0.52643  0.53747  0.12860  1.0000
  H   H190      1.0  0.54008  0.51878  0.15080  1.0000
  C   C112      1.0  0.17234  0.54421  0.06978  1.0000
  H   H191      1.0  0.49659  0.25631  0.14964  1.0000
  S   S47       1.0  0.40516  0.38328  0.14992  1.0000
  H   H192      1.0  0.65409  0.82454  0.33328  1.0000
  H   H193      1.0  0.46966  0.87517  0.39298  1.0000
  S   S48       1.0  0.29572  0.64370  0.32387  1.0000
  H   H194      1.0  0.32619  0.67795  0.16931  1.0000
  H   H195      1.0  0.51848  0.04318  0.33608  1.0000
  C   C113      1.0  0.58906  0.78417  0.30720  1.0000
  C   C114      1.0  0.35451  0.69477  0.17122  1.0000
  H   H196      1.0  0.28452  0.82893  0.30034  1.0000
  Fe  Fe28      1.0  0.23721  0.65028  0.35819  1.0000
  H   H197      1.0  0.37219  0.67803  0.35168  1.0000
  H   H198      1.0  0.58287  0.83667  0.25247  1.0000
  H   H199      1.0  0.45584  0.75630  0.18007  1.0000
  H   H200      1.0  0.27402  0.76769  0.35913  1.0000
  H   H201      1.0  0.32274  0.77648  0.33573  1.0000
  H   H202      1.0  0.23886  0.81674  0.27376  1.0000
  C   C115      1.0  0.42757  0.73910  0.17800  1.0000
  C   C116      1.0  0.29695  0.75904  0.26815  1.0000
  C   C117      1.0  0.64743  0.01397  0.20315  1.0000
  C   C118      1.0  0.38778  0.75670  0.18251  1.0000
  C   C119      1.0  0.25671  0.80940  0.29925  1.0000
  H   H203      1.0  0.21289  0.74868  0.27366  1.0000
  H   H204      1.0  0.23624  0.81695  0.32323  1.0000
  H   H205      1.0  0.28011  0.76459  0.24177  1.0000
  N   N15       1.0  0.26963  0.76783  0.30019  1.0000
  H   H206      1.0  0.24022  0.71160  0.29971  1.0000
  S   S49       1.0  0.48368  0.86261  0.15410  1.0000
  C   C120      1.0  0.23163  0.74319  0.29905  1.0000
  C   C121      1.0  0.29309  0.75957  0.33450  1.0000
  H   H207      1.0  0.59820  0.75508  0.31857  1.0000
  S   S50       1.0  0.61532  0.11605  0.22622  1.0000
  S   S51       1.0  0.60029  0.82250  0.17039  1.0000
  H   H208      1.0  0.18786  0.09022  0.37409  1.0000
  H   H209      1.0  0.21062  0.02605  0.39856  1.0000
  H   H210      1.0  0.60620  0.76968  0.23682  1.0000
  C   C122      1.0  0.49479  0.07412  0.16838  1.0000
  S   S52       1.0  0.54000  0.90010  0.22158  1.0000
  C   C123      1.0  0.61033  0.83977  0.27097  1.0000
  C   C124      1.0  0.66128  0.80604  0.30899  1.0000
  H   H211      1.0  0.51832  0.09702  0.17475  1.0000
  Fe  Fe29      1.0  0.32115  0.00198  0.37285  1.0000
  H   H212      1.0  0.32057  0.74793  0.18262  1.0000
  S   S53       1.0  0.33174  0.04658  0.32828  1.0000
  H   H213      1.0  0.37653  0.10407  0.28556  1.0000
  S   S54       1.0  0.31898  0.85423  0.37423  1.0000
  H   H214      1.0  0.65840  0.78881  0.23575  1.0000
  H   H215      1.0  0.63655  0.04307  0.19658  1.0000
  H   H216      1.0  0.32578  0.77741  0.26780  1.0000
  C   C125      1.0  0.40367  0.86177  0.38652  1.0000
  H   H217      1.0  0.46139  0.68569  0.16570  1.0000
  C   C126      1.0  0.36649  0.65119  0.36659  1.0000
  H   H218      1.0  0.60093  0.85999  0.29346  1.0000
  C   C127      1.0  0.37790  0.07267  0.33709  1.0000
  C   C128      1.0  0.39949  0.06701  0.37021  1.0000
  C   C129      1.0  0.53384  0.96482  0.33542  1.0000
  C   C130      1.0  0.63433  0.77543  0.25420  1.0000
  H   H219      1.0  0.46463  0.03952  0.32135  1.0000
  H   H220      1.0  0.61139  0.91411  0.16396  1.0000
  H   H221      1.0  0.38848  0.04599  0.39005  1.0000
  H   H222      1.0  0.28168  0.09354  0.38387  1.0000
  Fe  Fe30      1.0  0.49562  0.86979  0.25966  1.0000
  C   C131      1.0  0.48180  0.98931  0.37819  1.0000
  N   N16       1.0  0.62379  0.80129  0.28539  1.0000
  N   N17       1.0  0.49273  0.98534  0.33881  1.0000
  S   S55       1.0  0.38209  0.80674  0.19040  1.0000
  H   H223      1.0  0.46812  0.95723  0.29078  1.0000
  C   C132      1.0  0.45960  0.96295  0.31999  1.0000
  S   S56       1.0  0.50590  0.86562  0.32041  1.0000
  Fe  Fe31      1.0  0.44298  0.83783  0.19887  1.0000
  C   C133      1.0  0.39321  0.09949  0.31120  1.0000
  H   H224      1.0  0.54180  0.95878  0.30612  1.0000
  C   C134      1.0  0.63726  0.95194  0.23379  1.0000
  C   C135      1.0  0.45633  0.85398  0.33855  1.0000
  C   C136      1.0  0.42535  0.83960  0.31508  1.0000
  C   C137      1.0  0.38341  0.83738  0.32685  1.0000
  C   C138      1.0  0.37230  0.84953  0.36218  1.0000
  C   C139      1.0  0.39400  0.67709  0.16596  1.0000
  C   C140      1.0  0.44585  0.86373  0.37479  1.0000
  H   H225      1.0  0.43495  0.09280  0.21796  1.0000
  H   H226      1.0  0.35945  0.82893  0.30752  1.0000
  H   H227      1.0  0.30181  0.72810  0.33687  1.0000
  C   C141      1.0  0.49569  0.02428  0.32146  1.0000
  S   S57       1.0  0.59943  0.09180  0.31326  1.0000
  H   H228      1.0  0.58658  0.96078  0.15535  1.0000
  C   C142      1.0  0.43586  0.08833  0.37782  1.0000
  H   H229      1.0  0.53358  0.93634  0.35023  1.0000
  S   S58       1.0  0.43799  0.89343  0.23076  1.0000
  S   S59       1.0  0.49748  0.81276  0.23056  1.0000
  H   H230      1.0  0.43322  0.83173  0.28718  1.0000
  H   H231      1.0  0.45452  0.93437  0.33366  1.0000
  C   C143      1.0  0.62376  0.99019  0.22664  1.0000
  H   H232      1.0  0.49388  0.05334  0.19209  1.0000
  H   H233      1.0  0.55991  0.98240  0.34699  1.0000
  H   H234      1.0  0.50596  0.02208  0.29228  1.0000
  H   H235      1.0  0.50535  0.00708  0.39312  1.0000
  H   H236      1.0  0.42870  0.97879  0.32022  1.0000
  S   S60       1.0  0.36900  0.95472  0.38174  1.0000
  C   C144      1.0  0.43069  0.69913  0.16991  1.0000
  Fe  Fe32      1.0  0.57842  0.07180  0.25796  1.0000
  H   H237      1.0  0.61891  0.93336  0.25172  1.0000
  Fe  Fe33      1.0  0.48311  0.91657  0.18848  1.0000
  Fe  Fe34      1.0  0.53779  0.84459  0.18999  1.0000
  S   S61       1.0  0.57729  0.00759  0.24724  1.0000
  H   H238      1.0  0.57985  0.80330  0.33062  1.0000
  S   S62       1.0  0.26593  0.96164  0.37840  1.0000
  H   H239      1.0  0.56021  0.78041  0.29018  1.0000
  N   N18       1.0  0.45263  0.09134  0.16080  1.0000
  H   H240      1.0  0.30760  0.72794  0.26835  1.0000
  H   H241      1.0  0.64744  0.74690  0.26378  1.0000
  H   H242      1.0  0.42079  0.03804  0.17451  1.0000
  H   H243      1.0  0.21045  0.74895  0.32300  1.0000
  S   S63       1.0  0.48122  0.97191  0.15527  1.0000
  C   C145      1.0  0.39195  0.64083  0.39684  1.0000
  C   C146      1.0  0.33282  0.62741  0.35653  1.0000
  C   C147      1.0  0.35137  0.73442  0.17935  1.0000
  Fe  Fe35      1.0  0.31424  0.91598  0.39393  1.0000
  S   S64       1.0  0.51864  0.10705  0.25885  1.0000
  C   C148      1.0  0.43725  0.11253  0.19358  1.0000
  H   H244      1.0  0.63585  0.85373  0.25453  1.0000
  H   H245      1.0  0.45049  0.00352  0.38194  1.0000
  H   H246      1.0  0.48004  0.96037  0.39223  1.0000
  C   C149      1.0  0.45189  0.11423  0.35158  1.0000
  C   C150      1.0  0.43050  0.11995  0.31827  1.0000
  S   S65       1.0  0.23971  0.69802  0.39971  1.0000
  S   S66       1.0  0.39686  0.62817  0.15233  1.0000
  H   H247      1.0  0.35011  0.62247  0.23052  1.0000
  H   H248      1.0  0.55547  0.62630  0.15988  1.0000
  H   H249      1.0  0.38003  0.77899  0.40075  1.0000
  C   C151      1.0  0.42279  0.05996  0.15180  1.0000
  H   H250      1.0  0.31069  0.72993  0.58642  1.0000
  C   C152      1.0  0.36015  0.72214  0.47555  1.0000
  H   H251      1.0  0.45514  0.92548  0.56330  1.0000
  N   N19       1.0  0.19151  0.89202  0.52964  1.0000
  C   C153      1.0  0.27523  0.76220  0.54558  1.0000
  H   H252      1.0  0.50406  0.87940  0.59314  1.0000
  S   S67       1.0  0.24874  0.64383  0.49499  1.0000
  S   S68       1.0  0.39897  0.75780  0.57966  1.0000
  Fe  Fe36      1.0  0.21852  0.65247  0.43976  1.0000
  C   C154      1.0  0.19838  0.04789  0.41713  1.0000
  C   C155      1.0  0.18430  0.85633  0.55171  1.0000
  H   H253      1.0  0.33835  0.74450  0.40752  1.0000
  H   H254      1.0  0.38129  0.69703  0.46861  1.0000
  H   H255      1.0  0.55737  0.69002  0.61407  1.0000
  H   H256      1.0  0.48752  0.72097  0.62516  1.0000
  C   C156      1.0  0.45482  0.94353  0.58858  1.0000
  C   C157      1.0  0.24110  0.72317  0.49915  1.0000
  C   C158      1.0  0.25764  0.68918  0.51525  1.0000
  C   C159      1.0  0.28260  0.69165  0.54683  1.0000
  H   H257      1.0  0.32746  0.71370  0.46793  1.0000
  H   H258      1.0  0.39517  0.87156  0.41383  1.0000
  H   H259      1.0  0.29540  0.66539  0.55939  1.0000
  C   C160      1.0  0.23728  0.89990  0.52802  1.0000
  C   C161      1.0  0.53600  0.67744  0.63405  1.0000
  S   S69       1.0  0.45886  0.80068  0.64191  1.0000
  H   H260      1.0  0.19941  0.83038  0.53882  1.0000
  H   H261      1.0  0.31112  0.78446  0.45915  1.0000
  C   C162      1.0  0.24974  0.75964  0.51433  1.0000
  C   C163      1.0  0.29149  0.72818  0.56194  1.0000
  H   H262      1.0  0.34882  0.10793  0.41834  1.0000
  H   H263      1.0  0.34516  0.79610  0.49685  1.0000
  C   C164      1.0  0.17827  0.06788  0.47843  1.0000
  H   H264      1.0  0.24374  0.92716  0.51231  1.0000
  H   H265      1.0  0.17525  0.06140  0.50750  1.0000
  H   H266      1.0  0.27691  0.10883  0.44818  1.0000
  N   N20       1.0  0.37309  0.75826  0.45631  1.0000
  C   C165      1.0  0.34441  0.79072  0.46667  1.0000
  C   C166      1.0  0.41686  0.76796  0.46670  1.0000
  C   C167      1.0  0.47035  0.10035  0.60605  1.0000
  H   H267      1.0  0.56070  0.95151  0.60169  1.0000
  H   H268      1.0  0.39247  0.72826  0.40728  1.0000
  H   H269      1.0  0.50345  0.04927  0.58722  1.0000
  H   H270      1.0  0.43147  0.63644  0.60542  1.0000
  Fe  Fe37      1.0  0.44361  0.80775  0.58201  1.0000
  S   S70       1.0  0.49284  0.81864  0.53886  1.0000
  S   S71       1.0  0.39324  0.85285  0.59145  1.0000
  H   H271      1.0  0.36069  0.72574  0.50595  1.0000
  H   H272      1.0  0.53843  0.88305  0.50722  1.0000
  C   C168      1.0  0.47611  0.85922  0.51315  1.0000
  C   C169      1.0  0.43304  0.86522  0.50683  1.0000
  C   C170      1.0  0.41861  0.90043  0.49160  1.0000
  H   H273      1.0  0.25493  0.87562  0.51448  1.0000
  C   C171      1.0  0.49045  0.92331  0.48759  1.0000
  C   C172      1.0  0.50503  0.88774  0.50247  1.0000
  H   H274      1.0  0.41060  0.84315  0.51463  1.0000
  H   H275      1.0  0.38525  0.90539  0.48858  1.0000
  H   H276      1.0  0.48447  0.63472  0.58777  1.0000
  Fe  Fe38      1.0  0.34936  0.80242  0.59400  1.0000
  S   S72       1.0  0.32079  0.02106  0.43158  1.0000
  H   H277      1.0  0.52556  0.98453  0.57856  1.0000
  C   C173      1.0  0.19496  0.03967  0.45472  1.0000
  H   H278      1.0  0.43948  0.74426  0.45911  1.0000
  Fe  Fe39      1.0  0.26936  0.97733  0.43817  1.0000
  Fe  Fe40      1.0  0.40924  0.75446  0.64067  1.0000
  H   H279      1.0  0.44919  0.97433  0.57981  1.0000
  H   H280      1.0  0.22172  0.72133  0.47491  1.0000
  H   H281      1.0  0.51263  0.94598  0.48056  1.0000
  H   H282      1.0  0.25088  0.90328  0.55598  1.0000
  H   H283      1.0  0.44066  0.63582  0.55658  1.0000
  S   S73       1.0  0.42845  0.97553  0.46761  1.0000
  C   C174      1.0  0.50205  0.89754  0.61839  1.0000
  C   C175      1.0  0.17534  0.88645  0.49195  1.0000
  C   C176      1.0  0.50144  0.07114  0.60839  1.0000
  H   H284      1.0  0.35317  0.81842  0.45251  1.0000
  H   H285      1.0  0.53198  0.89311  0.63392  1.0000
  H   H286      1.0  0.53368  0.93641  0.56076  1.0000
  H   H287      1.0  0.42753  0.79526  0.45287  1.0000
  C   C177      1.0  0.53022  0.95344  0.58654  1.0000
  H   H288      1.0  0.23746  0.78578  0.50123  1.0000
  C   C178      1.0  0.18554  0.08431  0.40331  1.0000
  C   C179      1.0  0.44709  0.92985  0.48263  1.0000
  C   C180      1.0  0.49651  0.69506  0.64043  1.0000
  N   N21       1.0  0.49475  0.93911  0.60925  1.0000
  S   S74       1.0  0.21343  0.99492  0.47212  1.0000
  S   S75       1.0  0.31311  0.92832  0.45419  1.0000
  H   H289      1.0  0.42726  0.93429  0.60550  1.0000
  Fe  Fe41      1.0  0.36486  0.97045  0.44102  1.0000
  H   H290      1.0  0.18033  0.91291  0.47455  1.0000
  S   S76       1.0  0.28852  0.80801  0.56285  1.0000
  H   H291      1.0  0.19770  0.85884  0.57983  1.0000
  H   H292      1.0  0.19124  0.86139  0.47812  1.0000
  H   H293      1.0  0.17304  0.95269  0.53049  1.0000
  H   H294      1.0  0.41980  0.77248  0.49689  1.0000
  C   C181      1.0  0.53004  0.07062  0.63765  1.0000
  S   S77       1.0  0.56780  0.03296  0.64051  1.0000
  H   H295      1.0  0.47600  0.88587  0.63564  1.0000
  H   H296      1.0  0.48549  0.99321  0.63765  1.0000
  C   C182      1.0  0.45193  0.62385  0.58340  1.0000
  H   H297      1.0  0.18108  0.93106  0.57498  1.0000
  C   C183      1.0  0.37089  0.75223  0.41615  1.0000
  C   C184      1.0  0.49189  0.96185  0.64357  1.0000
  H   H298      1.0  0.44833  0.10057  0.58333  1.0000
  H   H299      1.0  0.41791  0.65918  0.40475  1.0000
  H   H300      1.0  0.45253  0.08357  0.40347  1.0000
  H   H301      1.0  0.24868  0.82814  0.70673  1.0000
  C   C185      1.0  0.47989  0.64424  0.68452  1.0000
  H   H302      1.0  0.45805  0.63119  0.70385  1.0000
  S   S78       1.0  0.66550  0.93077  0.76564  1.0000
  S   S79       1.0  0.41703  0.69743  0.67044  1.0000
  Fe  Fe42      1.0  0.43566  0.90465  0.88960  1.0000
  S   S80       1.0  0.58888  0.10716  0.80575  1.0000
  C   C186      1.0  0.54712  0.64281  0.65238  1.0000
  C   C187      1.0  0.52761  0.09960  0.66454  1.0000
  H   H303      1.0  0.28568  0.06171  0.87757  1.0000
  Fe  Fe43      1.0  0.65804  0.99242  0.74593  1.0000
  C   C188      1.0  0.48998  0.09464  0.76360  1.0000
  H   H304      1.0  0.40041  0.93967  0.75282  1.0000
  H   H305      1.0  0.34196  0.83830  0.72383  1.0000
  H   H306      1.0  0.61203  0.94762  0.83989  1.0000
  H   H307      1.0  0.54129  0.90959  0.88843  1.0000
  H   H308      1.0  0.46607  0.95114  0.66169  1.0000
  H   H309      1.0  0.33669  0.84372  0.77256  1.0000
  S   S81       1.0  0.46389  0.95980  0.86829  1.0000
  H   H310      1.0  0.60911  0.84038  0.83718  1.0000
  H   H311      1.0  0.38975  0.06068  0.76878  1.0000
  H   H312      1.0  0.45042  0.06650  0.70404  1.0000
  H   H313      1.0  0.55604  0.95560  0.83846  1.0000
  S   S82       1.0  0.43856  0.85140  0.85417  1.0000
  H   H314      1.0  0.22900  0.88743  0.76935  1.0000
  N   N22       1.0  0.28445  0.86657  0.74093  1.0000
  H   H315      1.0  0.46470  0.04850  0.81988  1.0000
  H   H316      1.0  0.43357  0.02175  0.72525  1.0000
  H   H317      1.0  0.64213  0.88272  0.84008  1.0000
  H   H318      1.0  0.34016  0.10998  0.85300  1.0000
  H   H319      1.0  0.54957  0.09935  0.68720  1.0000
  C   C189      1.0  0.61373  0.04952  0.85354  1.0000
  H   H320      1.0  0.27429  0.93532  0.81711  1.0000
  H   H321      1.0  0.54094  0.88092  0.79006  1.0000
  C   C190      1.0  0.58203  0.93632  0.82836  1.0000
  C   C191      1.0  0.56953  0.89259  0.87940  1.0000
  C   C192      1.0  0.46821  0.67820  0.66533  1.0000
  S   S83       1.0  0.21254  0.97489  0.77297  1.0000
  H   H322      1.0  0.53026  0.84991  0.82899  1.0000
  C   C193      1.0  0.25941  0.99111  0.79285  1.0000
  C   C194      1.0  0.27214  0.02982  0.78860  1.0000
  C   C195      1.0  0.30948  0.04241  0.80531  1.0000
  C   C196      1.0  0.33344  0.01658  0.82705  1.0000
  C   C197      1.0  0.51942  0.62661  0.67818  1.0000
  C   C198      1.0  0.28430  0.96504  0.81324  1.0000
  H   H323      1.0  0.25334  0.04995  0.77227  1.0000
  H   H324      1.0  0.31928  0.07228  0.80181  1.0000
  H   H325      1.0  0.26598  0.11036  0.83089  1.0000
  C   C199      1.0  0.41528  0.08271  0.76939  1.0000
  C   C200      1.0  0.41692  0.88225  0.73336  1.0000
  C   C201      1.0  0.42938  0.84441  0.74344  1.0000
  C   C202      1.0  0.43570  0.83493  0.78066  1.0000
  C   C203      1.0  0.42917  0.86314  0.80782  1.0000
  C   C204      1.0  0.41620  0.90083  0.79766  1.0000
  C   C205      1.0  0.41066  0.91052  0.76046  1.0000
  H   H326      1.0  0.43398  0.82232  0.72265  1.0000
  H   H327      1.0  0.44561  0.80569  0.78841  1.0000
  H   H328      1.0  0.40977  0.92241  0.81846  1.0000
  C   C206      1.0  0.26234  0.85792  0.70621  1.0000
  C   C207      1.0  0.58128  0.07519  0.84293  1.0000
  S   S84       1.0  0.59320  0.01888  0.74330  1.0000
  C   C208      1.0  0.31882  0.83770  0.74686  1.0000
  N   N23       1.0  0.45713  0.06440  0.76290  1.0000
  C   C209      1.0  0.60689  0.02197  0.88149  1.0000
  S   S85       1.0  0.63840  0.09687  0.70722  1.0000
  C   C210      1.0  0.54194  0.07338  0.86042  1.0000
  S   S86       1.0  0.40622  0.89410  0.68734  1.0000
  H   H329      1.0  0.50902  0.89846  0.82730  1.0000
  N   N24       1.0  0.57535  0.89516  0.83911  1.0000
  C   C211      1.0  0.45752  0.04523  0.72658  1.0000
  H   H330      1.0  0.30656  0.80747  0.74894  1.0000
  H   H331      1.0  0.23880  0.83576  0.77368  1.0000
  Fe  Fe44      1.0  0.61241  0.04014  0.68760  1.0000
  H   H332      1.0  0.32421  0.90901  0.71472  1.0000
  H   H333      1.0  0.34044  0.95716  0.84515  1.0000
  H   H334      1.0  0.56490  0.86195  0.88872  1.0000
  C   C212      1.0  0.46580  0.03510  0.79204  1.0000
  Fe  Fe45      1.0  0.62436  0.07294  0.76336  1.0000
  H   H335      1.0  0.23614  0.87920  0.70108  1.0000
  Fe  Fe46      1.0  0.40544  0.98844  0.89008  1.0000
  H   H336      1.0  0.41369  0.09698  0.79682  1.0000
  C   C213      1.0  0.32146  0.97764  0.82988  1.0000
  H   H337      1.0  0.64437  0.05116  0.84056  1.0000
  C   C214      1.0  0.25430  0.86469  0.77200  1.0000
  H   H338      1.0  0.49762  0.02143  0.78870  1.0000
  C   C215      1.0  0.61239  0.87127  0.82816  1.0000
  H   H339      1.0  0.48900  0.03191  0.72047  1.0000
  C   C216      1.0  0.53731  0.88045  0.82052  1.0000
  H   H340      1.0  0.51691  0.09346  0.85266  1.0000
  H   H341      1.0  0.27047  0.86947  0.79872  1.0000
  H   H342      1.0  0.61656  0.87121  0.79775  1.0000
  C   C217      1.0  0.30244  0.90610  0.73859  1.0000
  H   H343      1.0  0.28431  0.85938  0.68223  1.0000
  H   H344      1.0  0.58391  0.93976  0.79796  1.0000
  H   H345      1.0  0.32074  0.91311  0.76371  1.0000
  H   H346      1.0  0.27734  0.92884  0.73533  1.0000
  S   S87       1.0  0.35524  0.79474  0.65500  1.0000
  H   H347      1.0  0.44187  0.01152  0.79209  1.0000
  S   S88       1.0  0.37639  0.03394  0.85247  1.0000
  H   H348      1.0  0.49079  0.10978  0.79058  1.0000
  C   C218      1.0  0.53455  0.04475  0.88735  1.0000
  H   H349      1.0  0.52195  0.08187  0.75876  1.0000
  H   H350      1.0  0.63213  0.00226  0.88969  1.0000
  H   H351      1.0  0.59715  0.90461  0.89430  1.0000
  C   C219      1.0  0.64862  0.63243  0.87531  1.0000
  H   H352      1.0  0.52187  0.95999  0.65946  1.0000
  H   H353      1.0  0.61453  0.63953  0.87927  1.0000
  H   H354      1.0  0.40782  0.10544  0.74828  1.0000
  C   C220      1.0  0.56708  0.01908  0.89791  1.0000
  H   H355      1.0  0.50379  0.04276  0.90019  1.0000
  C   C221      1.0  0.27655  0.08356  0.89867  1.0000
  Fe  Fe47      1.0  0.40418  0.84139  0.65115  1.0000
  H   H356      1.0  0.66519  0.66916  0.72369  1.0000
  H   H357      1.0  0.66266  0.65599  0.85812  1.0000
  H   H358      1.0  0.48452  0.11716  0.74200  1.0000
  H   H359      1.0  0.35112  0.11663  0.90085  1.0000
  H   H360      1.0  0.54561  0.93599  0.08223  1.0000
  S   S89       1.0  0.34986  0.64888  0.05840  1.0000
  S   S90       1.0  0.27654  0.63796  0.12226  1.0000
  H   H361      1.0  0.46734  0.10376  0.10416  1.0000
  H   H362      1.0  0.37651  0.74005  0.09849  1.0000
  H   H363      1.0  0.63565  0.87315  0.11253  1.0000
  H   H364      1.0  0.43297  0.04390  0.12674  1.0000
  Fe  Fe48      1.0  0.28151  0.66415  0.06594  1.0000
  H   H365      1.0  0.39963  0.74328  0.05338  1.0000
  S   S91       1.0  0.25491  0.72366  0.05342  1.0000
  C   C222      1.0  0.58242  0.70886  0.10895  1.0000
  H   H366      1.0  0.35737  0.84313  0.03338  1.0000
  H   H367      1.0  0.33170  0.79851  0.02119  1.0000
  H   H368      1.0  0.43449  0.80525  0.06989  1.0000
  S   S92       1.0  0.57544  0.66563  0.08460  1.0000
  H   H369      1.0  0.29437  0.07600  0.92412  1.0000
  C   C223      1.0  0.40622  0.81247  0.08686  1.0000
  H   H370      1.0  0.41229  0.80138  0.11521  1.0000
  H   H371      1.0  0.58228  0.87296  0.09661  1.0000
  H   H372      1.0  0.32634  0.83833  0.09594  1.0000
  H   H373      1.0  0.51567  0.72032  0.11461  1.0000
  C   C224      1.0  0.37207  0.75254  0.07037  1.0000
  H   H374      1.0  0.57141  0.98118  0.09107  1.0000
  H   H375      1.0  0.64538  0.98060  0.11533  1.0000
  H   H376      1.0  0.20078  0.66714  0.08862  1.0000
  H   H377      1.0  0.66007  0.76692  0.14187  1.0000
  C   C225      1.0  0.54715  0.73046  0.12058  1.0000
  H   H378      1.0  0.33452  0.79507  0.12309  1.0000
  C   C226      1.0  0.59332  0.77858  0.14724  1.0000
  H   H379      1.0  0.55867  0.91690  0.14600  1.0000
  C   C227      1.0  0.62856  0.75684  0.13591  1.0000
  H   H380      1.0  0.34350  0.73882  0.05854  1.0000
  S   S93       1.0  0.43358  0.00088  0.94551  1.0000
  C   C228      1.0  0.59031  0.93053  0.14471  1.0000
  H   H381      1.0  0.50692  0.05731  0.14441  1.0000
  C   C229      1.0  0.33071  0.80613  0.09446  1.0000
  H   H382      1.0  0.40374  0.84480  0.08842  1.0000
  C   C230      1.0  0.45084  0.96168  0.11635  1.0000
  C   C231      1.0  0.46201  0.97697  0.08189  1.0000
  C   C232      1.0  0.43936  0.96632  0.05041  1.0000
  C   C233      1.0  0.40465  0.94155  0.05361  1.0000
  C   C234      1.0  0.39263  0.92756  0.08830  1.0000
  C   C235      1.0  0.41614  0.93702  0.11953  1.0000
  H   H383      1.0  0.48875  0.99614  0.07934  1.0000
  H   H384      1.0  0.44873  0.97726  0.02370  1.0000
  H   H385      1.0  0.36542  0.90893  0.09095  1.0000
  H   H386      1.0  0.40717  0.92540  0.14615  1.0000
  S   S94       1.0  0.55737  0.98172  0.92974  1.0000
  H   H387      1.0  0.38782  0.80320  0.01523  1.0000
  S   S95       1.0  0.46671  0.90822  0.94474  1.0000
  N   N25       1.0  0.36749  0.79548  0.07133  1.0000
  H   H388      1.0  0.58854  0.95125  0.05323  1.0000
  N   N26       1.0  0.60707  0.93007  0.10681  1.0000
  H   H389      1.0  0.65039  0.70519  0.10808  1.0000
  C   C236      1.0  0.36082  0.81072  0.03361  1.0000
  Fe  Fe49      1.0  0.40873  0.94188  0.96148  1.0000
  Fe  Fe50      1.0  0.48929  0.96633  0.92505  1.0000
  H   H390      1.0  0.19977  0.65345  0.97093  1.0000
  C   C237      1.0  0.55260  0.76528  0.13988  1.0000
  H   H391      1.0  0.30100  0.79353  0.08351  1.0000
  H   H392      1.0  0.66392  0.63363  0.90280  1.0000
  S   S96       1.0  0.37625  0.92714  0.01473  1.0000
  C   C238      1.0  0.61253  0.88920  0.09479  1.0000
  C   C239      1.0  0.62310  0.72187  0.11688  1.0000
  H   H393      1.0  0.62403  0.88753  0.06591  1.0000
  H   H394      1.0  0.17451  0.65720  0.01490  1.0000
  C   C240      1.0  0.64830  0.94987  0.10585  1.0000
  C   C241      1.0  0.45572  0.11876  0.12936  1.0000
  H   H395      1.0  0.52529  0.78190  0.14875  1.0000
  C   C242      1.0  0.57694  0.95053  0.08216  1.0000
  Fe  Fe51      1.0  0.63773  0.63533  0.07679  1.0000
  H   H396      1.0  0.66190  0.95033  0.07761  1.0000
  S   S97       1.0  0.37515  0.93248  0.90811  1.0000
  H   H397      1.0  0.24229  0.07977  0.90448  1.0000
  C   C243      1.0  0.20070  0.72436  0.06367  1.0000
  H   H398      1.0  0.49354  0.63182  0.12034  1.0000
  H   H399      1.0  0.39040  0.07164  0.14671  1.0000
  C   C244      1.0  0.18190  0.69217  0.08068  1.0000
  H   H400      1.0  0.19006  0.78144  0.04014  1.0000
  C   C245      1.0  0.17568  0.75643  0.05323  1.0000
  H   H401      1.0  0.08764  0.41602  0.34477  1.0000
  Fe  Fe52      1.0  0.86722  0.39421  0.27789  1.0000
  S   S98       1.0  0.92842  0.36198  0.26929  1.0000
  Fe  Fe53      1.0  0.81459  0.33133  0.24307  1.0000
  S   S99       1.0  0.87090  0.29333  0.23145  1.0000
  S   S100      1.0  0.74951  0.31415  0.22505  1.0000
  Fe  Fe54      1.0  0.89180  0.30983  0.28804  1.0000
  S   S101      1.0  0.92144  0.26409  0.32435  1.0000
  Fe  Fe55      1.0  0.90230  0.34853  0.21366  1.0000
  C   C246      1.0  0.89667  0.48564  0.36610  1.0000
  S   S102      1.0  0.83238  0.34315  0.30161  1.0000
  S   S103      1.0  0.84416  0.38553  0.22036  1.0000
  H   H402      1.0  0.01482  0.49818  0.31809  1.0000
  H   H403      1.0  0.92981  0.42644  0.19132  1.0000
  H   H404      1.0  0.80217  0.46896  0.36729  1.0000
  H   H405      1.0  0.93348  0.49181  0.16153  1.0000
  H   H406      1.0  0.99677  0.23091  0.35510  1.0000
  C   C247      1.0  0.73713  0.26817  0.24352  1.0000
  C   C248      1.0  0.70171  0.24838  0.23069  1.0000
  H   H407      1.0  0.82298  0.53242  0.39391  1.0000
  C   C249      1.0  0.71401  0.19659  0.27529  1.0000
  C   C250      1.0  0.75035  0.21559  0.28723  1.0000
  C   C251      1.0  0.76180  0.25147  0.27149  1.0000
  C   C252      1.0  0.88624  0.41588  0.36656  1.0000
  H   H408      1.0  0.84342  0.46346  0.17900  1.0000
  H   H409      1.0  0.76932  0.20296  0.30907  1.0000
  H   H410      1.0  0.78952  0.26630  0.28127  1.0000
  C   C253      1.0  0.95940  0.28368  0.35359  1.0000
  C   C254      1.0  0.95562  0.32210  0.36596  1.0000
  C   C255      1.0  0.76972  0.47385  0.37830  1.0000
  H   H411      1.0  0.74811  0.46294  0.16234  1.0000
  H   H412      1.0  0.87675  0.38966  0.35278  1.0000
  C   C256      1.0  0.99349  0.26044  0.36512  1.0000
  H   H413      1.0  0.92920  0.33992  0.35711  1.0000
  C   C257      1.0  0.93648  0.42892  0.16218  1.0000
  C   C258      1.0  0.07534  0.44618  0.33984  1.0000
  C   C259      1.0  0.01733  0.49153  0.34802  1.0000
  C   C260      1.0  0.00353  0.42359  0.33617  1.0000
  H   H414      1.0  0.80953  0.50459  0.16921  1.0000
  H   H415      1.0  0.75096  0.48793  0.35591  1.0000
  C   C261      1.0  0.98529  0.33686  0.39071  1.0000
  C   C262      1.0  0.88464  0.45167  0.34802  1.0000
  S   S104      1.0  0.86723  0.45412  0.30250  1.0000
  C   C263      1.0  0.02388  0.27561  0.38884  1.0000
  H   H416      1.0  0.00116  0.42972  0.30613  1.0000
  H   H417      1.0  0.77220  0.55190  0.38101  1.0000
  N   N27       1.0  0.03211  0.45103  0.35468  1.0000
  S   S105      1.0  0.94026  0.34903  0.16142  1.0000
  H   H418      1.0  0.75601  0.44464  0.38388  1.0000
  H   H419      1.0  0.98568  0.49687  0.36043  1.0000
  H   H420      1.0  0.05098  0.25801  0.39632  1.0000
  H   H421      1.0  0.01452  0.39282  0.33951  1.0000
  H   H422      1.0  0.04343  0.41246  0.40072  1.0000
  H   H423      1.0  0.03935  0.51313  0.35998  1.0000
  C   C264      1.0  0.68979  0.21290  0.24685  1.0000
  S   S106      1.0  0.10558  0.57210  0.38557  1.0000
  H   H424      1.0  0.89589  0.51335  0.35165  1.0000
  H   H425      1.0  0.97101  0.42550  0.34763  1.0000
  H   H426      1.0  0.07618  0.45182  0.30966  1.0000
  H   H427      1.0  0.77941  0.42028  0.17255  1.0000
  S   S107      1.0  0.69886  0.15258  0.29608  1.0000
  H   H428      1.0  0.09760  0.46681  0.35299  1.0000
  H   H429      1.0  0.68395  0.26015  0.20786  1.0000
  C   C265      1.0  0.03240  0.44281  0.39469  1.0000
  H   H430      1.0  0.03953  0.12758  0.39772  1.0000
  Fe  Fe56      1.0  0.15376  0.61974  0.38717  1.0000
  H   H431      1.0  0.12743  0.40564  0.15223  1.0000
  C   C266      1.0  0.82968  0.48157  0.15638  1.0000
  S   S108      1.0  0.16021  0.16012  0.40954  1.0000
  C   C267      1.0  0.92207  0.30652  0.53893  1.0000
  S   S109      1.0  0.04533  0.19357  0.55946  1.0000
  C   C268      1.0  0.03257  0.56414  0.42541  1.0000
  Fe  Fe57      1.0  0.09126  0.22145  0.52063  1.0000
  H   H432      1.0  0.05360  0.46301  0.40952  1.0000
  C   C269      1.0  0.69585  0.53808  0.55327  1.0000
  C   C270      1.0  0.81656  0.44509  0.64035  1.0000
  Fe  Fe58      1.0  0.14058  0.20510  0.45111  1.0000
  H   H433      1.0  0.94488  0.37532  0.50945  1.0000
  H   H434      1.0  0.77729  0.47959  0.52627  1.0000
  H   H435      1.0  0.92826  0.28037  0.55649  1.0000
  C   C271      1.0  0.10074  0.13231  0.56596  1.0000
  H   H436      1.0  0.84053  0.46478  0.62797  1.0000
  H   H437      1.0  0.12499  0.15389  0.56941  1.0000
  S   S110      1.0  0.07249  0.21976  0.46151  1.0000
  C   C272      1.0  0.92917  0.47225  0.63323  1.0000
  S   S111      1.0  0.92515  0.44539  0.46788  1.0000
  C   C273      1.0  0.99687  0.31852  0.53387  1.0000
  H   H438      1.0  0.91886  0.34697  0.47515  1.0000
  H   H439      1.0  0.00581  0.29132  0.54895  1.0000
  N   N28       1.0  0.95729  0.31360  0.51303  1.0000
  C   C274      1.0  0.96195  0.28005  0.48794  1.0000
  H   H440      1.0  0.73937  0.43261  0.56571  1.0000
  C   C275      1.0  0.93743  0.45206  0.60057  1.0000
  H   H441      1.0  0.98910  0.28400  0.46886  1.0000
  H   H442      1.0  0.97442  0.35583  0.47164  1.0000
  Fe  Fe59      1.0  0.09325  0.28209  0.45981  1.0000
  H   H443      1.0  0.96773  0.25236  0.50339  1.0000
  H   H444      1.0  0.94989  0.39631  0.57581  1.0000
  H   H445      1.0  0.89185  0.30197  0.52407  1.0000
  H   H446      1.0  0.02348  0.32615  0.51513  1.0000
  H   H447      1.0  0.03816  0.53308  0.42400  1.0000
  C   C276      1.0  0.94843  0.34940  0.49139  1.0000
  H   H448      1.0  0.93332  0.27633  0.47064  1.0000
  C   C277      1.0  0.94437  0.41161  0.60124  1.0000
  H   H449      1.0  0.91716  0.33167  0.55777  1.0000
  C   C278      1.0  0.67445  0.51150  0.57584  1.0000
  H   H450      1.0  0.99383  0.34233  0.55442  1.0000
  H   H451      1.0  0.99699  0.21813  0.62164  1.0000
  H   H452      1.0  0.68339  0.56735  0.54960  1.0000
  C   C279      1.0  0.05850  0.14388  0.56243  1.0000
  C   C280      1.0  0.72719  0.46201  0.56226  1.0000
  H   H453      1.0  0.97051  0.25842  0.64338  1.0000
  H   H454      1.0  0.05507  0.26252  0.60280  1.0000
  S   S112      1.0  0.05505  0.33120  0.43477  1.0000
  C   C281      1.0  0.91122  0.44792  0.42143  1.0000
  C   C282      1.0  0.06018  0.58995  0.40795  1.0000
  C   C283      1.0  0.89969  0.41395  0.40318  1.0000
  N   N29       1.0  0.77020  0.49810  0.41178  1.0000
  S   S113      1.0  0.94621  0.33998  0.63532  1.0000
  C   C284      1.0  0.99860  0.57859  0.44624  1.0000
  C   C285      1.0  0.74900  0.48884  0.54029  1.0000
  S   S114      1.0  0.10624  0.28505  0.52034  1.0000
  H   H455      1.0  0.15425  0.12650  0.48328  1.0000
  H   H456      1.0  0.78980  0.55539  0.42782  1.0000
  H   H457      1.0  0.83328  0.41761  0.64839  1.0000
  H   H458      1.0  0.69335  0.60990  0.60961  1.0000
  Fe  Fe60      1.0  0.83290  0.55216  0.51840  1.0000
  S   S115      1.0  0.76308  0.56221  0.51222  1.0000
  S   S116      1.0  0.87254  0.59204  0.55230  1.0000
  H   H459      1.0  0.97751  0.55847  0.45951  1.0000
  H   H460      1.0  0.92088  0.50980  0.41622  1.0000
  Fe  Fe61      1.0  0.90746  0.50049  0.49734  1.0000
  H   H461      1.0  0.93809  0.46740  0.57462  1.0000
  Fe  Fe62      1.0  0.90306  0.53673  0.57285  1.0000
  H   H462      1.0  0.08193  0.29058  0.63680  1.0000
  S   S117      1.0  0.85970  0.49727  0.54265  1.0000
  C   C286      1.0  0.69063  0.47372  0.58093  1.0000
  S   S118      1.0  0.87646  0.55201  0.46995  1.0000
  C   C287      1.0  0.73397  0.52721  0.53654  1.0000
  H   H463      1.0  0.71086  0.47641  0.43188  1.0000
  H   H464      1.0  0.15854  0.54704  0.50724  1.0000
  Fe  Fe63      1.0  0.91914  0.58676  0.50580  1.0000
  S   S119      1.0  0.91449  0.52170  0.63200  1.0000
  H   H465      1.0  0.79743  0.49631  0.46577  1.0000
  S   S120      1.0  0.15990  0.26739  0.44364  1.0000
  S   S121      1.0  0.95369  0.53509  0.52982  1.0000
  C   C288      1.0  0.01944  0.31356  0.40216  1.0000
  H   H466      1.0  0.90036  0.38617  0.41746  1.0000
  H   H467      1.0  0.00029  0.44612  0.40693  1.0000
  H   H468      1.0  0.78069  0.44980  0.44893  1.0000
  H   H469      1.0  0.16828  0.49634  0.45903  1.0000
  H   H470      1.0  0.98137  0.36606  0.40128  1.0000
  C   C289      1.0  0.79506  0.47803  0.44073  1.0000
  H   H471      1.0  0.72578  0.52261  0.45033  1.0000
  H   H472      1.0  0.79356  0.43793  0.61838  1.0000
  C   C290      1.0  0.94241  0.39113  0.63455  1.0000
  H   H473      1.0  0.99437  0.12456  0.55656  1.0000
  C   C291      1.0  0.72647  0.50448  0.42501  1.0000
  H   H474      1.0  0.75102  0.49573  0.63892  1.0000
  H   H475      1.0  0.82782  0.47169  0.43133  1.0000
  S   S122      1.0  0.15811  0.20191  0.51067  1.0000
  H   H476      1.0  0.79919  0.52089  0.64853  1.0000
  C   C292      1.0  0.05092  0.27783  0.62947  1.0000
  H   H477      1.0  0.02621  0.12676  0.48091  1.0000
  C   C293      1.0  0.91034  0.48371  0.40273  1.0000
  H   H478      1.0  0.70679  0.51979  0.40396  1.0000
  C   C294      1.0  0.78963  0.53613  0.40321  1.0000
  H   H479      1.0  0.07071  0.20158  0.63766  1.0000
  H   H480      1.0  0.02825  0.30244  0.62496  1.0000
  H   H481      1.0  0.78150  0.61710  0.64514  1.0000
  H   H482      1.0  0.07929  0.13221  0.43235  1.0000
  C   C295      1.0  0.99451  0.23488  0.64766  1.0000
  H   H483      1.0  0.74306  0.61322  0.58562  1.0000
  C   C296      1.0  0.99275  0.61885  0.45050  1.0000
  H   H484      1.0  0.98515  0.12159  0.44736  1.0000
  C   C297      1.0  0.76606  0.13555  0.70064  1.0000
  Fe  Fe64      1.0  0.87880  0.35913  0.75654  1.0000
  S   S123      1.0  0.94306  0.33616  0.74197  1.0000
  Fe  Fe65      1.0  0.83454  0.29033  0.72238  1.0000
  S   S124      1.0  0.89536  0.26175  0.70411  1.0000
  C   C298      1.0  0.93522  0.41155  0.66724  1.0000
  Fe  Fe66      1.0  0.91830  0.27846  0.76037  1.0000
  S   S125      1.0  0.96142  0.24556  0.79879  1.0000
  Fe  Fe67      1.0  0.91410  0.32225  0.68775  1.0000
  H   H485      1.0  0.05896  0.47504  0.85308  1.0000
  S   S126      1.0  0.85602  0.30247  0.77992  1.0000
  S   S127      1.0  0.85140  0.34955  0.70084  1.0000
  C   C299      1.0  0.92174  0.37781  0.83480  1.0000
  C   C300      1.0  0.94411  0.37415  0.86779  1.0000
  H   H486      1.0  0.70604  0.55747  0.83919  1.0000
  H   H487      1.0  0.87165  0.53956  0.84951  1.0000
  C   C301      1.0  0.02462  0.27832  0.87668  1.0000
  C   C302      1.0  0.76898  0.21715  0.70566  1.0000
  H   H488      1.0  0.93394  0.39636  0.69314  1.0000
  C   C303      1.0  0.73200  0.15839  0.68827  1.0000
  C   C304      1.0  0.73360  0.19916  0.69052  1.0000
  C   C305      1.0  0.80180  0.15357  0.71506  1.0000
  C   C306      1.0  0.80308  0.19433  0.71793  1.0000
  C   C307      1.0  0.87945  0.59884  0.77448  1.0000
  H   H489      1.0  0.69317  0.19744  0.80604  1.0000
  H   H490      1.0  0.08003  0.15460  0.78863  1.0000
  H   H491      1.0  0.83019  0.20796  0.73015  1.0000
  C   C308      1.0  0.98899  0.20701  0.77809  1.0000
  C   C309      1.0  0.97414  0.18983  0.74588  1.0000
  C   C310      1.0  0.99761  0.15991  0.72903  1.0000
  H   H492      1.0  0.03878  0.20709  0.81841  1.0000
  H   H493      1.0  0.67689  0.26466  0.78411  1.0000
  C   C311      1.0  0.02697  0.19395  0.79366  1.0000
  H   H494      1.0  0.94424  0.19901  0.73437  1.0000
  H   H495      1.0  0.85112  0.49199  0.69134  1.0000
  C   C312      1.0  0.70028  0.58547  0.85380  1.0000
  H   H496      1.0  0.01916  0.25326  0.71588  1.0000
  H   H497      1.0  0.94204  0.57024  0.84573  1.0000
  H   H498      1.0  0.83612  0.54212  0.81096  1.0000
  C   C313      1.0  0.05033  0.16413  0.77689  1.0000
  H   H499      1.0  0.73184  0.61222  0.66874  1.0000
  H   H500      1.0  0.96222  0.34803  0.87330  1.0000
  H   H501      1.0  0.04473  0.25876  0.85959  1.0000
  H   H502      1.0  0.82813  0.13597  0.72475  1.0000
  N   N30       1.0  0.03577  0.25095  0.65849  1.0000
  H   H503      1.0  0.74574  0.45033  0.71076  1.0000
  H   H504      1.0  0.98597  0.14634  0.70433  1.0000
  H   H505      1.0  0.09831  0.22971  0.67132  1.0000
  C   C314      1.0  0.06671  0.21871  0.66340  1.0000
  H   H506      1.0  0.04768  0.37757  0.89630  1.0000
  N   N31       1.0  0.08713  0.42534  0.88020  1.0000
  H   H507      1.0  0.84408  0.58403  0.83947  1.0000
  C   C315      1.0  0.13392  0.17473  0.86435  1.0000
  H   H508      1.0  0.75977  0.51561  0.68396  1.0000
  S   S128      1.0  0.87207  0.41675  0.78497  1.0000
  H   H509      1.0  0.71624  0.58304  0.88093  1.0000
  H   H510      1.0  0.92212  0.35399  0.81563  1.0000
  C   C316      1.0  0.89806  0.44235  0.85239  1.0000
  C   C317      1.0  0.89894  0.41201  0.82688  1.0000
  C   C318      1.0  0.03570  0.14712  0.74465  1.0000
  C   C319      1.0  0.92773  0.59062  0.82519  1.0000
  H   H511      1.0  0.05329  0.42964  0.82905  1.0000
  H   H512      1.0  0.08096  0.36805  0.85715  1.0000
  H   H513      1.0  0.95363  0.60271  0.80794  1.0000
  H   H514      1.0  0.90540  0.60942  0.75635  1.0000
  H   H515      1.0  0.84342  0.44393  0.71003  1.0000
  C   C320      1.0  0.94317  0.40428  0.89336  1.0000
  C   C321      1.0  0.69009  0.61256  0.73803  1.0000
  H   H516      1.0  0.12023  0.22978  0.83759  1.0000
  S   S129      1.0  0.76963  0.26808  0.70971  1.0000
  C   C322      1.0  0.12904  0.43133  0.86317  1.0000
  H   H517      1.0  0.12534  0.15749  0.84080  1.0000
  H   H518      1.0  0.87978  0.46846  0.84669  1.0000
  H   H519      1.0  0.06135  0.28487  0.70258  1.0000
  H   H520      1.0  0.73855  0.43034  0.66567  1.0000
  C   C323      1.0  0.92927  0.45205  0.66668  1.0000
  H   H521      1.0  0.04503  0.30254  0.88580  1.0000
  H   H522      1.0  0.13711  0.46286  0.86165  1.0000
  C   C324      1.0  0.67453  0.18632  0.78251  1.0000
  H   H523      1.0  0.70760  0.21676  0.68022  1.0000
  H   H524      1.0  0.99965  0.29061  0.85834  1.0000
  C   C325      1.0  0.13120  0.21562  0.86255  1.0000
  H   H525      1.0  0.94117  0.54505  0.76625  1.0000
  H   H526      1.0  0.70493  0.14469  0.67606  1.0000
  H   H527      1.0  0.92368  0.46745  0.69212  1.0000
  H   H528      1.0  0.91378  0.61541  0.84093  1.0000
  H   H529      1.0  0.05657  0.19799  0.68526  1.0000
  H   H530      1.0  0.02205  0.43942  0.86926  1.0000
  H   H531      1.0  0.81155  0.48384  0.72618  1.0000
  H   H532      1.0  0.89094  0.52107  0.76752  1.0000
  H   H533      1.0  0.98195  0.21481  0.66909  1.0000
  H   H534      1.0  0.68055  0.24868  0.73750  1.0000
  H   H535      1.0  0.92681  0.51523  0.80518  1.0000
  N   N32       1.0  0.89546  0.57116  0.80267  1.0000
  C   C326      1.0  0.14350  0.23813  0.89266  1.0000
  C   C327      1.0  0.91449  0.53667  0.78456  1.0000
  C   C328      1.0  0.86021  0.55860  0.82657  1.0000
  H   H536      1.0  0.77670  0.40889  0.69647  1.0000
  C   C329      1.0  0.05395  0.44316  0.85677  1.0000
  H   H537      1.0  0.85524  0.58525  0.75671  1.0000
  S   S130      1.0  0.71841  0.54078  0.75946  1.0000
  S   S131      1.0  0.13898  0.28921  0.89045  1.0000
  C   C330      1.0  0.72261  0.59149  0.75509  1.0000
  H   H538      1.0  0.95100  0.23962  0.87867  1.0000
  C   C331      1.0  0.14807  0.15627  0.89651  1.0000
  C   C332      1.0  0.92009  0.43846  0.88569  1.0000
  C   C333      1.0  0.82674  0.47121  0.70121  1.0000
  C   C334      1.0  0.03086  0.27249  0.69336  1.0000
  H   H539      1.0  0.00781  0.29709  0.69036  1.0000
  H   H540      1.0  0.78259  0.59506  0.78252  1.0000
  H   H541      1.0  0.13059  0.41925  0.83488  1.0000
  N   N33       1.0  0.79535  0.46346  0.67222  1.0000
  H   H542      1.0  0.15444  0.41672  0.87950  1.0000
  H   H543      1.0  0.69698  0.18135  0.75937  1.0000
  H   H544      1.0  0.99438  0.20594  0.87633  1.0000
  C   C335      1.0  0.76264  0.43708  0.68691  1.0000
  C   C336      1.0  0.97759  0.22671  0.89489  1.0000
  C   C337      1.0  0.07934  0.38311  0.88415  1.0000
  C   C338      1.0  0.75753  0.61121  0.76901  1.0000
  C   C339      1.0  0.77541  0.50063  0.66039  1.0000
  H   H545      1.0  0.71615  0.60892  0.83783  1.0000
  H   H546      1.0  0.84555  0.40714  0.13767  1.0000
  H   H547      1.0  0.86022  0.43862  0.10036  1.0000
  H   H548      1.0  0.11098  0.45962  0.04675  1.0000
  H   H549      1.0  0.11211  0.43298  0.93470  1.0000
  C   C340      1.0  0.82371  0.61309  0.91129  1.0000
  H   H550      1.0  0.96916  0.27023  0.95659  1.0000
  Fe  Fe68      1.0  0.68430  0.56001  0.09313  1.0000
  N   N34       1.0  0.11157  0.43386  0.10096  1.0000
  C   C341      1.0  0.94650  0.46897  0.10753  1.0000
  H   H551      1.0  0.95889  0.43751  0.05748  1.0000
  H   H552      1.0  0.12625  0.48909  0.12516  1.0000
  C   C342      1.0  0.95357  0.43536  0.08677  1.0000
  H   H553      1.0  0.14310  0.41617  0.05119  1.0000
  H   H554      1.0  0.08999  0.47598  0.91449  1.0000
  C   C343      1.0  0.95261  0.39861  0.10376  1.0000
  H   H555      1.0  0.84151  0.61412  0.07816  1.0000
  S   S132      1.0  0.97230  0.39951  0.93410  1.0000
  C   C344      1.0  0.93853  0.46580  0.14534  1.0000
  H   H556      1.0  0.12662  0.61251  0.93297  1.0000
  H   H557      1.0  0.05747  0.40203  0.12031  1.0000
  H   H558      1.0  0.10309  0.36882  0.90239  1.0000
  H   H559      1.0  0.76971  0.50715  0.11070  1.0000
  H   H560      1.0  0.81518  0.40755  0.09605  1.0000
  Fe  Fe69      1.0  0.69896  0.60237  0.02124  1.0000
  C   C345      1.0  0.14153  0.41220  0.12486  1.0000
  H   H561      1.0  0.15114  0.38390  0.11237  1.0000
  C   C346      1.0  0.76894  0.44014  0.14996  1.0000
  H   H562      1.0  0.95775  0.37258  0.08759  1.0000
  C   C347      1.0  0.85075  0.61293  0.04861  1.0000
  H   H563      1.0  0.16090  0.46135  0.06983  1.0000
  H   H564      1.0  0.91859  0.46171  0.90554  1.0000
  H   H565      1.0  0.02820  0.22369  0.95496  1.0000
  C   C348      1.0  0.15927  0.17876  0.92691  1.0000
  C   C349      1.0  0.78962  0.48272  0.10008  1.0000
  C   C350      1.0  0.98223  0.28488  0.93171  1.0000
  C   C351      1.0  0.09847  0.47042  0.11924  1.0000
  C   C352      1.0  0.07398  0.40973  0.09417  1.0000
  H   H566      1.0  0.16588  0.23673  0.94853  1.0000
  C   C353      1.0  0.13244  0.44313  0.06558  1.0000
  C   C354      1.0  0.76442  0.59567  0.95019  1.0000
  S   S133      1.0  0.94586  0.51483  0.08609  1.0000
  N   N35       1.0  0.00624  0.25721  0.90837  1.0000
  Fe  Fe70      1.0  0.94211  0.54117  0.95183  1.0000
  S   S134      1.0  0.98420  0.56354  0.99629  1.0000
  S   S135      1.0  0.91822  0.49004  0.98416  1.0000
  C   C355      1.0  0.78110  0.61735  0.92095  1.0000
  S   S136      1.0  0.71048  0.59965  0.96045  1.0000
  H   H567      1.0  0.74899  0.42292  0.13098  1.0000
  H   H568      1.0  0.08212  0.46455  0.14580  1.0000
  C   C356      1.0  0.10587  0.54660  0.03667  1.0000
  H   H569      1.0  0.09180  0.61899  0.99410  1.0000
  H   H570      1.0  0.81616  0.49571  0.08418  1.0000
  H   H571      1.0  0.76974  0.46608  0.08059  1.0000
  Fe  Fe71      1.0  0.96435  0.50962  0.02676  1.0000
  C   C357      1.0  0.84968  0.58677  0.93046  1.0000
  C   C358      1.0  0.83318  0.56547  0.96006  1.0000
  C   C359      1.0  0.79057  0.57002  0.97002  1.0000
  H   H572      1.0  0.05062  0.42537  0.07642  1.0000
  C   C360      1.0  0.04060  0.23891  0.93014  1.0000
  H   H573      1.0  0.77763  0.55275  0.99224  1.0000
  C   C361      1.0  0.12749  0.53947  0.00370  1.0000
  C   C362      1.0  0.12844  0.54945  0.06971  1.0000
  S   S137      1.0  0.90260  0.58133  0.91690  1.0000
  H   H574      1.0  0.11212  0.55692  0.09493  1.0000
  S   S138      1.0  0.10058  0.53970  0.96181  1.0000
  H   H575      1.0  0.85299  0.54528  0.97511  1.0000
  S   S139      1.0  0.74335  0.57930  0.06433  1.0000
  C   C363      1.0  0.83268  0.42638  0.11545  1.0000
  H   H576      1.0  0.17099  0.42907  0.12935  1.0000
  H   H577      1.0  0.96367  0.20965  0.91795  1.0000
  C   C364      1.0  0.94354  0.39534  0.14133  1.0000
  H   H578      1.0  0.05845  0.21698  0.91363  1.0000
  Fe  Fe72      1.0  0.03341  0.52463  0.97166  1.0000
  N   N36       1.0  0.80524  0.45765  0.13048  1.0000
  Fe  Fe73      1.0  0.97389  0.45828  0.96019  1.0000
  H   H579      1.0  0.07625  0.48777  0.10173  1.0000
  H   H580      1.0  0.00237  0.30929  0.94118  1.0000
  H   H581      1.0  0.07205  0.55141  0.03656  1.0000
  S   S140      1.0  0.01806  0.47246  0.00608  1.0000
  S   S141      1.0  0.99383  0.50767  0.92392  1.0000
  H   H582      1.0  0.16967  0.16462  0.95205  1.0000
  C   C365      1.0  0.08612  0.44386  0.91679  1.0000
  H   H583      1.0  0.85786  0.58191  0.04194  1.0000
  C   C366      1.0  0.17116  0.53364  0.00393  1.0000
  H   H584      1.0  0.16986  0.61342  0.98893  1.0000
  H   H585      1.0  0.06376  0.26099  0.93947  1.0000
  C   C367      1.0  0.15741  0.21961  0.92487  1.0000
  H   H586      1.0  0.08275  0.38195  0.08024  1.0000
  H   H587      1.0  0.05582  0.43827  0.93135  1.0000
  H   H588      1.0  0.95504  0.29810  0.91659  1.0000
  S   S142      1.0  0.67945  0.50349  0.12438  1.0000
  H   H589      1.0  0.85624  0.49647  0.14213  1.0000
  H   H590      1.0  0.93228  0.59420  0.05811  1.0000
  S   S143      1.0  0.17063  0.37293  0.95664  1.0000
  H   H591      1.0  0.90527  0.60487  0.99345  1.0000
  S   S144      1.0  0.67638  0.61528  0.12499  1.0000
  C   C368      1.0  0.77456  0.69843  0.15273  1.0000
  C   C369      1.0  0.79739  0.74181  0.20132  1.0000
  H   H592      1.0  0.82235  0.75726  0.21510  1.0000
  H   H593      1.0  0.69214  0.72414  0.20801  1.0000
  S   S145      1.0  0.74420  0.77086  0.25460  1.0000
  H   H594      1.0  0.00424  0.88116  0.37239  1.0000
  C   C370      1.0  0.73323  0.70088  0.16615  1.0000
  S   S146      1.0  0.14279  0.76576  0.37816  1.0000
  H   H595      1.0  0.03752  0.80087  0.34815  1.0000
  C   C371      1.0  0.75613  0.74346  0.21521  1.0000
  C   C372      1.0  0.72413  0.72283  0.19764  1.0000
  C   C373      1.0  0.93924  0.94988  0.39392  1.0000
  H   H596      1.0  0.01202  0.90543  0.32915  1.0000
  H   H597      1.0  0.68444  0.90791  0.22293  1.0000
  H   H598      1.0  0.69823  0.06297  0.26004  1.0000
  H   H599      1.0  0.75258  0.98767  0.25315  1.0000
  Fe  Fe74      1.0  0.78094  0.82635  0.25579  1.0000
  S   S147      1.0  0.80961  0.84900  0.20372  1.0000
  H   H600      1.0  0.70379  0.01852  0.16999  1.0000
  Fe  Fe75      1.0  0.80699  0.89717  0.29968  1.0000
  S   S148      1.0  0.83724  0.92605  0.25099  1.0000
  S   S149      1.0  0.80528  0.92481  0.35538  1.0000
  Fe  Fe76      1.0  0.78043  0.90606  0.21998  1.0000
  S   S150      1.0  0.74822  0.94572  0.17900  1.0000
  Fe  Fe77      1.0  0.86322  0.86627  0.24004  1.0000
  S   S151      1.0  0.74764  0.88235  0.26988  1.0000
  C   C374      1.0  0.88901  0.94072  0.34457  1.0000
  H   H601      1.0  0.04851  0.83430  0.28833  1.0000
  H   H602      1.0  0.99044  0.81043  0.37443  1.0000
  H   H603      1.0  0.74528  0.98583  0.32042  1.0000
  H   H604      1.0  0.88240  0.93952  0.31556  1.0000
  H   H605      1.0  0.76005  0.03305  0.22926  1.0000
  N   N37       1.0  0.99611  0.84478  0.32498  1.0000
  C   C375      1.0  0.93004  0.94875  0.35636  1.0000
  H   H606      1.0  0.95468  0.95385  0.33630  1.0000
  C   C376      1.0  0.01399  0.84068  0.28756  1.0000
  H   H607      1.0  0.80871  0.07210  0.29226  1.0000
  H   H608      1.0  0.98474  0.82254  0.16861  1.0000
  H   H609      1.0  0.05163  0.87226  0.34635  1.0000
  C   C377      1.0  0.85668  0.93498  0.37025  1.0000
  H   H610      1.0  0.79566  0.00856  0.32434  1.0000
  H   H611      1.0  0.83886  0.71634  0.16062  1.0000
  C   C378      1.0  0.69932  0.96200  0.19584  1.0000
  C   C379      1.0  0.76743  0.01685  0.25515  1.0000
  S   S152      1.0  0.83714  0.83849  0.29103  1.0000
  C   C380      1.0  0.70610  0.04505  0.28482  1.0000
  H   H612      1.0  0.07256  0.65021  0.39523  1.0000
  H   H613      1.0  0.98758  0.78310  0.33248  1.0000
  H   H614      1.0  0.75027  0.02977  0.34661  1.0000
  S   S153      1.0  0.93043  0.85419  0.22465  1.0000
  H   H615      1.0  0.00898  0.86774  0.27091  1.0000
  H   H616      1.0  0.93562  0.85724  0.34992  1.0000
  C   C381      1.0  0.00321  0.80819  0.34594  1.0000
  H   H617      1.0  0.68856  0.01718  0.28273  1.0000
  N   N38       1.0  0.75214  0.03813  0.28788  1.0000
  C   C382      1.0  0.93597  0.86569  0.17796  1.0000
  H   H618      1.0  0.99854  0.81668  0.27226  1.0000
  H   H619      1.0  0.08855  0.83147  0.39416  1.0000
  H   H620      1.0  0.80222  0.01200  0.25605  1.0000
  C   C383      1.0  0.01696  0.87728  0.34403  1.0000
  C   C384      1.0  0.76119  0.01464  0.32127  1.0000
  H   H621      1.0  0.88770  0.91053  0.17857  1.0000
  C   C385      1.0  0.80669  0.71880  0.17045  1.0000
  C   C386      1.0  0.77386  0.07599  0.29031  1.0000
  H   H622      1.0  0.69362  0.06125  0.30905  1.0000
  H   H623      1.0  0.93346  0.82886  0.30840  1.0000
  C   C387      1.0  0.67484  0.93779  0.21819  1.0000
  H   H624      1.0  0.70815  0.68586  0.15238  1.0000
  H   H625      1.0  0.76320  0.09272  0.31488  1.0000
  H   H626      1.0  0.94380  0.87988  0.30580  1.0000
  C   C388      1.0  0.95026  0.85300  0.32232  1.0000
  C   C389      1.0  0.68517  0.99985  0.18769  1.0000
  H   H627      1.0  0.76702  0.09481  0.26587  1.0000
  H   H628      1.0  0.99225  0.07116  0.39834  1.0000
  H   H629      1.0  0.08469  0.09534  0.39788  1.0000
  H   H630      1.0  0.03599  0.03733  0.39987  1.0000
  H   H631      1.0  0.67366  0.77738  0.31904  1.0000
  C   C390      1.0  0.90982  0.89416  0.16183  1.0000
  H   H632      1.0  0.68745  0.82010  0.29357  1.0000
  C   C391      1.0  0.96462  0.84469  0.15622  1.0000
  Fe  Fe78      1.0  0.17088  0.70596  0.38732  1.0000
  S   S154      1.0  0.16992  0.66194  0.34179  1.0000
  S   S155      1.0  0.95375  0.63698  0.48053  1.0000
  H   H633      1.0  0.77603  0.70469  0.63212  1.0000
  H   H634      1.0  0.93081  0.76379  0.50973  1.0000
  C   C392      1.0  0.88694  0.83864  0.64022  1.0000
  C   C393      1.0  0.01459  0.05568  0.41713  1.0000
  H   H635      1.0  0.00749  0.71080  0.49352  1.0000
  C   C394      1.0  0.98653  0.70154  0.56467  1.0000
  H   H636      1.0  0.84925  0.95866  0.64172  1.0000
  C   C395      1.0  0.13452  0.76666  0.45314  1.0000
  H   H637      1.0  0.70110  0.64731  0.57573  1.0000
  H   H638      1.0  0.12665  0.76654  0.51199  1.0000
  N   N39       1.0  0.73278  0.65698  0.62713  1.0000
  S   S156      1.0  0.87706  0.76159  0.62290  1.0000
  H   H639      1.0  0.91288  0.73636  0.54912  1.0000
  C   C396      1.0  0.11790  0.78059  0.48632  1.0000
  C   C397      1.0  0.01116  0.73693  0.51124  1.0000
  H   H640      1.0  0.96350  0.70061  0.58790  1.0000
  C   C398      1.0  0.98623  0.77197  0.56462  1.0000
  N   N40       1.0  0.98025  0.73694  0.54180  1.0000
  H   H641      1.0  0.01890  0.77318  0.57576  1.0000
  H   H642      1.0  0.98601  0.04946  0.62143  1.0000
  C   C399      1.0  0.06145  0.11073  0.41588  1.0000
  H   H643      1.0  0.98095  0.79926  0.54840  1.0000
  S   S157      1.0  0.99139  0.95763  0.40786  1.0000
  H   H644      1.0  0.96394  0.77251  0.58836  1.0000
  C   C400      1.0  0.01919  0.64463  0.43165  1.0000
  H   H645      1.0  0.04420  0.73679  0.52164  1.0000
  H   H646      1.0  0.04644  0.96104  0.65080  1.0000
  H   H647      1.0  0.00741  0.76333  0.49350  1.0000
  C   C401      1.0  0.93694  0.73723  0.52671  1.0000
  H   H648      1.0  0.01889  0.70027  0.57650  1.0000
  H   H649      1.0  0.98214  0.67457  0.54822  1.0000
  C   C402      1.0  0.69687  0.67895  0.64324  1.0000
  H   H650      1.0  0.73322  0.96634  0.62716  1.0000
  C   C403      1.0  0.07974  0.83114  0.45303  1.0000
  Fe  Fe79      1.0  0.96410  0.93725  0.54415  1.0000
  S   S158      1.0  0.97338  0.89498  0.49784  1.0000
  H   H651      1.0  0.84066  0.93289  0.42787  1.0000
  Fe  Fe80      1.0  0.04884  0.97453  0.53419  1.0000
  S   S159      1.0  0.06676  0.93608  0.48708  1.0000
  S   S160      1.0  0.09615  0.01532  0.55777  1.0000
  Fe  Fe81      1.0  0.00034  0.94663  0.46813  1.0000
  Fe  Fe82      1.0  0.03857  0.88790  0.52049  1.0000
  H   H652      1.0  0.14091  0.88052  0.49221  1.0000
  S   S161      1.0  0.98469  0.98996  0.51232  1.0000
  S   S162      1.0  0.02713  0.92527  0.56957  1.0000
  H   H653      1.0  0.01157  0.00562  0.60569  1.0000
  H   H654      1.0  0.88445  0.80240  0.55349  1.0000
  C   C404      1.0  0.08079  0.06450  0.56054  1.0000
  S   S163      1.0  0.14973  0.66456  0.43169  1.0000
  C   C405      1.0  0.89959  0.88963  0.59521  1.0000
  C   C406      1.0  0.00910  0.10518  0.46385  1.0000
  C   C407      1.0  0.99412  0.01885  0.62922  1.0000
  C   C408      1.0  0.03835  0.07598  0.55762  1.0000
  H   H655      1.0  0.09329  0.04571  0.44592  1.0000
  C   C409      1.0  0.88796  0.82317  0.57542  1.0000
  C   C410      1.0  0.86561  0.93723  0.40789  1.0000
  H   H656      1.0  0.01419  0.05445  0.55407  1.0000
  S   S164      1.0  0.91136  0.93828  0.58497  1.0000
  H   H657      1.0  0.99194  0.08536  0.48296  1.0000
  S   S165      1.0  0.06989  0.82968  0.52802  1.0000
  H   H658      1.0  0.05337  0.03882  0.48027  1.0000
  H   H659      1.0  0.67986  0.69664  0.62209  1.0000
  C   C411      1.0  0.89457  0.87785  0.63180  1.0000
  C   C412      1.0  0.09659  0.81720  0.41981  1.0000
  H   H660      1.0  0.91385  0.94542  0.44886  1.0000
  C   C413      1.0  0.89597  0.86236  0.56699  1.0000
  C   C414      1.0  0.76333  0.68460  0.61094  1.0000
  C   C415      1.0  0.06916  0.06118  0.46295  1.0000
  C   C416      1.0  0.16661  0.10482  0.46472  1.0000
  H   H661      1.0  0.14459  0.08390  0.56820  1.0000
  H   H662      1.0  0.15611  0.74222  0.45341  1.0000
  C   C417      1.0  0.88417  0.81109  0.61210  1.0000
  C   C418      1.0  0.90702  0.94423  0.41977  1.0000
  H   H663      1.0  0.99567  0.03546  0.43448  1.0000
  C   C419      1.0  0.16912  0.92534  0.54684  1.0000
  H   H664      1.0  0.13456  0.92008  0.54894  1.0000
  C   C420      1.0  0.09028  0.81263  0.48626  1.0000
  H   H665      1.0  0.05449  0.06887  0.64900  1.0000
  H   H666      1.0  0.82004  0.93037  0.60937  1.0000
  C   C421      1.0  0.81731  0.95429  0.62984  1.0000
  H   H667      1.0  0.01419  0.67575  0.43391  1.0000
  H   H668      1.0  0.05844  0.85601  0.45285  1.0000
  C   C422      1.0  0.12354  0.78455  0.41981  1.0000
  H   H669      1.0  0.89855  0.87160  0.53860  1.0000
  C   C423      1.0  0.17078  0.11323  0.42717  1.0000
  H   H670      1.0  0.79077  0.66901  0.59834  1.0000
  H   H671      1.0  0.93152  0.71147  0.50894  1.0000
  C   C424      1.0  0.71700  0.63069  0.59828  1.0000
  H   H672      1.0  0.08621  0.08079  0.48194  1.0000
  C   C425      1.0  0.11179  0.09267  0.56548  1.0000
  H   H673      1.0  0.96399  0.00263  0.63242  1.0000
  H   H674      1.0  0.80867  0.98143  0.61451  1.0000
  H   H675      1.0  0.74844  0.70294  0.58906  1.0000
  H   H676      1.0  0.07893  0.02392  0.63480  1.0000
  H   H677      1.0  0.74507  0.91525  0.62159  1.0000
  C   C426      1.0  0.02713  0.11566  0.55920  1.0000
  C   C427      1.0  0.05257  0.63016  0.41007  1.0000
  C   C428      1.0  0.74422  0.93948  0.64182  1.0000
  N   N41       1.0  0.03857  0.08317  0.43994  1.0000
  H   H678      1.0  0.15007  0.85009  0.55453  1.0000
  Fe  Fe83      1.0  0.79476  0.74216  0.73872  1.0000
  C   C429      1.0  0.07215  0.91636  0.85675  1.0000
  C   C430      1.0  0.75968  0.65201  0.76554  1.0000
  C   C431      1.0  0.87947  0.70082  0.85418  1.0000
  Fe  Fe84      1.0  0.88490  0.72739  0.75951  1.0000
  S   S166      1.0  0.83288  0.76132  0.78682  1.0000
  C   C432      1.0  0.72614  0.67284  0.74931  1.0000
  H   H679      1.0  0.90771  0.78203  0.85864  1.0000
  S   S167      1.0  0.84491  0.70378  0.71405  1.0000
  H   H680      1.0  0.98684  0.70139  0.85378  1.0000
  S   S168      1.0  0.06517  0.10974  0.72427  1.0000
  C   C433      1.0  0.69114  0.65311  0.73621  1.0000
  Fe  Fe85      1.0  0.86332  0.75798  0.68333  1.0000
  H   H681      1.0  0.78674  0.66742  0.77595  1.0000
  C   C434      1.0  0.03663  0.93678  0.86954  1.0000
  H   H682      1.0  0.96523  0.02202  0.69865  1.0000
  S   S169      1.0  0.93008  0.69133  0.79332  1.0000
  H   H683      1.0  0.85295  0.69604  0.83616  1.0000
  H   H684      1.0  0.98596  0.78107  0.86521  1.0000
  C   C435      1.0  0.95487  0.70348  0.86424  1.0000
  C   C436      1.0  0.92074  0.69871  0.84040  1.0000
  S   S170      1.0  0.72808  0.72315  0.74290  1.0000
  H   H685      1.0  0.98973  0.06769  0.68724  1.0000
  C   C437      1.0  0.79900  0.90902  0.67837  1.0000
  S   S171      1.0  0.90858  0.77805  0.72629  1.0000
  H   H686      1.0  0.90547  0.82358  0.88822  1.0000
  H   H687      1.0  0.98375  0.82361  0.89338  1.0000
  H   H688      1.0  0.92238  0.88411  0.82661  1.0000
  C   C438      1.0  0.05991  0.03779  0.65700  1.0000
  S   S172      1.0  0.68774  0.04454  0.77134  1.0000
  S   S173      1.0  0.06666  0.07728  0.82687  1.0000
  H   H689      1.0  0.86498  0.62520  0.78741  1.0000
  Fe  Fe86      1.0  0.09545  0.07600  0.77043  1.0000
  S   S174      1.0  0.16238  0.08015  0.79060  1.0000
  C   C439      1.0  0.72711  0.87512  0.77080  1.0000
  Fe  Fe87      1.0  0.85259  0.81007  0.74965  1.0000
  S   S175      1.0  0.85452  0.87185  0.76935  1.0000
  C   C440      1.0  0.08520  0.88190  0.87460  1.0000
  H   H690      1.0  0.92681  0.82663  0.78754  1.0000
  H   H691      1.0  0.80294  0.88408  0.65916  1.0000
  H   H692      1.0  0.98307  0.82443  0.79186  1.0000
  S   S176      1.0  0.09523  0.01090  0.76588  1.0000
  H   H693      1.0  0.77509  0.90043  0.69932  1.0000
  C   C441      1.0  0.71803  0.91510  0.77094  1.0000
  H   H694      1.0  0.07972  0.03775  0.68226  1.0000
  H   H695      1.0  0.95200  0.78236  0.80339  1.0000
  H   H696      1.0  0.67330  0.65897  0.65582  1.0000
  C   C442      1.0  0.94895  0.87175  0.84324  1.0000
  C   C443      1.0  0.95297  0.81483  0.80473  1.0000
  S   S177      1.0  0.80920  0.79415  0.70385  1.0000
  H   H697      1.0  0.75918  0.97283  0.70631  1.0000
  H   H698      1.0  0.94537  0.88316  0.87167  1.0000
  Fe  Fe88      1.0  0.69934  0.06332  0.71302  1.0000
  C   C444      1.0  0.98519  0.81347  0.86452  1.0000
  C   C445      1.0  0.78369  0.97785  0.68498  1.0000
  C   C446      1.0  0.80213  0.88849  0.77342  1.0000
  C   C447      1.0  0.76906  0.86185  0.77193  1.0000
  H   H699      1.0  0.81423  0.98211  0.69943  1.0000
  S   S178      1.0  0.67464  0.00858  0.68805  1.0000
  C   C448      1.0  0.75092  0.94181  0.77399  1.0000
  C   C449      1.0  0.79304  0.92849  0.77527  1.0000
  H   H700      1.0  0.77566  0.83091  0.77110  1.0000
  C   C450      1.0  0.87239  0.70866  0.89157  1.0000
  H   H701      1.0  0.74401  0.97274  0.77485  1.0000
  H   H702      1.0  0.81853  0.94921  0.77666  1.0000
  H   H703      1.0  0.70178  0.85430  0.76872  1.0000
  S   S179      1.0  0.76401  0.08452  0.69866  1.0000
  S   S180      1.0  0.15313  0.10523  0.89892  1.0000
  Fe  Fe89      1.0  0.07215  0.01245  0.82396  1.0000
  Fe  Fe90      1.0  0.13336  0.07502  0.84697  1.0000
  Fe  Fe91      1.0  0.15978  0.01469  0.79063  1.0000
  H   H704      1.0  0.88122  0.82575  0.84347  1.0000
  H   H705      1.0  0.88397  0.82980  0.66859  1.0000
  N   N42       1.0  0.94906  0.82863  0.84294  1.0000
  H   H706      1.0  0.08876  0.92646  0.83249  1.0000
  C   C451      1.0  0.90911  0.81441  0.85906  1.0000
  H   H707      1.0  0.76546  0.65256  0.67877  1.0000
  H   H708      1.0  0.01585  0.82339  0.85291  1.0000
  H   H709      1.0  0.97879  0.88364  0.83167  1.0000
  S   S181      1.0  0.13662  0.00979  0.84865  1.0000
  N   N43       1.0  0.78607  0.94513  0.65877  1.0000
  S   S182      1.0  0.01823  0.97833  0.84653  1.0000
  H   H710      1.0  0.04770  0.97385  0.69867  1.0000
  H   H711      1.0  0.82956  0.91260  0.69303  1.0000
  H   H712      1.0  0.11172  0.86524  0.86398  1.0000
  H   H713      1.0  0.89779  0.89874  0.65375  1.0000
  C   C452      1.0  0.99608  0.03632  0.69346  1.0000
  H   H714      1.0  0.01432  0.03537  0.71963  1.0000
  C   C453      1.0  0.75388  0.63363  0.65621  1.0000
  H   H715      1.0  0.71996  0.93219  0.66299  1.0000
  N   N44       1.0  0.01964  0.01728  0.66321  1.0000
  H   H716      1.0  0.70747  0.69916  0.66517  1.0000
  H   H717      1.0  0.83659  0.63039  0.88905  1.0000
  H   H718      1.0  0.99882  0.95970  0.67776  1.0000
  C   C454      1.0  0.02854  0.97612  0.67308  1.0000
  H   H719      1.0  0.77546  0.00584  0.67086  1.0000
  H   H720      1.0  0.04556  0.04753  0.94535  1.0000
  S   S183      1.0  0.95404  0.77187  0.04588  1.0000
  C   C455      1.0  0.12813  0.64491  0.93177  1.0000
  H   H721      1.0  0.84863  0.68923  0.03353  1.0000
  H   H722      1.0  0.08949  0.04120  0.91469  1.0000
  C   C456      1.0  0.13176  0.75569  0.05862  1.0000
  Fe  Fe92      1.0  0.95156  0.75979  0.98552  1.0000
  H   H723      1.0  0.76121  0.63780  0.90600  1.0000
  N   N45       1.0  0.13220  0.66159  0.96894  1.0000
  H   H724      1.0  0.77908  0.79105  0.13205  1.0000
  H   H725      1.0  0.09482  0.05075  0.99835  1.0000
  H   H726      1.0  0.12369  0.66625  0.09888  1.0000
  C   C457      1.0  0.93940  0.87914  0.10190  1.0000
  C   C458      1.0  0.11286  0.72305  0.07477  1.0000
  H   H727      1.0  0.09706  0.66312  0.01971  1.0000
  C   C459      1.0  0.13811  0.69160  0.08639  1.0000
  S   S184      1.0  0.01987  0.74309  0.98101  1.0000
  H   H728      1.0  0.86864  0.68218  0.07943  1.0000
  C   C460      1.0  0.06709  0.02536  0.93296  1.0000
  S   S185      1.0  0.05771  0.71971  0.07822  1.0000
  H   H729      1.0  0.14253  0.98772  0.92673  1.0000
  Fe  Fe93      1.0  0.73152  0.63673  0.09201  1.0000
  C   C461      1.0  0.89856  0.63543  0.00152  1.0000
  N   N46       1.0  0.08963  0.00231  0.96144  1.0000
  H   H730      1.0  0.75894  0.81405  0.09114  1.0000
  H   H731      1.0  0.86201  0.83318  0.13613  1.0000
  H   H732      1.0  0.10693  0.71753  0.95224  1.0000
  C   C462      1.0  0.13512  0.70449  0.96604  1.0000
  H   H733      1.0  0.04754  0.00647  0.91521  1.0000
  H   H734      1.0  0.90309  0.69864  0.04313  1.0000
  H   H735      1.0  0.89218  0.80124  0.10727  1.0000
  H   H736      1.0  0.86517  0.83477  0.05124  1.0000
  H   H737      1.0  0.85583  0.76431  0.05784  1.0000
  H   H738      1.0  0.87243  0.64640  0.98362  1.0000
  S   S186      1.0  0.69207  0.66155  0.04631  1.0000
  N   N47       1.0  0.88738  0.63807  0.04090  1.0000
  S   S187      1.0  0.89715  0.72767  0.96125  1.0000
  S   S188      1.0  0.78667  0.67056  0.11361  1.0000
  H   H739      1.0  0.13734  0.71792  0.99365  1.0000
  C   C463      1.0  0.02929  0.89026  0.91948  1.0000
  H   H740      1.0  0.91629  0.62718  0.09352  1.0000
  Fe  Fe94      1.0  0.02368  0.76069  0.04003  1.0000
  H   H741      1.0  0.78479  0.84271  0.12538  1.0000
  H   H742      1.0  0.13416  0.95444  0.96432  1.0000
  H   H743      1.0  0.06517  0.66267  0.97901  1.0000
  C   C464      1.0  0.82548  0.77007  0.07243  1.0000
  H   H744      1.0  0.92694  0.65295  0.99468  1.0000
  S   S189      1.0  0.07628  0.82318  0.92512  1.0000
  H   H745      1.0  0.13316  0.01238  0.00562  1.0000
  C   C465      1.0  0.87645  0.67890  0.04974  1.0000
  H   H746      1.0  0.11261  0.78018  0.04984  1.0000
  H   H747      1.0  0.09988  0.95375  0.92521  1.0000
  C   C466      1.0  0.86063  0.80568  0.12025  1.0000
  C   C467      1.0  0.83488  0.83954  0.06631  1.0000
  Fe  Fe95      1.0  0.03023  0.80647  0.96936  1.0000
  C   C468      1.0  0.91188  0.90119  0.12383  1.0000
  Fe  Fe96      1.0  0.96991  0.83279  0.02856  1.0000
  H   H748      1.0  0.03658  0.00269  0.99867  1.0000
  S   S190      1.0  0.93788  0.88441  0.05403  1.0000
  H   H749      1.0  0.67166  0.93497  0.12422  1.0000
  H   H750      1.0  0.97424  0.71652  0.91942  1.0000
  H   H751      1.0  0.80941  0.84243  0.04543  1.0000
  H   H752      1.0  0.98753  0.83414  0.10132  1.0000
  H   H753      1.0  0.85583  0.78172  0.14049  1.0000
  C   C469      1.0  0.78555  0.81410  0.11106  1.0000
  S   S191      1.0  0.96112  0.82172  0.96858  1.0000
  C   C470      1.0  0.11510  0.02876  0.98417  1.0000
  H   H754      1.0  0.03906  0.96152  0.96853  1.0000
  H   H755      1.0  0.95209  0.64313  0.05814  1.0000
  C   C471      1.0  0.05861  0.98184  0.98492  1.0000
  C   C472      1.0  0.96604  0.85114  0.11812  1.0000
  C   C473      1.0  0.17077  0.64575  0.98661  1.0000
  H   H756      1.0  0.89131  0.92291  0.11135  1.0000
  H   H757      1.0  0.83757  0.86801  0.08068  1.0000
  N   N48       1.0  0.82660  0.80735  0.09252  1.0000
  S   S192      1.0  0.03997  0.82306  0.02817  1.0000
  C   C474      1.0  0.09491  0.65116  0.99137  1.0000
  H   H758      1.0  0.79991  0.77007  0.05147  1.0000
  H   H759      1.0  0.01329  0.88093  0.94416  1.0000
  H   H760      1.0  0.13826  0.04515  0.96698  1.0000
  H   H761      1.0  0.07445  0.96414  0.00680  1.0000
  C   C475      1.0  0.11779  0.97332  0.94366  1.0000
  C   C476      1.0  0.06329  0.86852  0.90564  1.0000
  H   H762      1.0  0.81963  0.74518  0.09149  1.0000
  C   C477      1.0  0.90650  0.71500  0.91513  1.0000
  H   H763      1.0  0.98828  0.94008  0.91121  1.0000
  C   C478      1.0  0.92364  0.62514  0.06362  1.0000
  H   H764      1.0  0.16359  0.71351  0.95026  1.0000
  H   H765      1.0  0.09891  0.65563  0.91787  1.0000
  H   H766      1.0  0.15560  0.65256  0.91408  1.0000
  H   H767      1.0  0.82273  0.62219  0.03211  1.0000
  H   H768      1.0  0.84042  0.71037  0.90212  1.0000
  C   C479      1.0  0.94775  0.71222  0.90141  1.0000
  C   C480      1.0  0.01543  0.92394  0.90103  1.0000
