data_image0
_chemical_formula_structural       CH2CHCS2H2CHSFe2H2CHCHSH2C2HCHSHC2HFeHCHCFeSC2H2CHNH2CH4S2H2CFeC2HC2H2SC2S2FeH4CHCH2CH4CH2CSNSHFeCHSCHCHCHFeC2HCH2SCNHSHCH4CH3CH2SHSH2CH3CH2CSCH3SH6C2H3C3H2CH2C2HFeCSCHFeNH2NCH3C2H3SHCNCH2NH3CHCHCH2SHCHS2C4HFe2H3CHCNHCSCSHC3H4CFeHCHCSCHCHCH3CH3SC2H2Fe3HCH2CHCNH6C2SHC2H2SH2C2H5C3H2FeHSHCHCH3CFe3S2FeS2CSH2NCFeCSHCSCHFeSFeS2FeS2HSC2FeCH7CH4C4HSNHC2H5Fe2S3HC2SH2C2H7CH2CNC2H2CHSCHCHC2SH2CH3NSHCH3CH4SC5HCH3NCHCH5CH3NFeCSCHSCH3CH2C3H3CH2NCHCH3CHC2H5SCH2SH4CSC2HCS2Fe2S2FeSHSHC3SCH2CH3NCHCH2CH5CH3CHNHCHCH2SCFe2SFeS2CHCSFeH2CHCHSH3C3HC2HC2
_chemical_formula_sum              "C180 H288 S72 Fe36 N18"
_cell_length_a       35.706
_cell_length_b       37.2727
_cell_length_c       30.6357
_cell_angle_alpha    93.6746
_cell_angle_beta     85.2044
_cell_angle_gamma    116.641

_space_group_name_H-M_alt    "P 1"
_space_group_IT_number       1

loop_
  _space_group_symop_operation_xyz
  'x, y, z'

loop_
  _atom_site_type_symbol
  _atom_site_label
  _atom_site_symmetry_multiplicity
  _atom_site_fract_x
  _atom_site_fract_y
  _atom_site_fract_z
  _atom_site_occupancy
  C   C1        1.0  0.14760  0.12173  0.07310  1.0000
  H   H1        1.0  0.13063  0.12056  0.10436  1.0000
  H   H2        1.0  0.15803  0.18190  0.06056  1.0000
  C   C2        1.0  0.16290  0.15637  0.04825  1.0000
  H   H3        1.0  0.04744  0.24705  0.06766  1.0000
  C   C3        1.0  0.15454  0.08885  0.05777  1.0000
  S   S1        1.0  0.13631  0.04641  0.09006  1.0000
  S   S2        1.0  0.11026  0.22368  0.02677  1.0000
  H   H4        1.0  0.23852  0.07347  0.18853  1.0000
  H   H5        1.0  0.18922  0.06624  0.16981  1.0000
  C   C4        1.0  0.20391  0.05536  0.19325  1.0000
  H   H6        1.0  0.19400  0.06200  0.22697  1.0000
  S   S3        1.0  0.14926  0.24858  0.92596  1.0000
  Fe  Fe1       1.0  0.17137  0.23878  0.98830  1.0000
  Fe  Fe2       1.0  0.09037  0.23893  0.96598  1.0000
  H   H7        1.0  0.07188  0.03431  0.96749  1.0000
  H   H8        1.0  0.07044  0.08558  0.02200  1.0000
  C   C5        1.0  0.25110  0.27528  0.88038  1.0000
  H   H9        1.0  0.23141  0.24828  0.89996  1.0000
  C   C6        1.0  0.31445  0.27324  0.89865  1.0000
  H   H10       1.0  0.31901  0.26224  0.86495  1.0000
  S   S4        1.0  0.20791  0.20267  0.97848  1.0000
  H   H11       1.0  0.18191  0.06515  0.00538  1.0000
  H   H12       1.0  0.29602  0.24633  0.91902  1.0000
  C   C7        1.0  0.18605  0.15855  0.00852  1.0000
  C   C8        1.0  0.19280  0.12556  0.99311  1.0000
  H   H13       1.0  0.21062  0.12711  0.96234  1.0000
  C   C9        1.0  0.17653  0.09049  0.01741  1.0000
  H   H14       1.0  0.25407  0.26472  0.84610  1.0000
  S   S5        1.0  0.11999  0.31218  0.10800  1.0000
  H   H15       1.0  0.11941  0.36179  0.18361  1.0000
  C   C10       1.0  0.15177  0.36910  0.17382  1.0000
  C   C11       1.0  0.16121  0.34927  0.13721  1.0000
  H   H16       1.0  0.05798  0.31610  0.05319  1.0000
  Fe  Fe3       1.0  0.13678  0.29011  0.04233  1.0000
  H   H17       1.0  0.17658  0.41358  0.22609  1.0000
  C   C12       1.0  0.18411  0.39848  0.19790  1.0000
  H   H18       1.0  0.21074  0.34357  0.09705  1.0000
  C   C13       1.0  0.20313  0.35883  0.12493  1.0000
  Fe  Fe4       1.0  0.25434  0.48286  0.26774  1.0000
  S   S6        1.0  0.26746  0.44324  0.21591  1.0000
  C   C14       1.0  0.22601  0.40773  0.18578  1.0000
  C   C15       1.0  0.23539  0.38779  0.14930  1.0000
  H   H19       1.0  0.26772  0.39475  0.13980  1.0000
  H   H20       1.0  0.33454  0.46250  0.27444  1.0000
  C   C16       1.0  0.39471  0.47442  0.21040  1.0000
  H   H21       1.0  0.36227  0.45524  0.19978  1.0000
  N   N1        1.0  0.39457  0.50334  0.24566  1.0000
  H   H22       1.0  0.40696  0.45404  0.22142  1.0000
  H   H23       1.0  0.34624  0.51185  0.21717  1.0000
  C   C17       1.0  0.37814  0.52960  0.22936  1.0000
  H   H24       1.0  0.41437  0.49008  0.18101  1.0000
  H   H25       1.0  0.31317  0.51599  0.49572  1.0000
  H   H26       1.0  0.45104  0.50961  0.27247  1.0000
  H   H27       1.0  0.14903  0.50444  0.49432  1.0000
  S   S7        1.0  0.19641  0.48878  0.29364  1.0000
  S   S8        1.0  0.18305  0.46940  0.42001  1.0000
  H   H28       1.0  0.15779  0.44163  0.50763  1.0000
  H   H29       1.0  0.11798  0.53071  0.49145  1.0000
  C   C18       1.0  0.14306  0.52944  0.50960  1.0000
  Fe  Fe5       1.0  0.22347  0.49738  0.35953  1.0000
  C   C19       1.0  0.19168  0.45803  0.50504  1.0000
  C   C20       1.0  0.36747  0.48124  0.28358  1.0000
  H   H30       1.0  0.37862  0.46081  0.29664  1.0000
  C   C21       1.0  0.25631  0.49448  0.46146  1.0000
  C   C22       1.0  0.21248  0.47365  0.46479  1.0000
  H   H31       1.0  0.36671  0.50223  0.31086  1.0000
  H   H32       1.0  0.27259  0.50680  0.43057  1.0000
  S   S9        1.0  0.27786  0.48587  0.33426  1.0000
  C   C23       1.0  0.27926  0.49981  0.49838  1.0000
  C   C24       1.0  0.43766  0.52828  0.25946  1.0000
  S   S10       1.0  0.18788  0.48936  0.65616  1.0000
  S   S11       1.0  0.15201  0.42700  0.76083  1.0000
  Fe  Fe6       1.0  0.19823  0.48299  0.72613  1.0000
  H   H33       1.0  0.14041  0.36392  0.63106  1.0000
  H   H34       1.0  0.13051  0.52133  0.54398  1.0000
  H   H35       1.0  0.15815  0.40309  0.67235  1.0000
  H   H36       1.0  0.19823  0.45249  0.57314  1.0000
  C   C25       1.0  0.21455  0.46431  0.54219  1.0000
  H   H37       1.0  0.13203  0.35209  0.68837  1.0000
  C   C26       1.0  0.15473  0.37244  0.66331  1.0000
  H   H38       1.0  0.16756  0.30753  0.67061  1.0000
  H   H39       1.0  0.17746  0.32219  0.61438  1.0000
  C   C27       1.0  0.18997  0.33051  0.64756  1.0000
  H   H40       1.0  0.19017  0.36032  0.73081  1.0000
  H   H41       1.0  0.22026  0.32855  0.64605  1.0000
  H   H42       1.0  0.25689  0.40130  0.62849  1.0000
  H   H43       1.0  0.24293  0.37985  0.70614  1.0000
  C   C28       1.0  0.22539  0.40079  0.63040  1.0000
  H   H44       1.0  0.21399  0.39462  0.59672  1.0000
  H   H45       1.0  0.23013  0.43170  0.64031  1.0000
  C   C29       1.0  0.21241  0.38107  0.70576  1.0000
  S   S12       1.0  0.26689  0.49975  0.71340  1.0000
  N   N2        1.0  0.19562  0.37117  0.66175  1.0000
  S   S13       1.0  0.28733  0.49416  0.58533  1.0000
  H   H46       1.0  0.21786  0.41189  0.71692  1.0000
  Fe  Fe7       1.0  0.25731  0.51118  0.64517  1.0000
  C   C30       1.0  0.25838  0.48534  0.53894  1.0000
  H   H47       1.0  0.11094  0.35988  0.81739  1.0000
  S   S14       1.0  0.11313  0.30454  0.98332  1.0000
  C   C31       1.0  0.14359  0.37539  0.82497  1.0000
  H   H48       1.0  0.13714  0.33384  0.87449  1.0000
  C   C32       1.0  0.17083  0.41023  0.80266  1.0000
  H   H49       1.0  0.26047  0.43074  0.85214  1.0000
  C   C33       1.0  0.22784  0.41512  0.84451  1.0000
  H   H50       1.0  0.23349  0.29348  0.88019  1.0000
  Fe  Fe8       1.0  0.17440  0.31271  0.94930  1.0000
  C   C34       1.0  0.20059  0.38046  0.86700  1.0000
  C   C35       1.0  0.15836  0.36062  0.85729  1.0000
  H   H51       1.0  0.30120  0.35384  0.87138  1.0000
  C   C36       1.0  0.21296  0.43016  0.81267  1.0000
  H   H52       1.0  0.27091  0.33194  0.94528  1.0000
  H   H53       1.0  0.31746  0.32959  0.95919  1.0000
  S   S15       1.0  0.22067  0.36215  0.90607  1.0000
  C   C37       1.0  0.31743  0.33427  0.87172  1.0000
  N   N3        1.0  0.29254  0.29876  0.89867  1.0000
  H   H54       1.0  0.32229  0.32541  0.83714  1.0000
  S   S16       1.0  0.20013  0.30370  0.00992  1.0000
  H   H55       1.0  0.23410  0.45728  0.79613  1.0000
  C   C38       1.0  0.28691  0.31220  0.94409  1.0000
  H   H56       1.0  0.34879  0.35296  0.88474  1.0000
  H   H57       1.0  0.26760  0.28622  0.96526  1.0000
  H   H58       1.0  0.34582  0.28987  0.91235  1.0000
  H   H59       1.0  0.20253  0.72423  0.16924  1.0000
  C   C39       1.0  0.20144  0.73891  0.13912  1.0000
  H   H60       1.0  0.22693  0.73906  0.11544  1.0000
  H   H61       1.0  0.17092  0.71958  0.12460  1.0000
  H   H62       1.0  0.17228  0.76450  0.21200  1.0000
  C   C40       1.0  0.17201  0.77833  0.18097  1.0000
  H   H63       1.0  0.14063  0.76044  0.16762  1.0000
  H   H64       1.0  0.22417  0.67593  0.24669  1.0000
  S   S17       1.0  0.29201  0.54880  0.25736  1.0000
  H   H65       1.0  0.37096  0.61134  0.25853  1.0000
  S   S18       1.0  0.22048  0.59981  0.26050  1.0000
  H   H66       1.0  0.35119  0.75997  0.24249  1.0000
  H   H67       1.0  0.41224  0.74889  0.26153  1.0000
  C   C41       1.0  0.33756  0.75141  0.27641  1.0000
  H   H68       1.0  0.34809  0.77949  0.29711  1.0000
  H   H69       1.0  0.30290  0.73875  0.27546  1.0000
  H   H70       1.0  0.35181  0.69260  0.23157  1.0000
  C   C42       1.0  0.40021  0.63281  0.27091  1.0000
  H   H71       1.0  0.41834  0.66825  0.21304  1.0000
  H   H72       1.0  0.37575  0.55033  0.25585  1.0000
  C   C43       1.0  0.42710  0.66519  0.24508  1.0000
  S   S19       1.0  0.49666  0.73554  0.22915  1.0000
  C   C44       1.0  0.46485  0.69406  0.26093  1.0000
  H   H73       1.0  0.39867  0.54819  0.20197  1.0000
  H   H74       1.0  0.45903  0.54549  0.23170  1.0000
  H   H75       1.0  0.19392  0.77616  0.47209  1.0000
  S   S20       1.0  0.20680  0.73206  0.39144  1.0000
  H   H76       1.0  0.27421  0.76709  0.47012  1.0000
  H   H77       1.0  0.29580  0.69736  0.33834  1.0000
  H   H78       1.0  0.26547  0.74594  0.52354  1.0000
  H   H79       1.0  0.40846  0.76945  0.31531  1.0000
  H   H80       1.0  0.34039  0.73865  0.36075  1.0000
  H   H81       1.0  0.21998  0.72818  0.29753  1.0000
  C   C45       1.0  0.21643  0.70063  0.31036  1.0000
  C   C46       1.0  0.20913  0.69441  0.35537  1.0000
  H   H82       1.0  0.14884  0.60421  0.50757  1.0000
  H   H83       1.0  0.22202  0.54137  0.52023  1.0000
  H   H84       1.0  0.34213  0.66254  0.27861  1.0000
  C   C47       1.0  0.33584  0.68606  0.26493  1.0000
  C   C48       1.0  0.21875  0.67093  0.28154  1.0000
  C   C49       1.0  0.39642  0.74116  0.29491  1.0000
  H   H85       1.0  0.22715  0.60550  0.45948  1.0000
  H   H86       1.0  0.33960  0.69001  0.35246  1.0000
  C   C50       1.0  0.33068  0.71170  0.33835  1.0000
  H   H87       1.0  0.30145  0.67262  0.26112  1.0000
  H   H88       1.0  0.19843  0.65310  0.40639  1.0000
  C   C51       1.0  0.20440  0.65819  0.37161  1.0000
  C   C52       1.0  0.19823  0.57650  0.46205  1.0000
  H   H89       1.0  0.17475  0.57788  0.44135  1.0000
  Fe  Fe9       1.0  0.23686  0.55535  0.28967  1.0000
  C   C53       1.0  0.21475  0.63506  0.29764  1.0000
  S   S21       1.0  0.25993  0.56439  0.35717  1.0000
  C   C54       1.0  0.20747  0.62859  0.34275  1.0000
  H   H90       1.0  0.20334  0.60051  0.35519  1.0000
  Fe  Fe10      1.0  0.31201  0.55230  0.32524  1.0000
  N   N4        1.0  0.35016  0.72258  0.29363  1.0000
  H   H91       1.0  0.40699  0.72054  0.30869  1.0000
  H   H92       1.0  0.22301  0.73011  0.48758  1.0000
  N   N5        1.0  0.18167  0.56794  0.50806  1.0000
  C   C55       1.0  0.25144  0.75644  0.49909  1.0000
  H   H93       1.0  0.20639  0.55262  0.44722  1.0000
  H   H94       1.0  0.51245  0.74276  0.45777  1.0000
  H   H95       1.0  0.44079  0.67632  0.51181  1.0000
  C   C56       1.0  0.44956  0.65710  0.32779  1.0000
  C   C57       1.0  0.41141  0.62848  0.31220  1.0000
  H   H96       1.0  0.45651  0.72943  0.51806  1.0000
  H   H97       1.0  0.45855  0.65387  0.35962  1.0000
  H   H98       1.0  0.43810  0.55060  0.28580  1.0000
  S   S22       1.0  0.37880  0.58723  0.34445  1.0000
  H   H99       1.0  0.49584  0.68955  0.45124  1.0000
  C   C58       1.0  0.51647  0.71715  0.46974  1.0000
  N   N6        1.0  0.50697  0.71292  0.51759  1.0000
  C   C59       1.0  0.47606  0.69014  0.30240  1.0000
  H   H100      1.0  0.49345  0.65051  0.51583  1.0000
  H   H101      1.0  0.50545  0.71224  0.31462  1.0000
  N   N7        1.0  0.20625  0.78004  0.14914  1.0000
  H   H102      1.0  0.16222  0.65866  0.67243  1.0000
  H   H103      1.0  0.21286  0.73006  0.66198  1.0000
  H   H104      1.0  0.15802  0.59413  0.56116  1.0000
  C   C60       1.0  0.21054  0.77340  0.55609  1.0000
  H   H105      1.0  0.22365  0.76364  0.58209  1.0000
  C   C61       1.0  0.19255  0.66625  0.65545  1.0000
  H   H106      1.0  0.18101  0.74734  0.54655  1.0000
  C   C62       1.0  0.17186  0.60050  0.52689  1.0000
  H   H107      1.0  0.24294  0.59376  0.53365  1.0000
  H   H108      1.0  0.20177  0.55807  0.56859  1.0000
  S   S23       1.0  0.29887  0.76639  0.62439  1.0000
  H   H109      1.0  0.28858  0.66273  0.70645  1.0000
  C   C63       1.0  0.22115  0.70666  0.64940  1.0000
  H   H110      1.0  0.25161  0.62242  0.60757  1.0000
  S   S24       1.0  0.16952  0.58554  0.65206  1.0000
  S   S25       1.0  0.27284  0.57580  0.65901  1.0000
  C   C64       1.0  0.20390  0.63579  0.64143  1.0000
  C   C65       1.0  0.26067  0.71644  0.62835  1.0000
  C   C66       1.0  0.27101  0.68590  0.61212  1.0000
  C   C67       1.0  0.24291  0.64569  0.61921  1.0000
  H   H111      1.0  0.30151  0.69335  0.59568  1.0000
  Fe  Fe11      1.0  0.27567  0.56263  0.72853  1.0000
  Fe  Fe12      1.0  0.20404  0.55331  0.67542  1.0000
  H   H112      1.0  0.34861  0.77199  0.73042  1.0000
  H   H113      1.0  0.32114  0.71100  0.68322  1.0000
  H   H114      1.0  0.34349  0.68790  0.71521  1.0000
  C   C68       1.0  0.31527  0.69275  0.71259  1.0000
  H   H115      1.0  0.27288  0.73742  0.71978  1.0000
  C   C69       1.0  0.26849  0.71806  0.74775  1.0000
  N   N8        1.0  0.30660  0.71287  0.75256  1.0000
  H   H116      1.0  0.35513  0.59000  0.68559  1.0000
  C   C70       1.0  0.37183  0.63404  0.73870  1.0000
  S   S26       1.0  0.20769  0.54526  0.74661  1.0000
  C   C71       1.0  0.21346  0.56521  0.53381  1.0000
  S   S27       1.0  0.32484  0.60837  0.77016  1.0000
  H   H117      1.0  0.24087  0.68868  0.74163  1.0000
  C   C72       1.0  0.37798  0.61900  0.69717  1.0000
  C   C73       1.0  0.40216  0.67114  0.75396  1.0000
  C   C74       1.0  0.34276  0.75260  0.75889  1.0000
  H   H118      1.0  0.37207  0.74966  0.76246  1.0000
  H   H119      1.0  0.20054  0.62975  0.52793  1.0000
  H   H120      1.0  0.45478  0.70128  0.56430  1.0000
  H   H121      1.0  0.52826  0.74897  0.57632  1.0000
  C   C75       1.0  0.51404  0.67951  0.53215  1.0000
  Fe  Fe13      1.0  0.52565  0.76947  0.67692  1.0000
  H   H122      1.0  0.41873  0.62945  0.63854  1.0000
  C   C76       1.0  0.43789  0.69379  0.72705  1.0000
  H   H123      1.0  0.46087  0.72269  0.73863  1.0000
  C   C77       1.0  0.41406  0.64127  0.67062  1.0000
  S   S28       1.0  0.48786  0.70679  0.65092  1.0000
  C   C78       1.0  0.44383  0.67881  0.68536  1.0000
  H   H124      1.0  0.50736  0.67572  0.56821  1.0000
  C   C79       1.0  0.53479  0.75059  0.54026  1.0000
  H   H125      1.0  0.53077  0.77658  0.52964  1.0000
  C   C80       1.0  0.46275  0.70460  0.52832  1.0000
  H   H126      1.0  0.39773  0.68267  0.78626  1.0000
  H   H127      1.0  0.33739  0.76876  0.78872  1.0000
  H   H128      1.0  0.32857  0.68476  0.79649  1.0000
  C   C81       1.0  0.29990  0.68804  0.79086  1.0000
  H   H129      1.0  0.26036  0.73244  0.77759  1.0000
  H   H130      1.0  0.29155  0.70137  0.82137  1.0000
  H   H131      1.0  0.27424  0.65710  0.78609  1.0000
  S   S29       1.0  0.10546  0.93603  0.09307  1.0000
  C   C82       1.0  0.15062  0.88661  0.16637  1.0000
  C   C83       1.0  0.14465  0.87993  0.21155  1.0000
  H   H132      1.0  0.12483  0.88422  0.14827  1.0000
  H   H133      1.0  0.11434  0.87277  0.22832  1.0000
  Fe  Fe14      1.0  0.15394  0.92056  0.05764  1.0000
  Fe  Fe15      1.0  0.13369  0.99128  0.05332  1.0000
  Fe  Fe16      1.0  0.06706  0.90734  0.03530  1.0000
  H   H134      1.0  0.13476  0.95648  0.18687  1.0000
  C   C84       1.0  0.14532  0.98935  0.19212  1.0000
  H   H135      1.0  0.13374  0.99412  0.22579  1.0000
  H   H136      1.0  0.12938  0.99873  0.16863  1.0000
  C   C85       1.0  0.21127  0.99848  0.21762  1.0000
  H   H137      1.0  0.20276  0.96595  0.21255  1.0000
  C   C86       1.0  0.20532  0.00480  0.14088  1.0000
  N   N9        1.0  0.19148  0.01200  0.18601  1.0000
  H   H138      1.0  0.19180  0.01556  0.11623  1.0000
  H   H139      1.0  0.20109  0.00283  0.25207  1.0000
  H   H140      1.0  0.05380  0.01767  0.04608  1.0000
  H   H141      1.0  0.19535  0.97230  0.13367  1.0000
  H   H142      1.0  0.24007  0.02051  0.13533  1.0000
  H   H143      1.0  0.24612  0.01503  0.21419  1.0000
  C   C87       1.0  0.17741  0.88123  0.23482  1.0000
  C   C88       1.0  0.18951  0.89500  0.14460  1.0000
  S   S30       1.0  0.19758  0.90185  0.08796  1.0000
  H   H144      1.0  0.25139  0.83531  0.17791  1.0000
  C   C89       1.0  0.21643  0.89014  0.21307  1.0000
  C   C90       1.0  0.22249  0.89715  0.16806  1.0000
  H   H145      1.0  0.24190  0.89147  0.23090  1.0000
  H   H146      1.0  0.25275  0.90400  0.15132  1.0000
  S   S31       1.0  0.33808  0.83709  0.23455  1.0000
  H   H147      1.0  0.17473  0.80881  0.18963  1.0000
  H   H148      1.0  0.20803  0.82938  0.11471  1.0000
  C   C91       1.0  0.24728  0.80458  0.16801  1.0000
  C   C92       1.0  0.20422  0.79823  0.10843  1.0000
  H   H149      1.0  0.27397  0.80793  0.14435  1.0000
  H   H150      1.0  0.25076  0.79085  0.19766  1.0000
  H   H151      1.0  0.22938  0.79985  0.08347  1.0000
  H   H152      1.0  0.53995  0.91991  0.23619  1.0000
  H   H153      1.0  0.54043  0.88063  0.49980  1.0000
  C   C93       1.0  0.38676  0.85706  0.25822  1.0000
  C   C94       1.0  0.45302  0.85559  0.26706  1.0000
  C   C95       1.0  0.41666  0.84352  0.24407  1.0000
  H   H154      1.0  0.41113  0.82272  0.21631  1.0000
  H   H155      1.0  0.47519  0.84392  0.25692  1.0000
  Fe  Fe17      1.0  0.53936  0.78724  0.27045  1.0000
  H   H156      1.0  0.53648  0.96233  0.26298  1.0000
  S   S32       1.0  0.16899  0.87072  0.29063  1.0000
  H   H157      1.0  0.21360  0.82529  0.49793  1.0000
  C   C96       1.0  0.32399  0.93112  0.51661  1.0000
  H   H158      1.0  0.30217  0.83734  0.50393  1.0000
  C   C97       1.0  0.22257  0.80157  0.48459  1.0000
  H   H159      1.0  0.35747  0.94058  0.51473  1.0000
  H   H160      1.0  0.24526  0.81406  0.45594  1.0000
  H   H161      1.0  0.37148  0.89490  0.30509  1.0000
  C   C98       1.0  0.25934  0.91008  0.48055  1.0000
  Fe  Fe18      1.0  0.23028  0.79122  0.35817  1.0000
  Fe  Fe19      1.0  0.29341  0.84198  0.28773  1.0000
  Fe  Fe20      1.0  0.28745  0.87940  0.37699  1.0000
  S   S33       1.0  0.28745  0.89798  0.30875  1.0000
  S   S34       1.0  0.32922  0.92068  0.42781  1.0000
  Fe  Fe21      1.0  0.21838  0.85660  0.31513  1.0000
  S   S35       1.0  0.29984  0.82709  0.35530  1.0000
  S   S36       1.0  0.21763  0.84231  0.38543  1.0000
  C   C99       1.0  0.30239  0.92122  0.47815  1.0000
  S   S37       1.0  0.22434  0.80192  0.28834  1.0000
  H   H162      1.0  0.24288  0.90411  0.45094  1.0000
  H   H163      1.0  0.20388  0.89687  0.52324  1.0000
  N   N10       1.0  0.24102  0.78857  0.51802  1.0000
  C   C100      1.0  0.23743  0.90662  0.52144  1.0000
  Fe  Fe22      1.0  0.53949  0.86061  0.31749  1.0000
  C   C101      1.0  0.39424  0.88407  0.29404  1.0000
  S   S38       1.0  0.50564  0.89842  0.33219  1.0000
  H   H164      1.0  0.43655  0.91789  0.34390  1.0000
  C   C102      1.0  0.46030  0.88247  0.30309  1.0000
  S   S39       1.0  0.51603  0.79728  0.33815  1.0000
  C   C103      1.0  0.43115  0.89713  0.31607  1.0000
  H   H165      1.0  0.17349  0.78088  0.09354  1.0000
  Fe  Fe23      1.0  0.32880  0.89116  0.71197  1.0000
  S   S40       1.0  0.29915  0.82789  0.73407  1.0000
  Fe  Fe24      1.0  0.25739  0.87684  0.65573  1.0000
  S   S41       1.0  0.38875  0.93652  0.73918  1.0000
  S   S42       1.0  0.22959  0.90177  0.61032  1.0000
  Fe  Fe25      1.0  0.23979  0.83498  0.74161  1.0000
  S   S43       1.0  0.27083  0.89985  0.72469  1.0000
  S   S44       1.0  0.31880  0.87449  0.64105  1.0000
  H   H166      1.0  0.31866  0.93466  0.58718  1.0000
  S   S45       1.0  0.22108  0.81211  0.67331  1.0000
  C   C104      1.0  0.25854  0.91395  0.55992  1.0000
  C   C105      1.0  0.30204  0.92746  0.55752  1.0000
  Fe  Fe26      1.0  0.28367  0.81147  0.66396  1.0000
  C   C106      1.0  0.27960  0.82308  0.53224  1.0000
  H   H167      1.0  0.27221  0.84654  0.54925  1.0000
  H   H168      1.0  0.20205  0.79708  0.57102  1.0000
  H   H169      1.0  0.29586  0.81403  0.55552  1.0000
  H   H170      1.0  0.19174  0.88083  0.77074  1.0000
  H   H171      1.0  0.41347  0.91639  0.59695  1.0000
  H   H172      1.0  0.43155  0.85922  0.58574  1.0000
  H   H173      1.0  0.47196  0.92162  0.54398  1.0000
  C   C107      1.0  0.49324  0.93390  0.57143  1.0000
  H   H174      1.0  0.44754  0.96105  0.62627  1.0000
  H   H175      1.0  0.48531  0.92202  0.68153  1.0000
  H   H176      1.0  0.41835  0.91522  0.65457  1.0000
  H   H177      1.0  0.39047  0.86117  0.71261  1.0000
  C   C108      1.0  0.41874  0.91363  0.75500  1.0000
  C   C109      1.0  0.50083  0.93391  0.64906  1.0000
  C   C110      1.0  0.45454  0.87297  0.61150  1.0000
  C   C111      1.0  0.41342  0.87634  0.73668  1.0000
  H   H178      1.0  0.43497  0.83050  0.73432  1.0000
  S   S46       1.0  0.50132  0.81508  0.67385  1.0000
  N   N11       1.0  0.47119  0.91718  0.61381  1.0000
  H   H179      1.0  0.43848  0.85940  0.64322  1.0000
  C   C112      1.0  0.43612  0.92793  0.62323  1.0000
  C   C113      1.0  0.43875  0.85910  0.74871  1.0000
  H   H180      1.0  0.48016  0.86387  0.60367  1.0000
  H   H181      1.0  0.50611  0.96719  0.57193  1.0000
  H   H182      1.0  0.51417  0.96721  0.65169  1.0000
  H   H183      1.0  0.52011  0.92662  0.56339  1.0000
  H   H184      1.0  0.52760  0.92619  0.64309  1.0000
  Fe  Fe27      1.0  0.52907  0.83722  0.73878  1.0000
  Fe  Fe28      1.0  0.14158  0.94487  0.97029  1.0000
  S   S47       1.0  0.16445  0.95244  0.89912  1.0000
  S   S48       1.0  0.09246  0.96379  0.99754  1.0000
  S   S49       1.0  0.11246  0.88564  0.00350  1.0000
  H   H185      1.0  0.17911  0.93555  0.80856  1.0000
  C   C114      1.0  0.17048  0.91176  0.87286  1.0000
  C   C115      1.0  0.17868  0.91173  0.82734  1.0000
  S   S50       1.0  0.18594  0.97873  0.02253  1.0000
  H   H186      1.0  0.16433  0.88079  0.93196  1.0000
  H   H187      1.0  0.27137  0.95076  0.80706  1.0000
  C   C116      1.0  0.16964  0.88064  0.89683  1.0000
  C   C117      1.0  0.18603  0.85020  0.82998  1.0000
  H   H188      1.0  0.32348  0.90412  0.80790  1.0000
  H   H189      1.0  0.37951  0.97005  0.82896  1.0000
  H   H190      1.0  0.29500  0.98037  0.90093  1.0000
  H   H191      1.0  0.31164  0.99871  0.82323  1.0000
  H   H192      1.0  0.25459  0.93267  0.88490  1.0000
  H   H193      1.0  0.36817  0.00229  0.86832  1.0000
  H   H194      1.0  0.32428  0.96726  0.78389  1.0000
  C   C118      1.0  0.18626  0.88096  0.80594  1.0000
  H   H195      1.0  0.36760  0.95674  0.88549  1.0000
  H   H196      1.0  0.17721  0.82625  0.89422  1.0000
  C   C119      1.0  0.17726  0.84987  0.87541  1.0000
  N   N12       1.0  0.31439  0.94817  0.85042  1.0000
  C   C120      1.0  0.28865  0.94912  0.89046  1.0000
  C   C121      1.0  0.35943  0.97035  0.85878  1.0000
  H   H197      1.0  0.31011  0.89046  0.86427  1.0000
  H   H198      1.0  0.27090  0.88867  0.83028  1.0000
  C   C122      1.0  0.30437  0.90605  0.83772  1.0000
  H   H199      1.0  0.29441  0.93482  0.91826  1.0000
  S   S51       1.0  0.20053  0.81420  0.80449  1.0000
  C   C123      1.0  0.30507  0.96709  0.81457  1.0000
  H   H200      1.0  0.52960  0.85868  0.88648  1.0000
  C   C124      1.0  0.47294  0.91536  0.79901  1.0000
  H   H201      1.0  0.49582  0.93044  0.82324  1.0000
  C   C125      1.0  0.46830  0.87854  0.78014  1.0000
  C   C126      1.0  0.44872  0.93322  0.78587  1.0000
  S   S52       1.0  0.49942  0.85713  0.79660  1.0000
  H   H202      1.0  0.45305  0.96210  0.79992  1.0000
  H   H203      1.0  0.93605  0.22512  0.09162  1.0000
  C   C127      1.0  0.95860  0.25759  0.09365  1.0000
  H   H204      1.0  0.94333  0.27479  0.08099  1.0000
  H   H205      1.0  0.64873  0.03337  0.23763  1.0000
  H   H206      1.0  0.02590  0.25176  0.12114  1.0000
  N   N13       1.0  0.99859  0.26563  0.06853  1.0000
  S   S53       1.0  0.89092  0.05553  0.04411  1.0000
  H   H207      1.0  0.96978  0.11901  0.06746  1.0000
  C   C128      1.0  0.96553  0.12279  0.03378  1.0000
  H   H208      1.0  0.02125  0.08065  0.04760  1.0000
  H   H209      1.0  0.99642  0.20957  0.08566  1.0000
  H   H210      1.0  0.96369  0.26621  0.12894  1.0000
  C   C129      1.0  0.01773  0.24235  0.08658  1.0000
  H   H211      1.0  0.02426  0.17580  0.02580  1.0000
  H   H212      1.0  0.97609  0.27044  0.00711  1.0000
  H   H213      1.0  0.89521  0.08031  0.95528  1.0000
  H   H214      1.0  0.94956  0.13748  0.91385  1.0000
  S   S54       1.0  0.02776  0.20182  0.93748  1.0000
  C   C130      1.0  0.92365  0.10064  0.97050  1.0000
  C   C131      1.0  0.95431  0.13319  0.94718  1.0000
  C   C132      1.0  0.99083  0.16038  0.96693  1.0000
  C   C133      1.0  0.99648  0.15494  0.01020  1.0000
  C   C134      1.0  0.92915  0.09549  0.01390  1.0000
  H   H215      1.0  0.02005  0.25921  0.00212  1.0000
  C   C135      1.0  0.03646  0.07449  0.01675  1.0000
  H   H216      1.0  0.96914  0.22091  0.01805  1.0000
  H   H217      1.0  0.03405  0.09295  0.99091  1.0000
  H   H218      1.0  0.03558  0.04139  0.93593  1.0000
  N   N14       1.0  0.01656  0.03124  0.00430  1.0000
  C   C136      1.0  0.99050  0.25355  0.02202  1.0000
  H   H219      1.0  0.96761  0.03524  0.97137  1.0000
  C   C137      1.0  0.02755  0.30897  0.07195  1.0000
  H   H220      1.0  0.01416  0.32767  0.05903  1.0000
  H   H221      1.0  0.03527  0.31894  0.10652  1.0000
  H   H222      1.0  0.54964  0.72332  0.46062  1.0000
  H   H223      1.0  0.54721  0.68497  0.52478  1.0000
  H   H224      1.0  0.56836  0.75731  0.53372  1.0000
  C   C138      1.0  0.61849  0.95936  0.20030  1.0000
  H   H225      1.0  0.61111  0.96612  0.16819  1.0000
  H   H226      1.0  0.64210  0.84008  0.18725  1.0000
  H   H227      1.0  0.65330  0.97352  0.20167  1.0000
  N   N15       1.0  0.59866  0.97341  0.23740  1.0000
  Fe  Fe29      1.0  0.62009  0.86516  0.27282  1.0000
  C   C139      1.0  0.66826  0.86244  0.16846  1.0000
  S   S55       1.0  0.67707  0.91389  0.23934  1.0000
  C   C140      1.0  0.55252  0.95311  0.23488  1.0000
  H   H228      1.0  0.60771  0.92633  0.20085  1.0000
  S   S56       1.0  0.55716  0.84915  0.24828  1.0000
  C   C141      1.0  0.60966  0.96379  0.27907  1.0000
  H   H229      1.0  0.54278  0.95977  0.20407  1.0000
  H   H230      1.0  0.63682  0.81762  0.49914  1.0000
  H   H231      1.0  0.59967  0.02871  0.26333  1.0000
  C   C142      1.0  0.61402  0.01730  0.23560  1.0000
  H   H232      1.0  0.60628  0.02571  0.20457  1.0000
  H   H233      1.0  0.66295  0.82246  0.11274  1.0000
  C   C143      1.0  0.68006  0.85254  0.12631  1.0000
  C   C144      1.0  0.69063  0.90108  0.18635  1.0000
  C   C145      1.0  0.71404  0.88128  0.10189  1.0000
  H   H234      1.0  0.78513  0.83038  0.05388  1.0000
  H   H235      1.0  0.76850  0.83602  0.17487  1.0000
  H   H236      1.0  0.74179  0.95985  0.17563  1.0000
  C   C146      1.0  0.72443  0.92992  0.16181  1.0000
  H   H237      1.0  0.85674  0.89862  0.09850  1.0000
  H   H238      1.0  0.76246  0.94236  0.10091  1.0000
  N   N16       1.0  0.80964  0.84019  0.11772  1.0000
  C   C147      1.0  0.73610  0.92008  0.11954  1.0000
  H   H239      1.0  0.74449  0.82730  0.12373  1.0000
  C   C148      1.0  0.82541  0.88421  0.11648  1.0000
  H   H240      1.0  0.80373  0.89213  0.09979  1.0000
  H   H241      1.0  0.82832  0.89817  0.15004  1.0000
  H   H242      1.0  0.87107  0.84435  0.12388  1.0000
  C   C149      1.0  0.76778  0.82243  0.14131  1.0000
  H   H243      1.0  0.84198  0.84317  0.17500  1.0000
  C   C150      1.0  0.83905  0.83104  0.14061  1.0000
  C   C151      1.0  0.80627  0.82313  0.07246  1.0000
  H   H244      1.0  0.75547  0.78943  0.14438  1.0000
  H   H245      1.0  0.83734  0.83513  0.05390  1.0000
  H   H246      1.0  0.79339  0.78985  0.07210  1.0000
  H   H247      1.0  0.82839  0.79807  0.14172  1.0000
  H   H248      1.0  0.95451  0.02234  0.02775  1.0000
  S   S57       1.0  0.73014  0.86712  0.05074  1.0000
  C   C152      1.0  0.02030  0.00799  0.03961  1.0000
  H   H249      1.0  0.00626  0.97523  0.03095  1.0000
  H   H250      1.0  0.91602  0.87042  0.05351  1.0000
  S   S58       1.0  0.99741  0.87309  0.04875  1.0000
  H   H251      1.0  0.00418  0.01192  0.07090  1.0000
  H   H252      1.0  0.64425  0.97791  0.28208  1.0000
  H   H253      1.0  0.59837  0.93102  0.28123  1.0000
  H   H254      1.0  0.55231  0.84542  0.43248  1.0000
  C   C153      1.0  0.56155  0.86701  0.49973  1.0000
  S   S59       1.0  0.60461  0.80158  0.28797  1.0000
  C   C154      1.0  0.59483  0.82863  0.46162  1.0000
  C   C155      1.0  0.61570  0.83128  0.49926  1.0000
  H   H255      1.0  0.59492  0.97338  0.30802  1.0000
  C   C156      1.0  0.56832  0.84715  0.46158  1.0000
  S   S60       1.0  0.60366  0.88097  0.34114  1.0000
  S   S61       1.0  0.59969  0.79950  0.41622  1.0000
  Fe  Fe30      1.0  0.58252  0.81638  0.35457  1.0000
  Fe  Fe31      1.0  0.60880  0.83045  0.71143  1.0000
  S   S62       1.0  0.59172  0.88141  0.71047  1.0000
  S   S63       1.0  0.58844  0.80702  0.64372  1.0000
  Fe  Fe32      1.0  0.56595  0.85440  0.64545  1.0000
  S   S64       1.0  0.56882  0.88910  0.58683  1.0000
  H   H256      1.0  0.62500  0.85284  0.56632  1.0000
  S   S65       1.0  0.54780  0.78792  0.74466  1.0000
  H   H257      1.0  0.67679  0.91607  0.74619  1.0000
  C   C157      1.0  0.58100  0.86807  0.53800  1.0000
  C   C158      1.0  0.60870  0.85086  0.53743  1.0000
  C   C159      1.0  0.69338  0.91136  0.77146  1.0000
  S   S66       1.0  0.66817  0.83460  0.73656  1.0000
  C   C160      1.0  0.69477  0.87458  0.77322  1.0000
  H   H258      1.0  0.84119  0.90476  0.73505  1.0000
  H   H259      1.0  0.85745  0.98841  0.77475  1.0000
  C   C161      1.0  0.87143  0.92412  0.75016  1.0000
  H   H260      1.0  0.88930  0.95012  0.72862  1.0000
  H   H261      1.0  0.88959  0.90638  0.74988  1.0000
  H   H262      1.0  0.63260  0.92219  0.83086  1.0000
  N   N17       1.0  0.59574  0.87618  0.87663  1.0000
  C   C162      1.0  0.60419  0.91297  0.85361  1.0000
  H   H263      1.0  0.60933  0.93861  0.87700  1.0000
  C   C163      1.0  0.55713  0.86454  0.90561  1.0000
  H   H264      1.0  0.56035  0.88860  0.93060  1.0000
  H   H265      1.0  0.61792  0.85129  0.82086  1.0000
  C   C164      1.0  0.58992  0.84334  0.84414  1.0000
  H   H266      1.0  0.56265  0.83645  0.82437  1.0000
  H   H267      1.0  0.57766  0.90834  0.83358  1.0000
  H   H268      1.0  0.58424  0.81520  0.86007  1.0000
  H   H269      1.0  0.54958  0.83665  0.92320  1.0000
  H   H270      1.0  0.63756  0.90900  0.92732  1.0000
  C   C165      1.0  0.63155  0.88380  0.90300  1.0000
  H   H271      1.0  0.62613  0.85680  0.92117  1.0000
  H   H272      1.0  0.66090  0.89201  0.88190  1.0000
  H   H273      1.0  0.80939  0.94289  0.77920  1.0000
  C   C166      1.0  0.84002  0.96085  0.79411  1.0000
  H   H274      1.0  0.80944  0.88188  0.80901  1.0000
  N   N18       1.0  0.86419  0.93748  0.79518  1.0000
  H   H275      1.0  0.71303  0.97084  0.80063  1.0000
  C   C167      1.0  0.71407  0.94237  0.80214  1.0000
  H   H276      1.0  0.71830  0.84063  0.80682  1.0000
  C   C168      1.0  0.71721  0.86909  0.80536  1.0000
  H   H277      1.0  0.83304  0.97054  0.82772  1.0000
  H   H278      1.0  0.83417  0.91105  0.85647  1.0000
  S   S67       1.0  0.84841  0.94494  0.02051  1.0000
  C   C169      1.0  0.84030  0.90198  0.82240  1.0000
  Fe  Fe33      1.0  0.77935  0.91747  0.01125  1.0000
  Fe  Fe34      1.0  0.79043  0.96289  0.92919  1.0000
  S   S68       1.0  0.75840  0.97462  0.87508  1.0000
  Fe  Fe35      1.0  0.85554  0.93569  0.94805  1.0000
  S   S69       1.0  0.78652  0.90247  0.94008  1.0000
  S   S70       1.0  0.86054  0.99518  0.93135  1.0000
  C   C170      1.0  0.73538  0.93638  0.83519  1.0000
  H   H279      1.0  0.75327  0.89468  0.86156  1.0000
  C   C171      1.0  0.73705  0.89973  0.83649  1.0000
  S   S71       1.0  0.77835  0.97596  0.00038  1.0000
  Fe  Fe36      1.0  0.84854  0.00255  0.00347  1.0000
  H   H280      1.0  0.85794  0.88403  0.82474  1.0000
  H   H281      1.0  0.90047  0.97377  0.84794  1.0000
  C   C172      1.0  0.90494  0.96287  0.81413  1.0000
  H   H282      1.0  0.92424  0.98968  0.79418  1.0000
  C   C173      1.0  0.97169  0.01798  0.99740  1.0000
  H   H283      1.0  0.02387  0.99209  0.95323  1.0000
  S   S72       1.0  0.90356  0.91904  0.91330  1.0000
  H   H284      1.0  0.98293  0.91616  0.90594  1.0000
  H   H285      1.0  0.95576  0.98558  0.98745  1.0000
  H   H286      1.0  0.87830  0.88745  0.99996  1.0000
  C   C174      1.0  0.96829  0.90635  0.93818  1.0000
  C   C175      1.0  0.90947  0.89056  0.99137  1.0000
  C   C176      1.0  0.98946  0.89646  0.96828  1.0000
  H   H287      1.0  0.92354  0.94583  0.81663  1.0000
  C   C177      1.0  0.92851  0.90389  0.94993  1.0000
  C   C178      1.0  0.97068  0.88374  0.01000  1.0000
  H   H288      1.0  0.02001  0.89798  0.95890  1.0000
  C   C179      1.0  0.03790  0.02449  0.96340  1.0000
  C   C180      1.0  0.93051  0.88042  0.02136  1.0000
