data_image0
_chemical_formula_structural       FeNSCFeHCHSHSH2NCHC5HS2H4SH2CHC2NHCHNHC3H5FeHSHC3H4CHC2FeHC3H2FeHC3H3SH5SCSHC2SH5Fe3C2H2SHC2H2CHCH3CH3SCHC2SFeH2FeSHSCHSCH2CHCHFeHFeH2CH2CHNH2CNHCH2SC2HSHSFeH2CH4C4HCHCHFeHC2HSHCHCHFeSHSCSC2H2SC2HSCHCFeSHS2CFeHCH5C2HC3H3CH7NCH2CH2CHC4S2H2CH2CH4CHC2SCS2NCSH9FeCH2NSCFeHSHCFeSCH2CNFeCH2C2HNSCHCHCSHSFeSCH4CFeCNCSH2C4SH3CSCHCHFeHCHSH2SHCH4CFeSHC2HCSHSCHCH3FeH2CHFeC2HFeCFeH3C2S2H2CHC2H4C4HNH3SCHSH5S2H2NSCH2C2SHC3HFeCHCSHSHC2H3SH3CHC2H3NFeHCH4CHC2HC2H4S2H2CH4FeHCH2SFeS2HCH2CH2SH2C2H2NCSH3SFeC2H2CH3CHC4HFeH2SFeHC2H3CSH2CH3SCH3FeNCSHC2FeSC3H2CHCHCHC2H4NH2CH4SH2CHSH3CH2CHNCH2CH3CFeS2C2HC3HSH2CNC2H2FeHCS2H3CH3CH3SHSCFeH5CHC4H2C2HCH2FeNHCH2SH2FeCHSH2SCH2SCH3CHNH3CHCH3CHC3H2CHSH2CFeSC3FeCS2H2C2HFeSCSCH5CH5CH4C2HNHCHC2SH3CFeSHCSH2CHSHC2H2NH6CFeH3CH2CNCH4CSCH3CH3C2H6CH2CNHC2HS2CFeSC2SC2HCFeCH2CHCSHFeSFeHSCHS2NH7C9FeH2CH3SH2CH10CHSHSFeH2NH2C2HC2SHSC2FeCH4C2HCFeSHSHFeS3HNH2FeHCH2C7SH3CSHFe2SHNH4CHC2H2SH4CSH9CHC2H2FeNH2FeH2CHS2C2NH3SFeCH3C3HS2CH2FeS2C3H3C2SCHSC2NHSHC2HCH2CH2C3FeNH2CFeH3C2HSH4CHCHSC2H2CHC2S2H3CSH2SCHCHSHFeSCSFeSCH2FeH2CHC2HSH2C2H2C3HC2FeHCFeH2CSHFeCNH3CH6C2HCHN
_chemical_formula_sum              "Fe72 N36 S144 C360 H576"
_cell_length_a       36.3607
_cell_length_b       36.7875
_cell_length_c       53.7752
_cell_angle_alpha    89.2417
_cell_angle_beta     89.8433
_cell_angle_gamma    120.012

_space_group_name_H-M_alt    "P 1"
_space_group_IT_number       1

loop_
  _space_group_symop_operation_xyz
  'x, y, z'

loop_
  _atom_site_type_symbol
  _atom_site_label
  _atom_site_symmetry_multiplicity
  _atom_site_fract_x
  _atom_site_fract_y
  _atom_site_fract_z
  _atom_site_occupancy
  Fe  Fe1       1.0  0.07743  0.33967  0.05494  1.0000
  N   N1        1.0  0.10475  0.09830  0.25841  1.0000
  S   S1        1.0  0.10210  0.39993  0.07583  1.0000
  C   C1        1.0  0.50210  0.38046  0.07336  1.0000
  Fe  Fe2       1.0  0.07938  0.35814  0.10996  1.0000
  H   H1        1.0  0.19058  0.33579  0.08603  1.0000
  C   C2        1.0  0.18746  0.34765  0.10439  1.0000
  H   H2        1.0  0.25078  0.42860  0.05391  1.0000
  S   S2        1.0  0.12206  0.36786  0.14247  1.0000
  H   H3        1.0  0.27339  0.11193  0.12657  1.0000
  S   S3        1.0  0.18469  0.26519  0.26209  1.0000
  H   H4        1.0  0.11314  0.32833  0.23041  1.0000
  H   H5        1.0  0.27083  0.09205  0.05817  1.0000
  N   N2        1.0  0.22469  0.35870  0.12023  1.0000
  C   C3        1.0  0.37225  0.07983  0.18761  1.0000
  H   H6        1.0  0.24780  0.11132  0.09785  1.0000
  C   C4        1.0  0.26340  0.39229  0.10786  1.0000
  C   C5        1.0  0.23245  0.39855  0.04506  1.0000
  C   C6        1.0  0.33768  0.06902  0.20375  1.0000
  C   C7        1.0  0.23816  0.19425  0.27780  1.0000
  C   C8        1.0  0.09785  0.35583  0.17212  1.0000
  H   H7        1.0  0.15752  0.32298  0.11340  1.0000
  S   S4        1.0  0.07342  0.23791  0.24846  1.0000
  S   S5        1.0  0.34614  0.09377  0.23275  1.0000
  H   H8        1.0  0.24623  0.38242  0.15696  1.0000
  H   H9        1.0  0.08315  0.14125  0.24819  1.0000
  H   H10       1.0  0.23420  0.22862  0.24607  1.0000
  H   H11       1.0  0.34927  0.08449  0.09825  1.0000
  S   S6        1.0  0.40568  0.38294  0.03906  1.0000
  H   H12       1.0  0.26957  0.38162  0.08988  1.0000
  H   H13       1.0  0.25694  0.32845  0.13605  1.0000
  C   C9        1.0  0.33594  0.10319  0.10633  1.0000
  H   H14       1.0  0.14754  0.34833  0.18889  1.0000
  C   C10       1.0  0.40203  0.16249  0.03470  1.0000
  C   C11       1.0  0.36621  0.05968  0.16465  1.0000
  N   N3        1.0  0.29502  0.09273  0.09480  1.0000
  H   H15       1.0  0.25958  0.03942  0.11930  1.0000
  C   C12       1.0  0.27859  0.11824  0.10616  1.0000
  H   H16       1.0  0.26052  0.42052  0.10381  1.0000
  N   N4        1.0  0.52440  0.37189  0.05326  1.0000
  H   H17       1.0  0.18326  0.37527  0.10087  1.0000
  C   C13       1.0  0.29705  0.03801  0.19679  1.0000
  C   C14       1.0  0.05919  0.33387  0.21952  1.0000
  C   C15       1.0  0.11747  0.34694  0.19181  1.0000
  H   H18       1.0  0.23384  0.30932  0.10616  1.0000
  H   H19       1.0  0.29200  0.40225  0.11953  1.0000
  H   H20       1.0  0.48788  0.45693  0.04367  1.0000
  H   H21       1.0  0.18983  0.34887  0.15433  1.0000
  H   H22       1.0  0.31646  0.08534  0.05879  1.0000
  Fe  Fe3       1.0  0.28857  0.07398  0.25766  1.0000
  H   H23       1.0  0.17342  0.39877  0.04818  1.0000
  S   S7        1.0  0.24184  0.09672  0.25375  1.0000
  H   H24       1.0  0.20042  0.29530  0.13345  1.0000
  C   C16       1.0  0.09801  0.33561  0.21539  1.0000
  C   C17       1.0  0.21874  0.37355  0.14450  1.0000
  C   C18       1.0  0.26420  0.04767  0.09907  1.0000
  H   H25       1.0  0.40378  0.10382  0.19291  1.0000
  H   H26       1.0  0.21456  0.40142  0.14221  1.0000
  H   H27       1.0  0.54131  0.49932  0.07529  1.0000
  H   H28       1.0  0.49215  0.30561  0.06149  1.0000
  C   C19       1.0  0.22917  0.32125  0.12415  1.0000
  H   H29       1.0  0.23265  0.03861  0.09108  1.0000
  C   C20       1.0  0.53982  0.02707  0.06016  1.0000
  C   C21       1.0  0.13635  0.11271  0.23791  1.0000
  Fe  Fe4       1.0  0.05346  0.27668  0.26993  1.0000
  H   H30       1.0  0.51443  0.04889  0.03129  1.0000
  C   C22       1.0  0.05924  0.35456  0.17632  1.0000
  C   C23       1.0  0.18861  0.38165  0.04188  1.0000
  C   C24       1.0  0.39909  0.23429  0.04934  1.0000
  H   H31       1.0  0.12890  0.06227  0.27661  1.0000
  H   H32       1.0  0.39297  0.06811  0.15233  1.0000
  Fe  Fe5       1.0  0.39933  0.06712  0.05074  1.0000
  H   H33       1.0  0.32243  0.13602  0.06383  1.0000
  C   C25       1.0  0.20242  0.23515  0.27811  1.0000
  C   C26       1.0  0.07566  0.49171  0.03789  1.0000
  C   C27       1.0  0.30139  0.10188  0.06775  1.0000
  H   H34       1.0  0.12447  0.12092  0.22094  1.0000
  H   H35       1.0  0.27016  0.02956  0.20899  1.0000
  H   H36       1.0  0.35992  0.13697  0.10366  1.0000
  S   S8        1.0  0.39703  0.27883  0.05899  1.0000
  H   H37       1.0  0.30128  0.15245  0.10340  1.0000
  H   H38       1.0  0.14415  0.08807  0.23286  1.0000
  H   H39       1.0  0.33219  0.09629  0.12670  1.0000
  H   H40       1.0  0.12471  0.16078  0.27072  1.0000
  H   H41       1.0  0.46864  0.35448  0.07557  1.0000
  S   S9        1.0  0.42609  0.07321  0.08912  1.0000
  C   C28       1.0  0.40935  0.21180  0.06659  1.0000
  S   S10       1.0  0.06001  0.29920  0.08919  1.0000
  H   H42       1.0  0.41618  0.22214  0.08562  1.0000
  C   C29       1.0  0.41095  0.17599  0.05927  1.0000
  C   C30       1.0  0.22591  0.22032  0.26546  1.0000
  S   S11       1.0  0.30756  0.39899  0.04169  1.0000
  H   H43       1.0  0.41930  0.15898  0.07251  1.0000
  H   H44       1.0  0.51798  0.38421  0.09157  1.0000
  H   H45       1.0  0.50104  0.40966  0.06948  1.0000
  H   H46       1.0  0.25628  0.18283  0.26800  1.0000
  H   H47       1.0  0.46903  0.33931  0.03075  1.0000
  Fe  Fe6       1.0  0.12255  0.25443  0.27761  1.0000
  Fe  Fe7       1.0  0.19301  0.02966  0.26227  1.0000
  Fe  Fe8       1.0  0.44563  0.02714  0.07568  1.0000
  C   C31       1.0  0.09566  0.13206  0.26451  1.0000
  C   C32       1.0  0.25270  0.37696  0.03673  1.0000
  H   H48       1.0  0.16660  0.14105  0.24321  1.0000
  H   H49       1.0  0.27536  0.02749  0.09048  1.0000
  S   S12       1.0  0.50800  0.02948  0.08428  1.0000
  H   H50       1.0  0.07082  0.03471  0.24565  1.0000
  C   C33       1.0  0.53606  0.03764  0.03562  1.0000
  C   C34       1.0  0.52505  0.33288  0.05933  1.0000
  H   H51       1.0  0.07139  0.12199  0.27963  1.0000
  H   H52       1.0  0.40279  0.06923  0.26898  1.0000
  C   C35       1.0  0.51959  0.48019  0.03787  1.0000
  H   H53       1.0  0.08464  0.46810  0.03508  1.0000
  C   C36       1.0  0.06507  0.06071  0.25074  1.0000
  H   H54       1.0  0.05086  0.06773  0.23435  1.0000
  H   H55       1.0  0.54194  0.33563  0.07703  1.0000
  H   H56       1.0  0.54100  0.32499  0.04438  1.0000
  C   C37       1.0  0.32553  0.02842  0.15785  1.0000
  H   H57       1.0  0.35227  0.05870  0.28030  1.0000
  H   H58       1.0  0.19726  0.19169  0.33519  1.0000
  H   H59       1.0  0.17071  0.37982  0.41905  1.0000
  S   S13       1.0  0.08603  0.34209  0.49172  1.0000
  C   C38       1.0  0.35967  0.05537  0.36831  1.0000
  H   H60       1.0  0.14483  0.36450  0.44873  1.0000
  C   C39       1.0  0.52139  0.04615  0.52747  1.0000
  C   C40       1.0  0.39944  0.17182  0.51305  1.0000
  S   S14       1.0  0.29800  0.08798  0.29856  1.0000
  Fe  Fe9       1.0  0.06860  0.38112  0.46771  1.0000
  H   H61       1.0  0.38848  0.05496  0.30129  1.0000
  H   H62       1.0  0.18415  0.45122  0.42530  1.0000
  Fe  Fe10      1.0  0.43208  0.04681  0.50299  1.0000
  S   S15       1.0  0.19362  0.03787  0.30341  1.0000
  H   H63       1.0  0.30310  0.07830  0.45873  1.0000
  S   S16       1.0  0.39675  0.05865  0.41301  1.0000
  C   C41       1.0  0.34074  0.13726  0.40572  1.0000
  H   H64       1.0  0.08721  0.50861  0.51782  1.0000
  S   S17       1.0  0.09714  0.43648  0.49316  1.0000
  C   C42       1.0  0.19033  0.44850  0.44534  1.0000
  H   H65       1.0  0.39362  0.12771  0.43602  1.0000
  H   H66       1.0  0.28499  0.14361  0.43595  1.0000
  C   C43       1.0  0.20510  0.19946  0.31569  1.0000
  H   H67       1.0  0.15964  0.43735  0.45538  1.0000
  C   C44       1.0  0.21214  0.41510  0.47621  1.0000
  H   H68       1.0  0.27187  0.46720  0.44342  1.0000
  Fe  Fe11      1.0  0.38588  0.03795  0.45354  1.0000
  H   H69       1.0  0.07070  0.30801  0.43981  1.0000
  Fe  Fe12      1.0  0.10913  0.39479  0.51868  1.0000
  H   H70       1.0  0.26125  0.41451  0.43893  1.0000
  H   H71       1.0  0.07054  0.31979  0.34769  1.0000
  C   C45       1.0  0.37800  0.14441  0.44404  1.0000
  H   H72       1.0  0.06008  0.24832  0.41375  1.0000
  H   H73       1.0  0.39971  0.17865  0.44087  1.0000
  C   C46       1.0  0.17624  0.37780  0.43927  1.0000
  H   H74       1.0  0.22418  0.39308  0.48007  1.0000
  N   N5        1.0  0.33590  0.13007  0.43295  1.0000
  H   H75       1.0  0.18745  0.35485  0.44180  1.0000
  H   H76       1.0  0.18149  0.40284  0.48648  1.0000
  C   C47       1.0  0.06483  0.27706  0.40503  1.0000
  N   N6        1.0  0.20674  0.41934  0.44928  1.0000
  H   H77       1.0  0.17418  0.23635  0.31312  1.0000
  C   C48       1.0  0.24807  0.43587  0.43631  1.0000
  H   H78       1.0  0.21283  0.48048  0.45214  1.0000
  H   H79       1.0  0.27628  0.07249  0.42976  1.0000
  S   S18       1.0  0.05251  0.23546  0.36140  1.0000
  C   C49       1.0  0.22797  0.18404  0.30298  1.0000
  C   C50       1.0  0.19187  0.22455  0.30320  1.0000
  H   H80       1.0  0.30954  0.12645  0.39664  1.0000
  S   S19       1.0  0.24255  0.15132  0.31882  1.0000
  H   H81       1.0  0.33113  0.05383  0.33305  1.0000
  S   S20       1.0  0.10685  0.29866  0.29732  1.0000
  Fe  Fe13      1.0  0.24596  0.10335  0.29518  1.0000
  H   H82       1.0  0.33718  0.18803  0.44029  1.0000
  H   H83       1.0  0.37524  0.13841  0.46447  1.0000
  C   C51       1.0  0.37629  0.04860  0.28193  1.0000
  H   H84       1.0  0.24494  0.43937  0.41594  1.0000
  H   H85       1.0  0.31296  0.14867  0.46441  1.0000
  H   H86       1.0  0.23474  0.44580  0.48456  1.0000
  H   H87       1.0  0.41499  0.15409  0.50898  1.0000
  C   C52       1.0  0.42375  0.21556  0.51548  1.0000
  C   C53       1.0  0.30804  0.08478  0.43833  1.0000
  C   C54       1.0  0.32653  0.03885  0.35103  1.0000
  C   C55       1.0  0.07098  0.31087  0.41979  1.0000
  H   H88       1.0  0.15221  0.11548  0.28659  1.0000
  C   C56       1.0  0.06419  0.27993  0.37900  1.0000
  H   H89       1.0  0.32205  0.06621  0.43095  1.0000
  C   C57       1.0  0.35449  0.03614  0.39176  1.0000
  H   H90       1.0  0.45791  0.23123  0.51311  1.0000
  Fe  Fe14      1.0  0.35546  0.05983  0.50069  1.0000
  H   H91       1.0  0.30157  0.15904  0.52409  1.0000
  C   C58       1.0  0.36014  0.21846  0.52461  1.0000
  C   C59       1.0  0.51991  0.49354  0.52415  1.0000
  H   H92       1.0  0.36158  0.17112  0.40092  1.0000
  S   S21       1.0  0.41794  0.09032  0.48064  1.0000
  H   H93       1.0  0.35519  0.11983  0.39715  1.0000
  C   C60       1.0  0.31687  0.15366  0.44384  1.0000
  H   H94       1.0  0.14809  0.33980  0.52502  1.0000
  C   C61       1.0  0.06959  0.52060  0.52760  1.0000
  H   H95       1.0  0.38942  0.08330  0.36354  1.0000
  Fe  Fe15      1.0  0.06069  0.24107  0.31944  1.0000
  S   S22       1.0  0.08315  0.39037  0.42651  1.0000
  H   H96       1.0  0.08214  0.37990  0.37369  1.0000
  S   S23       1.0  0.08104  0.19861  0.30181  1.0000
  C   C62       1.0  0.07683  0.34791  0.40855  1.0000
  S   S24       1.0  0.49586  0.07555  0.52231  1.0000
  C   C63       1.0  0.07743  0.35125  0.38252  1.0000
  C   C64       1.0  0.07096  0.31729  0.36775  1.0000
  H   H97       1.0  0.49153  0.46531  0.51859  1.0000
  H   H98       1.0  0.09936  0.07778  0.29653  1.0000
  S   S25       1.0  0.43638  0.29320  0.52665  1.0000
  C   C65       1.0  0.40428  0.23895  0.52160  1.0000
  C   C66       1.0  0.35532  0.15126  0.51610  1.0000
  H   H99       1.0  0.18895  0.30258  0.52432  1.0000
  S   S26       1.0  0.32375  0.09655  0.51254  1.0000
  C   C67       1.0  0.33574  0.17474  0.52181  1.0000
  H   H100      1.0  0.34476  0.23629  0.52896  1.0000
  C   C68       1.0  0.12196  0.08789  0.28054  1.0000
  Fe  Fe16      1.0  0.24317  0.26004  0.75623  1.0000
  S   S27       1.0  0.25957  0.30738  0.72473  1.0000
  H   H101      1.0  0.24376  0.32973  0.59313  1.0000
  S   S28       1.0  0.18985  0.19322  0.75732  1.0000
  S   S29       1.0  0.34573  0.29577  0.56613  1.0000
  C   C69       1.0  0.32190  0.26974  0.67837  1.0000
  Fe  Fe17      1.0  0.33929  0.35050  0.55327  1.0000
  H   H102      1.0  0.42722  0.35873  0.77512  1.0000
  C   C70       1.0  0.26439  0.39496  0.54840  1.0000
  H   H103      1.0  0.05614  0.49512  0.61177  1.0000
  H   H104      1.0  0.04663  0.42292  0.61671  1.0000
  H   H105      1.0  0.35872  0.36923  0.72735  1.0000
  H   H106      1.0  0.21753  0.21357  0.62756  1.0000
  H   H107      1.0  0.18877  0.27811  0.63780  1.0000
  C   C71       1.0  0.28779  0.30339  0.69920  1.0000
  C   C72       1.0  0.29773  0.27133  0.69829  1.0000
  H   H108      1.0  0.45808  0.24634  0.56466  1.0000
  C   C73       1.0  0.33602  0.29995  0.65911  1.0000
  C   C74       1.0  0.32586  0.33191  0.65985  1.0000
  C   C75       1.0  0.30177  0.33360  0.67988  1.0000
  H   H109      1.0  0.28689  0.24773  0.71298  1.0000
  H   H110      1.0  0.07864  0.45927  0.55179  1.0000
  H   H111      1.0  0.33700  0.35557  0.64519  1.0000
  C   C76       1.0  0.12558  0.48771  0.60810  1.0000
  H   H112      1.0  0.47638  0.26728  0.61942  1.0000
  H   H113      1.0  0.26220  0.32947  0.62416  1.0000
  H   H114      1.0  0.20254  0.26324  0.57083  1.0000
  H   H115      1.0  0.32953  0.24484  0.67788  1.0000
  H   H116      1.0  0.43164  0.19000  0.62569  1.0000
  H   H117      1.0  0.27088  0.25220  0.61859  1.0000
  H   H118      1.0  0.15886  0.22972  0.62151  1.0000
  N   N7        1.0  0.22334  0.26824  0.60869  1.0000
  C   C77       1.0  0.22050  0.07796  0.77536  1.0000
  H   H119      1.0  0.29437  0.35864  0.68058  1.0000
  H   H120      1.0  0.19150  0.21434  0.58524  1.0000
  C   C78       1.0  0.24564  0.35404  0.53949  1.0000
  H   H121      1.0  0.17021  0.27856  0.60689  1.0000
  H   H122      1.0  0.40323  0.36128  0.73197  1.0000
  C   C79       1.0  0.24001  0.24789  0.62555  1.0000
  H   H123      1.0  0.39537  0.25438  0.57358  1.0000
  C   C80       1.0  0.21503  0.24849  0.58403  1.0000
  C   C81       1.0  0.10526  0.47323  0.56519  1.0000
  C   C82       1.0  0.05916  0.42628  0.59741  1.0000
  C   C83       1.0  0.20819  0.03989  0.76362  1.0000
  S   S30       1.0  0.23802  0.12353  0.75693  1.0000
  S   S31       1.0  0.36569  0.29610  0.63437  1.0000
  H   H124      1.0  0.24466  0.25220  0.57541  1.0000
  H   H125      1.0  0.12707  0.50633  0.55914  1.0000
  C   C84       1.0  0.18350  0.26342  0.61919  1.0000
  H   H126      1.0  0.24560  0.26134  0.64452  1.0000
  H   H127      1.0  0.39509  0.43452  0.75190  1.0000
  C   C85       1.0  0.25498  0.31336  0.60597  1.0000
  H   H128      1.0  0.11486  0.48610  0.62769  1.0000
  H   H129      1.0  0.42473  0.19059  0.56839  1.0000
  H   H130      1.0  0.28527  0.31789  0.59805  1.0000
  H   H131      1.0  0.12292  0.45591  0.56340  1.0000
  C   C86       1.0  0.37261  0.35541  0.74021  1.0000
  H   H132      1.0  0.09413  0.05868  0.73818  1.0000
  C   C87       1.0  0.33664  0.36433  0.77538  1.0000
  C   C88       1.0  0.24123  0.41623  0.54853  1.0000
  S   S32       1.0  0.40025  0.38001  0.53085  1.0000
  C   C89       1.0  0.06754  0.49535  0.59253  1.0000
  S   S33       1.0  0.27296  0.32590  0.53866  1.0000
  S   S34       1.0  0.29185  0.24451  0.76980  1.0000
  N   N8        1.0  0.08939  0.47066  0.59084  1.0000
  C   C90       1.0  0.52375  0.50723  0.54865  1.0000
  S   S35       1.0  0.36826  0.38758  0.58783  1.0000
  H   H133      1.0  0.43107  0.27338  0.62546  1.0000
  H   H134      1.0  0.36501  0.23262  0.60160  1.0000
  H   H135      1.0  0.38384  0.16117  0.60809  1.0000
  H   H136      1.0  0.07437  0.40656  0.59590  1.0000
  H   H137      1.0  0.14298  0.46999  0.60708  1.0000
  H   H138      1.0  0.35057  0.32086  0.74047  1.0000
  H   H139      1.0  0.32198  0.37837  0.76331  1.0000
  H   H140      1.0  0.36310  0.19854  0.57728  1.0000
  H   H141      1.0  0.29678  0.41032  0.55494  1.0000
  Fe  Fe18      1.0  0.37917  0.33470  0.59895  1.0000
  C   C91       1.0  0.38436  0.22800  0.58726  1.0000
  H   H142      1.0  0.38647  0.19616  0.63198  1.0000
  H   H143      1.0  0.25594  0.44809  0.55513  1.0000
  N   N9        1.0  0.42079  0.22673  0.59838  1.0000
  S   S36       1.0  0.04660  0.36844  0.53880  1.0000
  C   C92       1.0  0.40501  0.19195  0.61687  1.0000
  Fe  Fe19      1.0  0.43034  0.41334  0.56637  1.0000
  H   H144      1.0  0.47238  0.21807  0.58632  1.0000
  S   S37       1.0  0.48190  0.48151  0.57062  1.0000
  H   H145      1.0  0.21015  0.03911  0.74357  1.0000
  C   C93       1.0  0.44857  0.26702  0.61068  1.0000
  Fe  Fe20      1.0  0.40864  0.32776  0.54673  1.0000
  S   S38       1.0  0.44324  0.36314  0.58056  1.0000
  C   C94       1.0  0.44508  0.22008  0.57863  1.0000
  H   H146      1.0  0.46095  0.29382  0.59712  1.0000
  H   H147      1.0  0.31380  0.33013  0.77645  1.0000
  C   C95       1.0  0.07625  0.17295  0.77005  1.0000
  N   N10       1.0  0.37820  0.37286  0.76543  1.0000
  Fe  Fe21      1.0  0.23751  0.17865  0.77406  1.0000
  C   C96       1.0  0.19934  0.39661  0.53984  1.0000
  H   H148      1.0  0.10616  0.19961  0.76408  1.0000
  H   H149      1.0  0.43930  0.42629  0.75677  1.0000
  C   C97       1.0  0.40759  0.41868  0.76421  1.0000
  C   C98       1.0  0.20366  0.33434  0.53111  1.0000
  H   H150      1.0  0.11320  0.10754  0.77370  1.0000
  N   N11       1.0  0.08419  0.04038  0.77683  1.0000
  S   S39       1.0  0.17162  0.42449  0.53897  1.0000
  C   C99       1.0  0.18051  0.35546  0.53136  1.0000
  H   H151      1.0  0.12829  0.04048  0.75008  1.0000
  C   C100      1.0  0.09548  0.03556  0.75114  1.0000
  H   H152      1.0  0.14874  0.52123  0.60352  1.0000
  C   C101      1.0  0.21404  0.35389  0.93194  1.0000
  S   S40       1.0  0.22424  0.18685  0.81374  1.0000
  H   H153      1.0  0.38560  0.17511  0.99840  1.0000
  S   S41       1.0  0.31956  0.30258  0.01789  1.0000
  Fe  Fe22      1.0  0.27380  0.25485  0.80806  1.0000
  S   S42       1.0  0.32717  0.30080  0.83256  1.0000
  C   C102      1.0  0.26029  0.38745  0.96665  1.0000
  H   H154      1.0  0.25598  0.31366  0.97283  1.0000
  H   H155      1.0  0.38279  0.23812  0.01131  1.0000
  H   H156      1.0  0.20288  0.04256  0.83552  1.0000
  H   H157      1.0  0.22477  0.28839  0.94617  1.0000
  C   C103      1.0  0.50185  0.36657  0.02960  1.0000
  Fe  Fe23      1.0  0.34893  0.32267  0.97958  1.0000
  C   C104      1.0  0.23196  0.31344  0.95993  1.0000
  N   N12       1.0  0.24787  0.35484  0.94757  1.0000
  C   C105      1.0  0.35308  0.32380  0.88066  1.0000
  S   S43       1.0  0.10999  0.32222  0.02534  1.0000
  H   H158      1.0  0.20264  0.30410  0.97101  1.0000
  H   H159      1.0  0.23275  0.38158  0.97863  1.0000
  C   C106      1.0  0.31173  0.28686  0.91753  1.0000
  C   C107      1.0  0.27914  0.25853  0.90211  1.0000
  C   C108      1.0  0.28350  0.26261  0.87608  1.0000
  C   C109      1.0  0.32060  0.29512  0.86524  1.0000
  S   S44       1.0  0.49417  0.45383  0.98977  1.0000
  H   H160      1.0  0.24413  0.32110  0.01911  1.0000
  H   H161      1.0  0.25046  0.23301  0.91031  1.0000
  H   H162      1.0  0.25830  0.24035  0.86440  1.0000
  C   C110      1.0  0.20419  0.04173  0.81545  1.0000
  S   S45       1.0  0.36879  0.39061  0.98460  1.0000
  C   C111      1.0  0.34867  0.31977  0.90676  1.0000
  H   H163      1.0  0.27651  0.34081  0.91684  1.0000
  C   C112      1.0  0.07233  0.15525  0.79378  1.0000
  H   H164      1.0  0.28502  0.38828  0.97920  1.0000
  Fe  Fe24      1.0  0.42967  0.39764  0.99980  1.0000
  H   H165      1.0  0.20376  0.32928  0.91751  1.0000
  C   C113      1.0  0.28505  0.36440  0.93173  1.0000
  H   H166      1.0  0.27341  0.41929  0.95808  1.0000
  S   S46       1.0  0.11479  0.17612  0.81458  1.0000
  H   H167      1.0  0.22511  0.38454  0.92215  1.0000
  H   H168      1.0  0.29879  0.39587  0.92259  1.0000
  S   S47       1.0  0.30369  0.28075  0.95008  1.0000
  H   H169      1.0  0.31062  0.36381  0.94271  1.0000
  C   C114      1.0  0.21837  0.07888  0.80132  1.0000
  H   H170      1.0  0.22836  0.10825  0.81052  1.0000
  H   H171      1.0  0.05773  0.23532  0.00155  1.0000
  H   H172      1.0  0.16654  0.29160  0.01283  1.0000
  H   H173      1.0  0.18555  0.34699  0.94330  1.0000
  C   C115      1.0  0.53051  0.48593  0.01261  1.0000
  Fe  Fe25      1.0  0.17956  0.20542  0.79670  1.0000
  S   S48       1.0  0.22778  0.27409  0.79422  1.0000
  H   H174      1.0  0.38190  0.34901  0.87240  1.0000
  C   C116      1.0  0.22884  0.33827  0.02517  1.0000
  C   C117      1.0  0.18499  0.32161  0.02166  1.0000
  H   H175      1.0  0.37394  0.34181  0.91848  1.0000
  C   C118      1.0  0.11442  0.08308  0.78549  1.0000
  S   S49       1.0  0.40237  0.11727  0.02471  1.0000
  H   H176      1.0  0.41238  0.43276  0.78297  1.0000
  S   S50       1.0  0.41216  0.33099  0.99105  1.0000
  C   C119      1.0  0.39231  0.18533  0.01747  1.0000
  H   H177      1.0  0.39991  0.36501  0.80126  1.0000
  C   C120      1.0  0.39075  0.22106  0.02475  1.0000
  H   H178      1.0  0.49949  0.39478  0.02468  1.0000
  H   H179      1.0  0.33933  0.37637  0.79457  1.0000
  H   H180      1.0  0.51820  0.36101  0.01382  1.0000
  Fe  Fe26      1.0  0.34344  0.37089  0.02345  1.0000
  H   H181      1.0  0.14772  0.08941  0.78491  1.0000
  H   H182      1.0  0.37434  0.31841  0.78341  1.0000
  C   C121      1.0  0.39585  0.35303  0.78195  1.0000
  H   H183      1.0  0.10726  0.08781  0.80494  1.0000
  Fe  Fe27      1.0  0.38422  0.31593  0.02971  1.0000
  C   C122      1.0  0.16479  0.34324  0.03007  1.0000
  C   C123      1.0  0.25318  0.88244  0.05252  1.0000
  H   H184      1.0  0.19386  0.76740  0.07615  1.0000
  Fe  Fe28      1.0  0.36123  0.97170  0.05010  1.0000
  C   C124      1.0  0.34209  0.99714  0.24997  1.0000
  Fe  Fe29      1.0  0.36322  0.01559  0.09827  1.0000
  H   H185      1.0  0.19437  0.85495  0.07348  1.0000
  H   H186      1.0  0.24139  0.76416  0.07535  1.0000
  H   H187      1.0  0.04669  0.96223  0.22507  1.0000
  C   C125      1.0  0.18633  0.82309  0.03883  1.0000
  C   C126      1.0  0.20978  0.85360  0.05655  1.0000
  S   S51       1.0  0.23925  0.00607  0.26335  1.0000
  S   S52       1.0  0.31564  0.00223  0.12929  1.0000
  H   H188      1.0  0.27100  0.90584  0.06630  1.0000
  H   H189      1.0  0.37772  0.95791  0.27376  1.0000
  C   C127      1.0  0.29107  0.01779  0.17396  1.0000
  H   H190      1.0  0.25949  0.99368  0.16879  1.0000
  C   C128      1.0  0.43383  0.92520  0.04529  1.0000
  C   C129      1.0  0.20227  0.67972  0.07036  1.0000
  H   H191      1.0  0.31696  0.00568  0.24758  1.0000
  H   H192      1.0  0.12502  0.70586  0.06798  1.0000
  H   H193      1.0  0.20314  0.73866  0.10016  1.0000
  H   H194      1.0  0.45871  0.95701  0.05107  1.0000
  C   C130      1.0  0.13893  0.68525  0.07127  1.0000
  C   C131      1.0  0.20683  0.74605  0.07986  1.0000
  C   C132      1.0  0.19062  0.71910  0.03828  1.0000
  C   C133      1.0  0.09148  0.95603  0.24835  1.0000
  H   H195      1.0  0.12859  0.93999  0.27251  1.0000
  N   N13       1.0  0.18473  0.70754  0.06499  1.0000
  H   H196      1.0  0.13308  0.67513  0.09116  1.0000
  H   H197      1.0  0.43413  0.90219  0.05878  1.0000
  H   H198      1.0  0.41800  0.01055  0.26540  1.0000
  S   S53       1.0  0.13256  0.78586  0.04517  1.0000
  C   C134      1.0  0.06264  0.89103  0.27235  1.0000
  H   H199      1.0  0.19834  0.67026  0.09037  1.0000
  S   S54       1.0  0.05399  0.67017  0.03335  1.0000
  H   H200      1.0  0.50323  0.58575  0.04333  1.0000
  H   H201      1.0  0.23672  0.69541  0.06563  1.0000
  H   H202      1.0  0.32827  0.96380  0.24448  1.0000
  H   H203      1.0  0.12107  0.65669  0.05978  1.0000
  H   H204      1.0  0.52710  0.66218  0.04534  1.0000
  S   S55       1.0  0.38477  0.96994  0.08829  1.0000
  S   S56       1.0  0.33517  0.01294  0.06064  1.0000
  H   H205      1.0  0.40277  0.92389  0.04736  1.0000
  H   H206      1.0  0.18584  0.65039  0.05933  1.0000
  N   N14       1.0  0.35779  0.00380  0.27580  1.0000
  S   S57       1.0  0.13332  0.00599  0.24008  1.0000
  C   C135      1.0  0.09736  0.93006  0.26514  1.0000
  H   H207      1.0  0.17665  0.73911  0.03358  1.0000
  H   H208      1.0  0.36789  0.01702  0.23642  1.0000
  C   C136      1.0  0.05119  0.94267  0.23850  1.0000
  C   C137      1.0  0.05212  0.55295  0.04459  1.0000
  S   S58       1.0  0.42349  0.02551  0.03671  1.0000
  H   H209      1.0  0.22479  0.73708  0.03286  1.0000
  C   C138      1.0  0.27345  0.88053  0.03085  1.0000
  C   C139      1.0  0.39065  0.99159  0.27822  1.0000
  C   C140      1.0  0.31601  0.99994  0.39775  1.0000
  H   H210      1.0  0.25361  0.95460  0.38482  1.0000
  Fe  Fe30      1.0  0.34417  0.97261  0.49489  1.0000
  C   C141      1.0  0.53001  0.98591  0.51973  1.0000
  H   H211      1.0  0.52120  0.68167  0.51219  1.0000
  C   C142      1.0  0.25932  0.88288  0.52079  1.0000
  S   S59       1.0  0.32218  0.00970  0.47226  1.0000
  H   H212      1.0  0.15481  0.81255  0.48897  1.0000
  S   S60       1.0  0.40615  0.99708  0.47386  1.0000
  H   H213      1.0  0.09292  0.86650  0.49784  1.0000
  C   C143      1.0  0.08923  0.81128  0.46447  1.0000
  C   C144      1.0  0.05205  0.78202  0.50338  1.0000
  H   H214      1.0  0.49429  0.60514  0.51644  1.0000
  H   H215      1.0  0.31185  0.98460  0.41568  1.0000
  H   H216      1.0  0.06713  0.87093  0.28536  1.0000
  S   S61       1.0  0.24666  0.97999  0.33501  1.0000
  H   H217      1.0  0.06807  0.82411  0.45978  1.0000
  H   H218      1.0  0.08158  0.98107  0.35228  1.0000
  H   H219      1.0  0.12592  0.78983  0.51726  1.0000
  C   C145      1.0  0.28809  0.00253  0.35688  1.0000
  H   H220      1.0  0.12046  0.83155  0.45506  1.0000
  C   C146      1.0  0.32214  0.97798  0.29310  1.0000
  C   C147      1.0  0.28307  0.98297  0.38024  1.0000
  H   H221      1.0  0.14533  0.87328  0.49413  1.0000
  H   H222      1.0  0.47832  0.99321  0.50573  1.0000
  H   H223      1.0  0.07504  0.77945  0.45627  1.0000
  N   N15       1.0  0.09410  0.80943  0.49165  1.0000
  Fe  Fe31      1.0  0.24549  0.02172  0.30408  1.0000
  H   H224      1.0  0.29692  0.98659  0.29185  1.0000
  C   C148      1.0  0.11288  0.85211  0.50188  1.0000
  H   H225      1.0  0.30703  0.94394  0.28905  1.0000
  H   H226      1.0  0.24708  0.81927  0.51932  1.0000
  H   H227      1.0  0.26318  0.94259  0.52595  1.0000
  H   H228      1.0  0.11601  0.85151  0.52245  1.0000
  C   C149      1.0  0.50697  0.00701  0.51668  1.0000
  H   H229      1.0  0.40313  0.99631  0.29752  1.0000
  C   C150      1.0  0.23645  0.83978  0.52662  1.0000
  C   C151      1.0  0.54043  0.68597  0.52911  1.0000
  H   H230      1.0  0.33261  0.98232  0.31283  1.0000
  C   C152      1.0  0.07020  0.98409  0.33359  1.0000
  C   C153      1.0  0.12234  0.79223  0.49692  1.0000
  H   H231      1.0  0.10950  0.76013  0.48936  1.0000
  H   H232      1.0  0.09314  0.98461  0.31958  1.0000
  H   H233      1.0  0.51880  0.95576  0.51115  1.0000
  H   H234      1.0  0.07174  0.01506  0.33254  1.0000
  S   S62       1.0  0.30420  0.90247  0.50111  1.0000
  S   S63       1.0  0.37138  0.01988  0.52538  1.0000
  H   H235      1.0  0.04966  0.90809  0.31845  1.0000
  H   H236      1.0  0.05438  0.78041  0.52398  1.0000
  C   C154      1.0  0.24564  0.90933  0.53036  1.0000
  H   H237      1.0  0.53714  0.96472  0.64553  1.0000
  H   H238      1.0  0.06457  0.84362  0.63253  1.0000
  H   H239      1.0  0.06217  0.79451  0.63909  1.0000
  H   H240      1.0  0.15065  0.87155  0.67832  1.0000
  Fe  Fe32      1.0  0.06753  0.66665  0.57306  1.0000
  H   H241      1.0  0.09926  0.82541  0.67860  1.0000
  C   C155      1.0  0.09190  0.74642  0.69838  1.0000
  H   H242      1.0  0.52389  0.58651  0.53346  1.0000
  H   H243      1.0  0.17757  0.83949  0.64873  1.0000
  S   S64       1.0  0.07204  0.71185  0.54308  1.0000
  Fe  Fe33      1.0  0.09400  0.75959  0.57310  1.0000
  S   S65       1.0  0.09729  0.62651  0.56470  1.0000
  S   S66       1.0  0.09522  0.71647  0.60262  1.0000
  H   H244      1.0  0.52119  0.68476  0.54556  1.0000
  C   C156      1.0  0.51520  0.61154  0.53280  1.0000
  H   H245      1.0  0.10423  0.87513  0.67106  1.0000
  H   H246      1.0  0.12669  0.79234  0.64908  1.0000
  C   C157      1.0  0.20905  0.89262  0.54551  1.0000
  H   H247      1.0  0.13528  0.90958  0.63034  1.0000
  H   H248      1.0  0.18274  0.78986  0.54641  1.0000
  S   S67       1.0  0.13899  0.82955  0.56901  1.0000
  H   H249      1.0  0.12177  0.74749  0.70171  1.0000
  H   H250      1.0  0.19842  0.91320  0.55266  1.0000
  C   C158      1.0  0.18606  0.84948  0.55119  1.0000
  C   C159      1.0  0.14573  0.82370  0.63997  1.0000
  H   H251      1.0  0.08489  0.82195  0.61034  1.0000
  H   H252      1.0  0.07929  0.71094  0.66459  1.0000
  N   N16       1.0  0.12452  0.84892  0.64213  1.0000
  C   C160      1.0  0.15057  0.88992  0.62934  1.0000
  S   S68       1.0  0.10878  0.89597  0.75998  1.0000
  H   H253      1.0  0.08881  0.52877  0.58678  1.0000
  H   H254      1.0  0.07092  0.71568  0.77588  1.0000
  H   H255      1.0  0.15023  0.81820  0.62017  1.0000
  S   S69       1.0  0.10846  0.79177  0.74099  1.0000
  Fe  Fe34      1.0  0.08796  0.82785  0.76572  1.0000
  C   C161      1.0  0.06804  0.72591  0.67730  1.0000
  C   C162      1.0  0.07739  0.76566  0.71504  1.0000
  H   H256      1.0  0.18266  0.90783  0.63769  1.0000
  H   H257      1.0  0.07339  0.00349  0.74412  1.0000
  C   C163      1.0  0.06853  0.57758  0.54989  1.0000
  H   H258      1.0  0.53931  0.01218  0.63472  1.0000
  H   H259      1.0  0.49610  0.60772  0.54985  1.0000
  H   H260      1.0  0.18453  0.97369  0.76845  1.0000
  C   C164      1.0  0.09092  0.56149  0.53711  1.0000
  H   H261      1.0  0.15522  0.88588  0.60929  1.0000
  C   C165      1.0  0.08220  0.82632  0.63054  1.0000
  C   C166      1.0  0.19332  0.00274  0.77768  1.0000
  C   C167      1.0  0.11955  0.85569  0.66867  1.0000
  C   C168      1.0  0.20006  0.82311  0.54194  1.0000
  H   H262      1.0  0.12500  0.58064  0.53482  1.0000
  Fe  Fe35      1.0  0.12030  0.90193  0.80102  1.0000
  H   H263      1.0  0.51259  0.59071  0.01023  1.0000
  H   H264      1.0  0.05985  0.71730  0.80841  1.0000
  S   S70       1.0  0.12544  0.71385  0.98918  1.0000
  Fe  Fe36      1.0  0.09530  0.73501  0.01738  1.0000
  H   H265      1.0  0.07581  0.76985  0.84200  1.0000
  C   C169      1.0  0.06252  0.76073  0.86049  1.0000
  C   C170      1.0  0.15875  0.87131  0.86916  1.0000
  H   H266      1.0  0.26547  0.84862  0.99625  1.0000
  H   H267      1.0  0.18871  0.79889  0.00299  1.0000
  H   H268      1.0  0.18728  0.87333  0.87808  1.0000
  C   C171      1.0  0.19132  0.00355  0.80361  1.0000
  S   S71       1.0  0.10670  0.83577  0.80604  1.0000
  H   H269      1.0  0.11220  0.74971  0.87346  1.0000
  H   H270      1.0  0.09961  0.82477  0.90413  1.0000
  C   C172      1.0  0.08295  0.74905  0.87830  1.0000
  H   H271      1.0  0.44725  0.94351  0.98283  1.0000
  H   H272      1.0  0.13796  0.83827  0.86349  1.0000
  H   H273      1.0  0.41055  0.86720  0.99295  1.0000
  S   S72       1.0  0.09495  0.72585  0.92445  1.0000
  C   C173      1.0  0.20652  0.82171  0.01698  1.0000
  H   H274      1.0  0.17494  0.69083  0.02639  1.0000
  H   H275      1.0  0.19368  0.93276  0.90271  1.0000
  H   H276      1.0  0.16959  0.89102  0.85186  1.0000
  Fe  Fe37      1.0  0.08094  0.64871  0.00338  1.0000
  N   N17       1.0  0.13618  0.88510  0.88611  1.0000
  C   C174      1.0  0.08614  0.00882  0.79323  1.0000
  S   S73       1.0  0.17181  0.95685  0.82123  1.0000
  H   H277      1.0  0.17635  0.95029  0.87625  1.0000
  C   C175      1.0  0.04938  0.71908  0.78923  1.0000
  C   C176      1.0  0.44188  0.94893  0.00248  1.0000
  Fe  Fe38      1.0  0.07263  0.70552  0.96412  1.0000
  S   S74       1.0  0.10993  0.60736  0.00967  1.0000
  C   C177      1.0  0.40605  0.87481  0.01228  1.0000
  C   C178      1.0  0.16507  0.92919  0.89302  1.0000
  C   C179      1.0  0.25003  0.85002  0.01314  1.0000
  H   H278      1.0  0.46760  0.98086  0.00738  1.0000
  H   H279      1.0  0.14901  0.94090  0.90555  1.0000
  C   C180      1.0  0.12227  0.85802  0.90872  1.0000
  H   H280      1.0  0.10811  0.90280  0.85669  1.0000
  C   C181      1.0  0.48183  0.91717  0.01787  1.0000
  H   H281      1.0  0.10582  0.86797  0.92217  1.0000
  C   C182      1.0  0.06615  0.73708  0.90246  1.0000
  H   H282      1.0  0.50845  0.94755  0.02423  1.0000
  C   C183      1.0  0.09867  0.88193  0.87346  1.0000
  C   C184      1.0  0.08433  0.56047  0.02755  1.0000
  H   H283      1.0  0.41146  0.94932  0.00327  1.0000
  H   H284      1.0  0.14954  0.85855  0.91842  1.0000
  H   H285      1.0  0.12183  0.53598  0.01161  1.0000
  H   H286      1.0  0.48945  0.91282  0.99845  1.0000
  N   N18       1.0  0.44092  0.91653  0.01948  1.0000
  H   H287      1.0  0.11850  0.01265  0.79311  1.0000
  H   H288      1.0  0.07674  0.84939  0.86725  1.0000
  C   C185      1.0  0.09658  0.53012  0.02459  1.0000
  H   H289      1.0  0.08016  0.89100  0.88587  1.0000
  H   H290      1.0  0.37478  0.87353  0.01307  1.0000
  H   H291      1.0  0.53628  0.66714  0.01222  1.0000
  H   H292      1.0  0.40389  0.84962  0.02492  1.0000
  S   S75       1.0  0.32819  0.91481  0.02567  1.0000
  H   H293      1.0  0.07789  0.01141  0.81280  1.0000
  H   H294      1.0  0.53741  0.56938  0.02958  1.0000
  C   C186      1.0  0.52779  0.59372  0.02861  1.0000
  H   H295      1.0  0.05448  0.75121  0.78631  1.0000
  S   S76       1.0  0.05457  0.88705  0.81141  1.0000
  H   H296      1.0  0.06364  0.97626  0.78710  1.0000
  H   H297      1.0  0.48175  0.89218  0.02979  1.0000
  H   H298      1.0  0.00601  0.50855  0.07093  1.0000
  C   C187      1.0  0.84770  0.14353  0.05048  1.0000
  H   H299      1.0  0.96956  0.25596  0.21599  1.0000
  H   H300      1.0  0.95856  0.21555  0.15173  1.0000
  C   C188      1.0  0.66812  0.11222  0.05199  1.0000
  H   H301      1.0  0.92192  0.26454  0.05117  1.0000
  N   N19       1.0  0.69864  0.14173  0.03327  1.0000
  C   C189      1.0  0.90165  0.23083  0.05095  1.0000
  H   H302      1.0  0.63472  0.10089  0.04633  1.0000
  H   H303      1.0  0.92692  0.16061  0.21354  1.0000
  C   C190      1.0  0.95542  0.24038  0.19810  1.0000
  H   H304      1.0  0.87631  0.14328  0.08558  1.0000
  H   H305      1.0  0.03170  0.21764  0.18111  1.0000
  H   H306      1.0  0.97398  0.15894  0.20535  1.0000
  C   C191      1.0  0.01821  0.23755  0.18683  1.0000
  Fe  Fe39      1.0  0.99610  0.29374  0.08621  1.0000
  S   S77       1.0  0.94017  0.22905  0.09453  1.0000
  S   S78       1.0  0.01393  0.34958  0.11001  1.0000
  C   C192      1.0  0.56834  0.40746  0.05068  1.0000
  C   C193      1.0  0.87388  0.21193  0.03107  1.0000
  H   H307      1.0  0.92035  0.22269  0.20079  1.0000
  C   C194      1.0  0.54985  0.50450  0.05574  1.0000
  C   C195      1.0  0.87553  0.16254  0.07043  1.0000
  C   C196      1.0  0.96173  0.18033  0.21019  1.0000
  H   H308      1.0  0.91641  0.17288  0.16900  1.0000
  S   S79       1.0  0.99371  0.12515  0.25278  1.0000
  H   H309      1.0  0.82715  0.10978  0.05030  1.0000
  H   H310      1.0  0.69720  0.19510  0.04786  1.0000
  C   C197      1.0  0.00656  0.21653  0.04145  1.0000
  N   N20       1.0  0.97169  0.21251  0.19050  1.0000
  C   C198      1.0  0.97367  0.07896  0.27083  1.0000
  C   C199      1.0  0.90299  0.20617  0.07052  1.0000
  H   H311      1.0  0.00779  0.18909  0.04939  1.0000
  H   H312      1.0  0.02713  0.26265  0.17239  1.0000
  Fe  Fe40      1.0  0.03053  0.18511  0.27387  1.0000
  H   H313      1.0  0.03420  0.25318  0.20431  1.0000
  C   C200      1.0  0.95157  0.19198  0.16695  1.0000
  S   S80       1.0  0.01216  0.43433  0.06940  1.0000
  S   S81       1.0  0.01166  0.32998  0.05010  1.0000
  H   H314      1.0  0.94796  0.03865  0.23924  1.0000
  H   H315      1.0  0.04067  0.04894  0.26588  1.0000
  H   H316      1.0  0.96322  0.26567  0.18395  1.0000
  C   C201      1.0  0.03114  0.51451  0.05784  1.0000
  H   H317      1.0  0.74867  0.12969  0.04379  1.0000
  H   H318      1.0  0.96313  0.17072  0.16065  1.0000
  H   H319      1.0  0.97640  0.19494  0.22823  1.0000
  C   C202      1.0  0.95222  0.04000  0.25919  1.0000
  H   H320      1.0  0.01043  0.34331  0.20330  1.0000
  H   H321      1.0  0.03844  0.24477  0.04374  1.0000
  H   H322      1.0  0.04433  0.36224  0.16141  1.0000
  S   S82       1.0  0.72265  0.03726  0.03248  1.0000
  H   H323      1.0  0.98387  0.22105  0.05306  1.0000
  S   S83       1.0  0.03237  0.31564  0.24818  1.0000
  C   C203      1.0  0.04240  0.48355  0.05429  1.0000
  Fe  Fe41      1.0  0.03468  0.38712  0.07404  1.0000
  H   H324      1.0  0.58619  0.41299  0.06832  1.0000
  H   H325      1.0  0.67184  0.08414  0.05459  1.0000
  H   H326      1.0  0.74868  0.17202  0.06000  1.0000
  H   H327      1.0  0.56874  0.43715  0.04564  1.0000
  H   H328      1.0  0.67251  0.12710  0.07045  1.0000
  C   C204      1.0  0.74243  0.15630  0.04172  1.0000
  H   H329      1.0  0.58621  0.40187  0.03582  1.0000
  C   C205      1.0  0.04022  0.34412  0.20008  1.0000
  C   C206      1.0  0.84723  0.16826  0.03063  1.0000
  C   C207      1.0  0.83958  0.17569  0.51807  1.0000
  C   C208      1.0  0.96215  0.04320  0.31073  1.0000
  H   H330      1.0  0.62594  0.11722  0.51093  1.0000
  H   H331      1.0  0.84349  0.23462  0.50846  1.0000
  C   C209      1.0  0.62073  0.10982  0.49081  1.0000
  C   C210      1.0  0.69630  0.14062  0.48423  1.0000
  H   H332      1.0  0.62200  0.03711  0.48992  1.0000
  C   C211      1.0  0.64723  0.09518  0.45332  1.0000
  H   H333      1.0  0.92243  0.27578  0.50958  1.0000
  H   H334      1.0  0.69847  0.16915  0.47541  1.0000
  Fe  Fe42      1.0  0.03280  0.40657  0.51124  1.0000
  N   N21       1.0  0.65434  0.10300  0.48024  1.0000
  H   H335      1.0  0.72250  0.13664  0.47647  1.0000
  C   C212      1.0  0.65306  0.06629  0.49265  1.0000
  H   H336      1.0  0.61563  0.06709  0.44981  1.0000
  H   H337      1.0  0.65775  0.07084  0.51304  1.0000
  S   S84       1.0  0.78371  0.14667  0.51650  1.0000
  H   H338      1.0  0.64820  0.12235  0.44333  1.0000
  H   H339      1.0  0.67843  0.06060  0.48543  1.0000
  Fe  Fe43      1.0  0.02196  0.31894  0.50957  1.0000
  C   C213      1.0  0.91018  0.24580  0.44951  1.0000
  H   H340      1.0  0.99114  0.27053  0.46274  1.0000
  S   S85       1.0  0.00583  0.22223  0.29335  1.0000
  H   H341      1.0  0.94731  0.20246  0.40801  1.0000
  H   H342      1.0  0.98759  0.27846  0.40524  1.0000
  S   S86       1.0  0.00267  0.35435  0.48347  1.0000
  C   C214      1.0  0.97410  0.24150  0.45162  1.0000
  H   H343      1.0  0.98328  0.31015  0.42890  1.0000
  H   H344      1.0  0.58868  0.08145  0.48900  1.0000
  S   S87       1.0  0.98495  0.24931  0.51773  1.0000
  C   C215      1.0  0.86126  0.21899  0.51273  1.0000
  H   H345      1.0  0.89302  0.21795  0.46216  1.0000
  H   H346      1.0  0.90646  0.17626  0.43132  1.0000
  H   H347      1.0  0.96563  0.04453  0.33073  1.0000
  C   C216      1.0  0.92313  0.20514  0.41944  1.0000
  H   H348      1.0  0.99542  0.11057  0.30571  1.0000
  N   N22       1.0  0.94310  0.24335  0.43466  1.0000
  H   H349      1.0  0.99834  0.23763  0.44124  1.0000
  H   H350      1.0  0.88617  0.24735  0.43746  1.0000
  H   H351      1.0  0.92442  0.27419  0.46132  1.0000
  C   C217      1.0  0.90593  0.24232  0.51332  1.0000
  H   H352      1.0  0.67183  0.08954  0.44479  1.0000
  C   C218      1.0  0.96493  0.28081  0.41814  1.0000
  H   H353      1.0  0.89959  0.20544  0.40638  1.0000
  H   H354      1.0  0.95834  0.21473  0.46515  1.0000
  H   H355      1.0  0.94208  0.28480  0.40633  1.0000
  C   C219      1.0  0.97903  0.08057  0.29660  1.0000
  H   H356      1.0  0.61971  0.13639  0.48136  1.0000
  C   C220      1.0  0.86272  0.15577  0.52381  1.0000
  C   C221      1.0  0.55232  0.51718  0.50656  1.0000
  C   C222      1.0  0.92903  0.22214  0.51860  1.0000
  H   H357      1.0  0.69640  0.51884  0.51636  1.0000
  H   H358      1.0  0.70289  0.14693  0.50443  1.0000
  C   C223      1.0  0.90730  0.17888  0.52387  1.0000
  H   H359      1.0  0.92504  0.16315  0.52798  1.0000
  S   S88       1.0  0.99916  0.44087  0.52436  1.0000
  H   H360      1.0  0.84633  0.12238  0.52774  1.0000
  H   H361      1.0  0.54869  0.50682  0.48752  1.0000
  C   C224      1.0  0.62219  0.05365  0.62245  1.0000
  Fe  Fe44      1.0  0.75270  0.08674  0.53952  1.0000
  S   S89       1.0  0.69757  0.07612  0.56354  1.0000
  C   C225      1.0  0.02584  0.49494  0.53150  1.0000
  C   C226      1.0  0.55846  0.06360  0.54175  1.0000
  C   C227      1.0  0.00321  0.51161  0.54340  1.0000
  Fe  Fe45      1.0  0.72434  0.05084  0.59202  1.0000
  C   C228      1.0  0.73636  0.04108  0.65475  1.0000
  S   S90       1.0  0.83484  0.05960  0.75809  1.0000
  S   S91       1.0  0.78257  0.06732  0.56939  1.0000
  H   H362      1.0  0.78138  0.05154  0.71183  1.0000
  H   H363      1.0  0.63547  0.06941  0.64043  1.0000
  C   C229      1.0  0.04081  0.15720  0.75440  1.0000
  C   C230      1.0  0.00173  0.12317  0.76221  1.0000
  H   H364      1.0  0.61051  0.05684  0.55528  1.0000
  Fe  Fe46      1.0  0.89407  0.05478  0.75897  1.0000
  S   S92       1.0  0.95684  0.10608  0.74322  1.0000
  C   C231      1.0  0.58175  0.04275  0.54455  1.0000
  S   S93       1.0  0.72925  0.07139  0.63172  1.0000
  C   C232      1.0  0.75789  0.06016  0.67663  1.0000
  H   H365      1.0  0.64988  0.06125  0.61019  1.0000
  H   H366      1.0  0.96929  0.49212  0.54632  1.0000
  H   H367      1.0  0.77032  0.09343  0.67913  1.0000
  H   H368      1.0  0.56961  0.09381  0.55023  1.0000
  H   H369      1.0  0.60467  0.06814  0.61384  1.0000
  C   C233      1.0  0.76415  0.03653  0.69517  1.0000
  H   H370      1.0  0.03781  0.05681  0.76493  1.0000
  H   H371      1.0  0.81169  0.04877  0.62532  1.0000
  H   H372      1.0  0.69262  0.50821  0.54922  1.0000
  H   H373      1.0  0.04353  0.17175  0.73635  1.0000
  H   H374      1.0  0.86104  0.06083  0.63968  1.0000
  C   C234      1.0  0.82815  0.03508  0.63607  1.0000
  H   H375      1.0  0.03138  0.41282  0.58469  1.0000
  H   H376      1.0  0.88579  0.04045  0.60246  1.0000
  H   H377      1.0  0.03932  0.48248  0.58027  1.0000
  H   H378      1.0  0.83796  0.03041  0.58694  1.0000
  C   C235      1.0  0.04068  0.03394  0.77739  1.0000
  C   C236      1.0  0.71524  0.52599  0.53376  1.0000
  H   H379      1.0  0.73740  0.51355  0.53175  1.0000
  N   N23       1.0  0.99380  0.21036  0.01509  1.0000
  H   H380      1.0  0.76693  0.05482  0.91557  1.0000
  C   C237      1.0  0.69180  0.12029  0.00923  1.0000
  H   H381      1.0  0.98436  0.21608  0.80882  1.0000
  C   C238      1.0  0.57150  0.51748  0.00533  1.0000
  C   C239      1.0  0.77387  0.03982  0.90056  1.0000
  S   S94       1.0  0.79182  0.02787  0.99721  1.0000
  H   H382      1.0  0.88156  0.11872  0.79910  1.0000
  H   H383      1.0  0.01723  0.20162  0.98026  1.0000
  H   H384      1.0  0.91948  0.16861  0.78580  1.0000
  C   C240      1.0  0.02589  0.20645  0.00026  1.0000
  Fe  Fe47      1.0  0.77179  0.07559  0.00336  1.0000
  S   S95       1.0  0.81491  0.14588  0.00461  1.0000
  H   H385      1.0  0.78757  0.08936  0.87377  1.0000
  C   C241      1.0  0.79416  0.03985  0.85719  1.0000
  S   S96       1.0  0.80850  0.06490  0.82767  1.0000
  H   H386      1.0  0.98126  0.24332  0.98599  1.0000
  H   H387      1.0  0.94059  0.16660  0.99335  1.0000
  C   C242      1.0  0.99089  0.24685  0.00583  1.0000
  H   H388      1.0  0.91354  0.20122  0.82480  1.0000
  S   S97       1.0  0.88478  0.03242  0.79863  1.0000
  H   H389      1.0  0.87716  0.47318  0.02421  1.0000
  C   C243      1.0  0.78560  0.05933  0.87689  1.0000
  C   C244      1.0  0.99867  0.10435  0.78545  1.0000
  H   H390      1.0  0.02923  0.17947  0.00690  1.0000
  H   H391      1.0  0.65925  0.10926  0.00205  1.0000
  N   N24       1.0  0.93875  0.51730  0.00924  1.0000
  H   H392      1.0  0.03063  0.10663  0.81958  1.0000
  H   H393      1.0  0.99560  0.19910  0.83795  1.0000
  H   H394      1.0  0.58023  0.52220  0.98580  1.0000
  H   H395      1.0  0.89538  0.45337  0.99949  1.0000
  H   H396      1.0  0.87746  0.15051  0.83804  1.0000
  H   H397      1.0  0.94364  0.12941  0.85621  1.0000
  C   C245      1.0  0.56026  0.03359  0.01656  1.0000
  Fe  Fe48      1.0  0.82328  0.03220  0.79702  1.0000
  H   H398      1.0  0.96830  0.49955  0.98079  1.0000
  H   H399      1.0  0.87334  0.23121  0.01586  1.0000
  H   H400      1.0  0.92500  0.18547  0.85431  1.0000
  C   C246      1.0  0.91602  0.14211  0.79771  1.0000
  H   H401      1.0  0.02187  0.27656  0.00737  1.0000
  H   H402      1.0  0.71462  0.20085  0.01597  1.0000
  C   C247      1.0  0.91181  0.17432  0.83552  1.0000
  N   N25       1.0  0.93467  0.15622  0.82253  1.0000
  C   C248      1.0  0.93061  0.12009  0.83721  1.0000
  H   H403      1.0  0.95302  0.14346  0.01936  1.0000
  H   H404      1.0  0.96953  0.07706  0.79119  1.0000
  H   H405      1.0  0.71519  0.14109  0.99481  1.0000
  H   H406      1.0  0.96706  0.25081  0.01665  1.0000
  C   C249      1.0  0.97608  0.51688  0.99856  1.0000
  S   S98       1.0  0.72636  0.05342  0.97148  1.0000
  C   C250      1.0  0.03357  0.12082  0.80139  1.0000
  H   H407      1.0  0.93149  0.12706  0.78768  1.0000
  H   H408      1.0  0.91149  0.51619  0.97353  1.0000
  H   H409      1.0  0.99785  0.17548  0.80944  1.0000
  C   C251      1.0  0.98010  0.18821  0.81963  1.0000
  H   H410      1.0  0.94786  0.10588  0.82814  1.0000
  H   H411      1.0  0.65931  0.16804  0.02382  1.0000
  H   H412      1.0  0.89672  0.09494  0.83935  1.0000
  C   C252      1.0  0.95199  0.17179  0.01288  1.0000
  C   C253      1.0  0.90570  0.47395  0.01601  1.0000
  H   H413      1.0  0.98821  0.50145  0.01146  1.0000
  H   H414      1.0  0.91764  0.45975  0.02999  1.0000
  H   H415      1.0  0.69528  0.09207  0.01104  1.0000
  H   H416      1.0  0.55658  0.04116  0.99754  1.0000
  H   H417      1.0  0.92746  0.17354  0.02435  1.0000
  H   H418      1.0  0.03117  0.03760  0.79646  1.0000
  C   C254      1.0  0.69218  0.17810  0.03010  1.0000
  H   H419      1.0  0.76638  0.17901  0.02817  1.0000
  H   H420      1.0  0.73146  0.68381  0.22555  1.0000
  C   C255      1.0  0.56899  0.01365  0.06559  1.0000
  N   N26       1.0  0.71901  0.71273  0.25659  1.0000
  H   H421      1.0  0.57215  0.00552  0.08458  1.0000
  C   C256      1.0  0.93541  0.00265  0.27332  1.0000
  C   C257      1.0  0.59100  0.53557  0.04851  1.0000
  H   H422      1.0  0.61136  0.67031  0.05967  1.0000
  S   S99       1.0  0.85198  0.78749  0.26845  1.0000
  S   S100      1.0  0.67028  0.75309  0.04285  1.0000
  C   C258      1.0  0.73157  0.69142  0.27541  1.0000
  Fe  Fe49      1.0  0.68417  0.63014  0.06619  1.0000
  S   S101      1.0  0.62826  0.56393  0.07179  1.0000
  C   C259      1.0  0.74032  0.71539  0.23263  1.0000
  C   C260      1.0  0.72924  0.89546  0.05012  1.0000
  S   S102      1.0  0.68474  0.67898  0.09122  1.0000
  C   C261      1.0  0.69304  0.80771  0.04648  1.0000
  C   C262      1.0  0.02183  0.87883  0.26362  1.0000
  H   H423      1.0  0.72273  0.65911  0.26977  1.0000
  C   C263      1.0  0.67248  0.68879  0.25339  1.0000
  Fe  Fe50      1.0  0.70520  0.72036  0.05686  1.0000
  C   C264      1.0  0.58391  0.63846  0.05638  1.0000
  H   H424      1.0  0.91802  0.97273  0.26427  1.0000
  H   H425      1.0  0.96255  0.52997  0.04657  1.0000
  C   C265      1.0  0.73177  0.75551  0.26493  1.0000
  H   H426      1.0  0.57817  0.70013  0.03291  1.0000
  C   C266      1.0  0.59324  0.00954  0.04651  1.0000
  S   S103      1.0  0.77482  0.74730  0.06389  1.0000
  H   H427      1.0  0.77550  0.73327  0.23449  1.0000
  Fe  Fe51      1.0  0.76856  0.69355  0.04134  1.0000
  S   S104      1.0  0.75359  0.95058  0.05190  1.0000
  Fe  Fe52      1.0  0.84454  0.84031  0.25288  1.0000
  H   H428      1.0  0.89637  0.78171  0.07310  1.0000
  S   S105      1.0  0.80418  0.83220  0.21911  1.0000
  C   C267      1.0  0.86466  0.68348  0.09568  1.0000
  H   H429      1.0  0.72281  0.77271  0.25127  1.0000
  S   S106      1.0  0.75228  0.64933  0.07389  1.0000
  S   S107      1.0  0.91265  0.89005  0.25893  1.0000
  N   N27       1.0  0.89547  0.72831  0.09068  1.0000
  H   H430      1.0  0.75135  0.76300  0.13920  1.0000
  H   H431      1.0  0.91821  0.71622  0.05660  1.0000
  H   H432      1.0  0.65557  0.68647  0.27116  1.0000
  H   H433      1.0  0.83793  0.67955  0.10772  1.0000
  H   H434      1.0  0.73213  0.73196  0.21810  1.0000
  H   H435      1.0  0.85053  0.66651  0.07819  1.0000
  H   H436      1.0  0.95426  0.76528  0.07053  1.0000
  C   C268      1.0  0.91270  0.74970  0.11447  1.0000
  C   C269      1.0  0.73074  0.83110  0.05955  1.0000
  C   C270      1.0  0.74863  0.87483  0.06147  1.0000
  C   C271      1.0  0.79675  0.74811  0.15486  1.0000
  C   C272      1.0  0.82437  0.75510  0.17475  1.0000
  C   C273      1.0  0.82787  0.78181  0.19418  1.0000
  C   C274      1.0  0.80337  0.80139  0.19399  1.0000
  C   C275      1.0  0.77592  0.79460  0.17403  1.0000
  C   C276      1.0  0.77267  0.76813  0.15446  1.0000
  Fe  Fe53      1.0  0.75425  0.70162  0.09620  1.0000
  H   H437      1.0  0.84925  0.78696  0.20940  1.0000
  H   H438      1.0  0.75692  0.80973  0.17376  1.0000
  C   C277      1.0  0.87396  0.74814  0.07780  1.0000
  H   H439      1.0  0.66214  0.70415  0.23926  1.0000
  H   H440      1.0  0.92912  0.73559  0.12478  1.0000
  H   H441      1.0  0.84812  0.74691  0.08952  1.0000
  S   S108      1.0  0.79291  0.71347  0.13130  1.0000
  H   H442      1.0  0.59585  0.61602  0.05786  1.0000
  H   H443      1.0  0.56074  0.63101  0.07186  1.0000
  C   C278      1.0  0.93037  0.73189  0.07473  1.0000
  H   H444      1.0  0.88688  0.74740  0.12684  1.0000
  H   H445      1.0  0.85939  0.73204  0.06017  1.0000
  H   H446      1.0  0.93582  0.78368  0.11144  1.0000
  H   H447      1.0  0.87983  0.66742  0.10523  1.0000
  H   H448      1.0  0.76668  0.77447  0.26698  1.0000
  H   H449      1.0  0.84311  0.73972  0.17518  1.0000
  H   H450      1.0  0.98549  0.89414  0.23849  1.0000
  H   H451      1.0  0.74606  0.81556  0.06827  1.0000
  H   H452      1.0  0.94719  0.71697  0.08370  1.0000
  H   H453      1.0  0.77776  0.89279  0.07167  1.0000
  C   C279      1.0  0.01640  0.90428  0.24624  1.0000
  H   H454      1.0  0.61474  0.99805  0.05078  1.0000
  S   S109      1.0  0.97770  0.83348  0.27597  1.0000
  H   H455      1.0  0.66173  0.65630  0.24713  1.0000
  S   S110      1.0  0.70033  0.67001  0.03156  1.0000
  Fe  Fe54      1.0  0.91823  0.83807  0.27755  1.0000
  H   H456      1.0  0.80894  0.63411  0.03681  1.0000
  H   H457      1.0  0.92451  0.54607  0.03956  1.0000
  N   N28       1.0  0.56469  0.63624  0.03187  1.0000
  H   H458      1.0  0.85561  0.60281  0.03891  1.0000
  H   H459      1.0  0.04339  0.57668  0.04751  1.0000
  C   C280      1.0  0.69143  0.87200  0.03717  1.0000
  C   C281      1.0  0.67332  0.82825  0.03543  1.0000
  H   H460      1.0  0.76651  0.70899  0.27846  1.0000
  C   C282      1.0  0.95141  0.54335  0.03173  1.0000
  C   C283      1.0  0.55081  0.66773  0.03050  1.0000
  S   S111      1.0  0.62750  0.58497  0.49034  1.0000
  H   H461      1.0  0.03736  0.74922  0.49660  1.0000
  S   S112      1.0  0.68422  0.70785  0.47704  1.0000
  C   C284      1.0  0.58886  0.55448  0.51334  1.0000
  C   C285      1.0  0.01344  0.95420  0.30388  1.0000
  Fe  Fe55      1.0  0.67979  0.65173  0.49732  1.0000
  C   C286      1.0  0.76818  0.59381  0.51753  1.0000
  H   H462      1.0  0.02938  0.79332  0.49948  1.0000
  H   H463      1.0  0.79242  0.58395  0.51555  1.0000
  H   H464      1.0  0.99431  0.88195  0.32605  1.0000
  H   H465      1.0  0.81792  0.90637  0.43518  1.0000
  C   C287      1.0  0.80753  0.86815  0.47972  1.0000
  C   C288      1.0  0.85755  0.70446  0.52344  1.0000
  H   H466      1.0  0.75102  0.89256  0.49117  1.0000
  C   C289      1.0  0.89320  0.70149  0.51640  1.0000
  Fe  Fe56      1.0  0.69857  0.73763  0.51458  1.0000
  S   S113      1.0  0.71818  0.02313  0.52222  1.0000
  H   H467      1.0  0.98145  0.92760  0.29940  1.0000
  S   S114      1.0  0.89980  0.84807  0.31552  1.0000
  H   H468      1.0  0.76434  0.87345  0.42475  1.0000
  Fe  Fe57      1.0  0.83282  0.80306  0.30482  1.0000
  S   S115      1.0  0.78052  0.75116  0.32807  1.0000
  S   S116      1.0  0.76884  0.76515  0.51077  1.0000
  S   S117      1.0  0.80041  0.77477  0.44488  1.0000
  H   H469      1.0  0.79150  0.93065  0.47081  1.0000
  N   N29       1.0  0.77386  0.86655  0.46363  1.0000
  H   H470      1.0  0.81634  0.84439  0.47425  1.0000
  H   H471      1.0  0.58989  0.63354  0.50984  1.0000
  Fe  Fe58      1.0  0.75849  0.70457  0.52734  1.0000
  H   H472      1.0  0.79712  0.86171  0.49954  1.0000
  C   C290      1.0  0.02589  0.90880  0.33112  1.0000
  H   H473      1.0  0.74212  0.79969  0.45921  1.0000
  H   H474      1.0  0.90208  0.70417  0.49696  1.0000
  C   C291      1.0  0.78525  0.75785  0.36058  1.0000
  C   C292      1.0  0.75492  0.72678  0.37663  1.0000
  C   C293      1.0  0.75877  0.73147  0.40263  1.0000
  C   C294      1.0  0.79316  0.76722  0.41258  1.0000
  C   C295      1.0  0.82310  0.79839  0.39652  1.0000
  C   C296      1.0  0.81909  0.79383  0.37064  1.0000
  C   C297      1.0  0.78906  0.87489  0.43751  1.0000
  S   S118      1.0  0.91849  0.95804  0.31735  1.0000
  H   H475      1.0  0.84978  0.82609  0.40410  1.0000
  H   H476      1.0  0.84235  0.81810  0.35850  1.0000
  H   H477      1.0  0.55963  0.64993  0.49147  1.0000
  C   C298      1.0  0.99712  0.95008  0.34772  1.0000
  S   S119      1.0  0.74886  0.67255  0.49084  1.0000
  H   H478      1.0  0.70911  0.82238  0.45428  1.0000
  Fe  Fe59      1.0  0.89055  0.89740  0.29649  1.0000
  Fe  Fe60      1.0  0.75424  0.73155  0.47435  1.0000
  S   S120      1.0  0.82177  0.85332  0.28889  1.0000
  H   H479      1.0  0.83929  0.70958  0.50943  1.0000
  N   N30       1.0  0.02666  0.94929  0.32909  1.0000
  H   H480      1.0  0.96410  0.92385  0.34494  1.0000
  H   H481      1.0  0.83690  0.89944  0.47865  1.0000
  H   H482      1.0  0.73819  0.89852  0.45978  1.0000
  H   H483      1.0  0.72862  0.69887  0.36896  1.0000
  C   C299      1.0  0.76322  0.89852  0.47164  1.0000
  H   H484      1.0  0.73556  0.70726  0.41489  1.0000
  C   C300      1.0  0.93998  0.00422  0.29914  1.0000
  C   C301      1.0  0.73557  0.82449  0.46567  1.0000
  H   H485      1.0  0.79747  0.85124  0.43104  1.0000
  H   H486      1.0  0.00637  0.94712  0.36700  1.0000
  S   S121      1.0  0.96133  0.69064  0.52490  1.0000
  H   H487      1.0  0.72397  0.81652  0.48522  1.0000
  H   H488      1.0  0.56868  0.71822  0.52797  1.0000
  H   H489      1.0  0.03588  0.95526  0.28944  1.0000
  H   H490      1.0  0.03313  0.90275  0.35030  1.0000
  C   C302      1.0  0.57851  0.65650  0.50876  1.0000
  S   S122      1.0  0.66346  0.77151  0.52511  1.0000
  H   H491      1.0  0.99596  0.97974  0.34633  1.0000
  H   H492      1.0  0.68969  0.58178  0.52320  1.0000
  H   H493      1.0  0.71748  0.75509  0.28335  1.0000
  H   H494      1.0  0.75115  0.58813  0.49955  1.0000
  H   H495      1.0  0.78567  0.62826  0.52039  1.0000
  H   H496      1.0  0.60696  0.68826  0.50657  1.0000
  H   H497      1.0  0.01159  0.98340  0.30201  1.0000
  H   H498      1.0  0.71637  0.68920  0.29382  1.0000
  H   H499      1.0  0.64290  0.83715  0.52937  1.0000
  C   C303      1.0  0.02442  0.55284  0.55248  1.0000
  H   H500      1.0  0.63387  0.00525  0.65514  1.0000
  C   C304      1.0  0.56774  0.00394  0.53338  1.0000
  C   C305      1.0  0.74384  0.91030  0.54490  1.0000
  H   H501      1.0  0.84800  0.95476  0.62913  1.0000
  H   H502      1.0  0.55812  0.95353  0.60332  1.0000
  Fe  Fe61      1.0  0.66503  0.01109  0.54862  1.0000
  N   N31       1.0  0.55336  0.65380  0.53105  1.0000
  H   H503      1.0  0.59978  0.95571  0.64064  1.0000
  H   H504      1.0  0.76516  0.95331  0.63461  1.0000
  Fe  Fe62      1.0  0.04184  0.87670  0.77074  1.0000
  H   H505      1.0  0.01931  0.63904  0.77641  1.0000
  H   H506      1.0  0.78268  0.94181  0.60611  1.0000
  C   C306      1.0  0.84778  0.98145  0.63851  1.0000
  H   H507      1.0  0.00684  0.56488  0.56229  1.0000
  S   S123      1.0  0.77597  0.96400  0.55130  1.0000
  S   S124      1.0  0.68718  0.98439  0.57917  1.0000
  C   C307      1.0  0.55866  0.99909  0.64259  1.0000
  C   C308      1.0  0.97099  0.90977  0.76272  1.0000
  N   N32       1.0  0.73851  0.57157  0.53844  1.0000
  H   H508      1.0  0.02768  0.77960  0.72295  1.0000
  H   H509      1.0  0.60474  0.99481  0.58845  1.0000
  H   H510      1.0  0.78051  0.61409  0.56580  1.0000
  S   S125      1.0  0.02817  0.74528  0.58286  1.0000
  Fe  Fe63      1.0  0.02737  0.69840  0.61016  1.0000
  C   C309      1.0  0.57833  0.98827  0.60159  1.0000
  H   H511      1.0  0.01299  0.68712  0.74569  1.0000
  H   H512      1.0  0.78664  0.56945  0.56064  1.0000
  H   H513      1.0  0.01705  0.00192  0.77123  1.0000
  C   C310      1.0  0.78382  0.96766  0.61726  1.0000
  C   C311      1.0  0.67615  0.85027  0.53374  1.0000
  C   C312      1.0  0.70789  0.58671  0.54067  1.0000
  H   H514      1.0  0.62177  0.59515  0.54371  1.0000
  S   S126      1.0  0.99756  0.69720  0.64741  1.0000
  S   S127      1.0  0.01346  0.90811  0.74831  1.0000
  C   C313      1.0  0.95339  0.93140  0.75077  1.0000
  H   H515      1.0  0.74150  0.56370  0.57799  1.0000
  H   H516      1.0  0.96524  0.94579  0.73265  1.0000
  Fe  Fe64      1.0  0.00599  0.69435  0.55509  1.0000
  S   S128      1.0  0.79841  0.69948  0.55764  1.0000
  S   S129      1.0  0.99931  0.64514  0.58291  1.0000
  C   C314      1.0  0.56083  0.54392  0.55557  1.0000
  C   C315      1.0  0.90587  0.69194  0.55950  1.0000
  C   C316      1.0  0.86977  0.69417  0.56650  1.0000
  H   H517      1.0  0.92438  0.68708  0.57350  1.0000
  H   H518      1.0  0.86063  0.69101  0.58592  1.0000
  H   H519      1.0  0.70359  0.98296  0.63496  1.0000
  C   C317      1.0  0.84538  0.70017  0.54849  1.0000
  C   C318      1.0  0.92072  0.93492  0.76225  1.0000
  S   S130      1.0  0.75557  0.96261  0.71442  1.0000
  C   C319      1.0  0.76276  0.57990  0.56175  1.0000
  H   H520      1.0  0.99542  0.72195  0.75606  1.0000
  S   S131      1.0  0.59707  0.97763  0.53557  1.0000
  C   C320      1.0  0.74765  0.99343  0.69221  1.0000
  C   C321      1.0  0.01452  0.74286  0.68983  1.0000
  N   N33       1.0  0.82800  0.00009  0.62275  1.0000
  H   H521      1.0  0.98446  0.74145  0.68658  1.0000
  S   S132      1.0  0.01965  0.80779  0.77325  1.0000
  H   H522      1.0  0.90757  0.95164  0.75284  1.0000
  C   C322      1.0  0.72018  0.99805  0.65171  1.0000
  C   C323      1.0  0.69450  0.82459  0.53344  1.0000
  H   H523      1.0  0.56165  0.66003  0.57069  1.0000
  C   C324      1.0  0.85219  0.01611  0.59916  1.0000
  H   H524      1.0  0.56416  0.55446  0.57455  1.0000
  H   H525      1.0  0.71186  0.94075  0.66846  1.0000
  C   C325      1.0  0.91741  0.69519  0.53439  1.0000
  H   H526      1.0  0.88117  0.00500  0.64307  1.0000
  H   H527      1.0  0.55885  0.00032  0.59264  1.0000
  C   C326      1.0  0.99231  0.69069  0.75964  1.0000
  C   C327      1.0  0.76207  0.88455  0.54483  1.0000
  C   C328      1.0  0.72502  0.97419  0.67065  1.0000
  Fe  Fe65      1.0  0.80204  0.99254  0.74587  1.0000
  N   N34       1.0  0.59465  0.00777  0.62595  1.0000
  H   H528      1.0  0.68449  0.57019  0.55599  1.0000
  H   H529      1.0  0.75165  0.82208  0.53957  1.0000
  C   C329      1.0  0.02919  0.72397  0.67302  1.0000
  Fe  Fe66      1.0  0.74341  0.00238  0.55415  1.0000
  H   H530      1.0  0.83021  0.96922  0.65652  1.0000
  H   H531      1.0  0.85213  0.99041  0.58840  1.0000
  H   H532      1.0  0.79531  0.89765  0.54923  1.0000
  C   C330      1.0  0.57945  0.66139  0.55351  1.0000
  C   C331      1.0  0.61955  0.99013  0.63715  1.0000
  H   H533      1.0  0.68644  0.91273  0.53945  1.0000
  S   S133      1.0  0.86242  0.99033  0.74313  1.0000
  H   H534      1.0  0.72437  0.62088  0.54462  1.0000
  H   H535      1.0  0.60878  0.69284  0.55263  1.0000
  H   H536      1.0  0.95881  0.66660  0.75582  1.0000
  H   H537      1.0  0.76725  0.98100  0.60634  1.0000
  C   C332      1.0  0.59338  0.56723  0.53806  1.0000
  H   H538      1.0  0.58958  0.63762  0.55572  1.0000
  C   C333      1.0  0.03882  0.76420  0.71056  1.0000
  H   H539      1.0  0.64628  0.99539  0.62472  1.0000
  S   S134      1.0  0.68905  0.67994  0.53496  1.0000
  C   C334      1.0  0.70076  0.89307  0.53944  1.0000
  C   C335      1.0  0.73745  0.84179  0.53918  1.0000
  H   H540      1.0  0.81184  0.02445  0.65445  1.0000
  H   H541      1.0  0.56996  0.01321  0.66119  1.0000
  C   C336      1.0  0.60162  0.54238  0.02320  1.0000
  H   H542      1.0  0.80045  0.85938  0.99093  1.0000
  C   C337      1.0  0.02824  0.73606  0.90861  1.0000
  C   C338      1.0  0.85305  0.68748  0.01463  1.0000
  S   S135      1.0  0.68945  0.95799  0.99357  1.0000
  S   S136      1.0  0.61531  0.01121  0.99698  1.0000
  H   H543      1.0  0.75028  0.82019  0.97878  1.0000
  H   H544      1.0  0.96551  0.61979  0.78670  1.0000
  H   H545      1.0  0.94313  0.66960  0.80111  1.0000
  C   C339      1.0  0.86624  0.63215  0.02891  1.0000
  S   S137      1.0  0.82084  0.71069  0.01289  1.0000
  H   H546      1.0  0.75202  0.84761  0.00648  1.0000
  H   H547      1.0  0.82004  0.93424  0.98970  1.0000
  S   S138      1.0  0.78603  0.96515  0.78484  1.0000
  C   C340      1.0  0.95533  0.89099  0.78607  1.0000
  H   H548      1.0  0.97846  0.74706  0.89550  1.0000
  C   C341      1.0  0.76698  0.85134  0.98783  1.0000
  H   H549      1.0  0.00283  0.54927  0.99470  1.0000
  S   S139      1.0  0.93811  0.62856  0.01857  1.0000
  H   H550      1.0  0.71671  0.89546  0.95745  1.0000
  Fe  Fe67      1.0  0.73830  0.98671  0.02342  1.0000
  S   S140      1.0  0.75516  0.97437  0.93374  1.0000
  C   C342      1.0  0.83983  0.64989  0.02783  1.0000
  S   S141      1.0  0.04531  0.73198  0.99144  1.0000
  Fe  Fe68      1.0  0.00642  0.66490  0.00504  1.0000
  S   S142      1.0  0.03037  0.63806  0.97585  1.0000
  C   C343      1.0  0.78568  0.88880  0.94834  1.0000
  H   H551      1.0  0.79793  0.98570  0.84628  1.0000
  H   H552      1.0  0.78597  0.94987  0.97480  1.0000
  Fe  Fe69      1.0  0.03965  0.82004  0.81324  1.0000
  H   H553      1.0  0.70230  0.84120  0.95903  1.0000
  H   H554      1.0  0.77023  0.85897  0.93786  1.0000
  C   C344      1.0  0.02507  0.76049  0.86666  1.0000
  H   H555      1.0  0.96849  0.87386  0.79532  1.0000
  C   C345      1.0  0.91946  0.68977  0.00391  1.0000
  C   C346      1.0  0.99906  0.64482  0.78950  1.0000
  H   H556      1.0  0.77059  0.92232  0.00402  1.0000
  S   S143      1.0  0.86330  0.91996  0.79999  1.0000
  H   H557      1.0  0.90314  0.73625  0.99225  1.0000
  H   H558      1.0  0.77701  0.95111  0.88787  1.0000
  C   C347      1.0  0.92202  0.89395  0.79738  1.0000
  C   C348      1.0  0.97725  0.69354  0.80315  1.0000
  H   H559      1.0  0.89396  0.53652  0.99837  1.0000
  H   H560      1.0  0.62459  0.67713  0.01380  1.0000
  C   C349      1.0  0.71967  0.87158  0.96882  1.0000
  C   C350      1.0  0.90474  0.91613  0.78553  1.0000
  C   C351      1.0  0.00762  0.74755  0.89065  1.0000
  H   H561      1.0  0.01507  0.72686  0.92722  1.0000
  C   C352      1.0  0.90611  0.65202  0.01696  1.0000
  C   C353      1.0  0.78631  0.92433  0.98588  1.0000
  Fe  Fe70      1.0  0.84929  0.96803  0.78290  1.0000
  H   H562      1.0  0.94997  0.70518  0.99448  1.0000
  C   C354      1.0  0.77056  0.00064  0.90459  1.0000
  Fe  Fe71      1.0  0.67795  0.01192  0.00027  1.0000
  H   H563      1.0  0.78420  0.91315  0.93648  1.0000
  H   H564      1.0  0.81980  0.89854  0.95049  1.0000
  C   C355      1.0  0.89285  0.70727  0.00262  1.0000
  S   S144      1.0  0.00002  0.77679  0.84480  1.0000
  H   H565      1.0  0.70295  0.86820  0.98675  1.0000
  Fe  Fe72      1.0  0.74213  0.00223  0.96766  1.0000
  C   C356      1.0  0.77954  0.98142  0.88494  1.0000
  N   N35       1.0  0.76467  0.88399  0.97272  1.0000
  H   H566      1.0  0.67592  0.88752  0.02871  1.0000
  H   H567      1.0  0.90967  0.87914  0.81534  1.0000
  H   H568      1.0  0.64402  0.81031  0.02542  1.0000
  C   C357      1.0  0.79139  0.00097  0.86133  1.0000
  H   H569      1.0  0.63339  0.56595  0.01743  1.0000
  H   H570      1.0  0.00798  0.64109  0.80878  1.0000
  H   H571      1.0  0.94581  0.56771  0.98530  1.0000
  H   H572      1.0  0.98626  0.69222  0.82279  1.0000
  H   H573      1.0  0.58297  0.64335  0.99322  1.0000
  H   H574      1.0  0.97750  0.57589  0.02752  1.0000
  C   C358      1.0  0.92169  0.53499  0.99075  1.0000
  C   C359      1.0  0.58867  0.01923  0.02188  1.0000
  H   H575      1.0  0.60807  0.62233  0.01273  1.0000
  C   C360      1.0  0.59642  0.64513  0.01201  1.0000
  H   H576      1.0  0.98003  0.72486  0.80031  1.0000
  N   N36       1.0  0.00446  0.68701  0.78538  1.0000
