data_image0
_chemical_formula_structural       FeCHFeS2FeHFeNS2FeS2FeCSFeHFeS3C3H3C4H6C6H4C2HCHSHCH2NC2H13CHCHCHCSHC2H2NH2CHSHCSC2H2C2NSHCHC3H3C2H5CH3CH2SCH4C2HC2HCFeS2FeSFeHS2FeSFeCHFeCFeS3C2HSHC6H4CH2CH4SHC2HC3HFeSH6NHC3H5CH7SH2CHCHC4HCNC2HC2HSH3CHSCH2NHSCH5CH2SCHCNH11CSHCS3CFeC2HC2H4CHC2H2CHFeSH2CHSC2HCNHFeS2HC2H8SCSFeHCHCHFeH3FeHCHSC3SC2HFeSH2SCFeSC2HCNHCSH7SHC2HCH7CH2CH2CNCH2C2H2NHC2H2FeSHFeS2FeSFeHS2FeS2FeS2FeSFeCSHCHCHC2HCSC2H7C6H5C2H2CHCHSC2SNHC3H4C2HCH2CH7CH3C2HCNH3CH3SH5CH4FeS2FeSCFeCFeS3FeS2FeCFeCHFeS3CH4CH2NCH5SHC2NHCHCHC6H4NC4H16CHCH2CH3C3SC2H2SH2CH4CNCHCHC2H3NCH2SCH3CHCFeS2FeS2Fe2S2FeS2FeH2FeHFeS3CH2NCH3CHC7H3SH5SH2CH3CHCH3SCH2SH6C2NH5CH3CHC2NH3CHCH3NCH3CHCHC3H4C2H2C2H2CH3C5NH2FeS2CHFeSH3CSCHSHCHC2H3C3H3FeHC2SHCH5FeC3NCHC2HCNSHCHC2HCHFe2HSHC2H5CH4SHCHCH3CH2CSCFeSH2SFeSHCHCH3CNCNH3CH4S3CH2CH3CHNH3CHCH2CH5NC3NHSHCH2CHFeS2FeS2FeHFeS3FeS2FeSHFeSFeS3C2H6C2H5C2H2CH2CH4C2H2C6H5CH2C3H2CHCH2CH2CH3NC4NCH3CH2CHCH2CH2CH4CH2C2SHCHCFeS2HSHFeHFeSHSFeS2FeS2FeSFeS3HC3H2CHNHC6H6CHC2HCHCH2NC4H12C2HC2H3C2H2CHSHC2H2CH3FeH4C2H4CHCH3C4H2FeSNFeSFeNFeSHSFeSNCSFe2SFeS2CSCSHC6H5CH2CH2CH2NH6CH10CH3SH6SHCHC2H3C3SH2C4NCHC2HCHC4H2CSH2C2H4CSHCNHC4HCH2C2SHCSCH2C2H2CSCH7CHS2HCH4FeH2FeH2C2HCFeHNC2HS2HFe2CNHS2H2CH2SCSC3H2CHC2H6CHFeNC3FeSCSCH2CHSC2H5CHCHSFeHSCHSC2H3CHCH2CH6CHCH2FeS2FeS2FeSFeS3H3FeS2FeCFeS3FeCHC2H5NC4H5CHCHC6H5C4HCNCH4CNH3CH12NH3CH2CHC2SH3CH2CSC2H4CH2C2HNCH2SH3CFeS2FeSHFeSFeCS2FeS2FeCFeSFeS3H4C3H4C6H5C2H2CNHCH2C5H3NC4H8C2HCHNHCHC2H4CH2SHNH2CH4C2H2C2H2C2HC2H8C2H2SH2CHSH3CNHCH2SFeS2FeSHFeSFeS2FeS2Fe2SFeS2C2H3C6H4C4H4SH2CHSH2CHCHC2HCSH3CHCH3SC2H6NCHCHCH4CHCH2CHNC3SCH2CHCHNCH2C2HCHCHCS2C2SH2SHCH9NH2CH4SCH2CHSHCH2CNHFeHCHNHC3H2SHCFeHCHSHCH4C2HFeC2SC5H3FeS3CFeSC2SCHCFeC2FeHSHCHFeH3CHSCH2SH2CH2CHC2SH2C2H9C4HCHNH2CHCH2CH4CHCNCH2CFeS2FeSHFeHFeHS2FeS2FeS2FeSFeHS2CH5CNSHCSH4C2NH3C6H5CHCH2CHCHC2H4CH3CH3CH4CH2SH
_chemical_formula_sum              "Fe128 C640 H1024 S256 N64"
_cell_length_a       37.7934
_cell_length_b       73.1108
_cell_length_c       39.2387
_cell_angle_alpha    89.2997
_cell_angle_beta     86.9403
_cell_angle_gamma    89.8293

_space_group_name_H-M_alt    "P 1"
_space_group_IT_number       1

loop_
  _space_group_symop_operation_xyz
  'x, y, z'

loop_
  _atom_site_type_symbol
  _atom_site_label
  _atom_site_symmetry_multiplicity
  _atom_site_fract_x
  _atom_site_fract_y
  _atom_site_fract_z
  _atom_site_occupancy
  Fe  Fe1       1.0  0.31822  0.28264  0.17791  1.0000
  C   C1        1.0  0.26540  0.12203  0.19729  1.0000
  H   H1        1.0  0.23611  0.12161  0.19582  1.0000
  Fe  Fe2       1.0  0.32761  0.24242  0.16176  1.0000
  S   S1        1.0  0.34208  0.24788  0.10663  1.0000
  S   S2        1.0  0.33019  0.21359  0.18211  1.0000
  Fe  Fe3       1.0  0.37544  0.27050  0.12535  1.0000
  H   H2        1.0  0.10533  0.26144  0.41494  1.0000
  Fe  Fe4       1.0  0.29726  0.26812  0.10943  1.0000
  N   N1        1.0  0.30375  0.29310  0.40196  1.0000
  S   S3        1.0  0.36450  0.26354  0.18063  1.0000
  S   S4        1.0  0.27990  0.26086  0.16378  1.0000
  Fe  Fe5       1.0  0.34826  0.09745  0.13799  1.0000
  S   S5        1.0  0.36956  0.07556  0.10318  1.0000
  S   S6        1.0  0.34300  0.09525  0.19505  1.0000
  Fe  Fe6       1.0  0.34184  0.12542  0.08136  1.0000
  C   C2        1.0  0.24108  0.28231  0.28804  1.0000
  S   S7        1.0  0.32278  0.15375  0.06800  1.0000
  Fe  Fe7       1.0  0.32807  0.08522  0.06824  1.0000
  H   H3        1.0  0.48928  0.25929  0.20400  1.0000
  Fe  Fe8       1.0  0.40238  0.09800  0.07867  1.0000
  S   S8        1.0  0.45896  0.09252  0.06215  1.0000
  S   S9        1.0  0.30339  0.10516  0.10561  1.0000
  S   S10       1.0  0.38509  0.11922  0.11666  1.0000
  C   C3        1.0  0.48171  0.08497  0.09734  1.0000
  C   C4        1.0  0.46502  0.08520  0.13001  1.0000
  C   C5        1.0  0.48418  0.08074  0.15856  1.0000
  H   H4        1.0  0.30872  0.06476  0.16303  1.0000
  H   H5        1.0  0.43767  0.08946  0.13345  1.0000
  H   H6        1.0  0.07295  0.25731  0.36238  1.0000
  C   C6        1.0  0.51714  0.07950  0.09306  1.0000
  C   C7        1.0  0.32194  0.07550  0.21169  1.0000
  C   C8        1.0  0.32065  0.07247  0.24698  1.0000
  C   C9        1.0  0.26976  0.15015  0.16432  1.0000
  H   H7        1.0  0.05761  0.29538  0.42359  1.0000
  H   H8        1.0  0.33100  0.08262  0.26363  1.0000
  H   H9        1.0  0.27716  0.11404  0.17554  1.0000
  H   H10       1.0  0.29071  0.18898  0.07504  1.0000
  H   H11       1.0  0.37698  0.08264  0.43918  1.0000
  H   H12       1.0  0.11821  0.28394  0.42724  1.0000
  C   C10       1.0  0.33001  0.19759  0.14921  1.0000
  C   C11       1.0  0.30934  0.20050  0.12111  1.0000
  C   C12       1.0  0.30763  0.18701  0.09612  1.0000
  C   C13       1.0  0.32683  0.17069  0.09891  1.0000
  C   C14       1.0  0.34810  0.16799  0.12662  1.0000
  C   C15       1.0  0.34958  0.18140  0.15179  1.0000
  H   H13       1.0  0.29382  0.21290  0.11930  1.0000
  H   H14       1.0  0.10860  0.26850  0.33810  1.0000
  H   H15       1.0  0.36340  0.15561  0.12872  1.0000
  H   H16       1.0  0.36607  0.17932  0.17322  1.0000
  C   C16       1.0  0.46662  0.27353  0.12508  1.0000
  C   C17       1.0  0.26735  0.28829  0.41450  1.0000
  H   H17       1.0  0.47173  0.08180  0.18393  1.0000
  C   C18       1.0  0.46310  0.26583  0.15786  1.0000
  H   H18       1.0  0.23320  0.15159  0.22494  1.0000
  S   S11       1.0  0.25811  0.26745  0.06762  1.0000
  H   H19       1.0  0.32773  0.27218  0.43210  1.0000
  C   C19       1.0  0.30712  0.05604  0.26088  1.0000
  H   H20       1.0  0.27163  0.27299  0.24335  1.0000
  H   H21       1.0  0.22941  0.26905  0.29368  1.0000
  N   N2        1.0  0.27885  0.14102  0.19655  1.0000
  C   C20       1.0  0.31775  0.14077  0.19889  1.0000
  C   C21       1.0  0.26258  0.15114  0.22579  1.0000
  H   H22       1.0  0.35468  0.28005  0.39577  1.0000
  H   H23       1.0  0.32861  0.15483  0.20024  1.0000
  H   H24       1.0  0.32570  0.13309  0.22196  1.0000
  H   H25       1.0  0.33105  0.13400  0.17637  1.0000
  H   H26       1.0  0.27219  0.16555  0.22589  1.0000
  H   H27       1.0  0.26914  0.14466  0.25051  1.0000
  H   H28       1.0  0.27883  0.16464  0.16330  1.0000
  H   H29       1.0  0.28246  0.14319  0.14167  1.0000
  H   H30       1.0  0.39010  0.05750  0.24125  1.0000
  H   H31       1.0  0.46852  0.12216  0.14366  1.0000
  H   H32       1.0  0.46969  0.13346  0.10287  1.0000
  H   H33       1.0  0.27239  0.11460  0.22099  1.0000
  H   H34       1.0  0.24068  0.15022  0.16124  1.0000
  C   C22       1.0  0.49232  0.26504  0.17847  1.0000
  H   H35       1.0  0.28417  0.22983  0.05999  1.0000
  C   C23       1.0  0.05437  0.28621  0.40148  1.0000
  H   H36       1.0  0.43495  0.06354  0.22875  1.0000
  C   C24       1.0  0.34742  0.05798  0.43178  1.0000
  H   H37       1.0  0.14079  0.27323  0.39132  1.0000
  C   C25       1.0  0.30810  0.06241  0.19034  1.0000
  S   S12       1.0  0.33183  0.29140  0.12353  1.0000
  H   H38       1.0  0.43795  0.26042  0.16736  1.0000
  C   C26       1.0  0.32698  0.27693  0.40505  1.0000
  C   C27       1.0  0.35836  0.07286  0.45068  1.0000
  H   H39       1.0  0.34647  0.22074  0.05170  1.0000
  H   H40       1.0  0.50294  0.28564  0.08709  1.0000
  N   N3        1.0  0.51330  0.13981  0.13383  1.0000
  H   H41       1.0  0.42566  0.28557  0.21060  1.0000
  H   H42       1.0  0.51496  0.12755  0.18389  1.0000
  C   C28       1.0  0.40555  0.04745  0.17621  1.0000
  H   H43       1.0  0.43417  0.06022  0.44853  1.0000
  S   S13       1.0  0.42948  0.27631  0.10009  1.0000
  H   H44       1.0  0.23090  0.26825  0.52543  1.0000
  C   C29       1.0  0.24944  0.27951  0.52502  1.0000
  S   S14       1.0  0.30522  0.06525  0.54200  1.0000
  C   C30       1.0  0.30424  0.29258  0.54237  1.0000
  C   C31       1.0  0.47563  0.13521  0.13017  1.0000
  H   H45       1.0  0.50476  0.16879  0.12847  1.0000
  H   H46       1.0  0.25584  0.27749  0.39869  1.0000
  C   C32       1.0  0.26499  0.28451  0.25954  1.0000
  C   C33       1.0  0.41709  0.05182  0.23547  1.0000
  N   N4        1.0  0.08852  0.28321  0.38211  1.0000
  S   S15       1.0  0.36634  0.05492  0.39048  1.0000
  H   H47       1.0  0.31756  0.26531  0.38986  1.0000
  C   C34       1.0  0.29442  0.04592  0.20434  1.0000
  H   H48       1.0  0.30648  0.05376  0.28820  1.0000
  C   C35       1.0  0.49996  0.27975  0.11251  1.0000
  C   C36       1.0  0.34537  0.07517  0.48447  1.0000
  C   C37       1.0  0.32115  0.06267  0.49945  1.0000
  H   H49       1.0  0.35346  0.08687  0.49865  1.0000
  H   H50       1.0  0.45771  0.14603  0.14095  1.0000
  H   H51       1.0  0.29326  0.28802  0.34948  1.0000
  C   C38       1.0  0.11433  0.27503  0.40490  1.0000
  C   C39       1.0  0.08325  0.27085  0.35330  1.0000
  H   H52       1.0  0.26660  0.28334  0.44145  1.0000
  H   H53       1.0  0.42349  0.05885  0.16804  1.0000
  H   H54       1.0  0.47624  0.05230  0.43052  1.0000
  H   H55       1.0  0.43603  0.04664  0.41085  1.0000
  H   H56       1.0  0.47905  0.05183  0.35975  1.0000
  C   C40       1.0  0.28049  0.27797  0.54297  1.0000
  H   H57       1.0  0.04284  0.27315  0.41171  1.0000
  H   H58       1.0  0.50376  0.15152  0.18355  1.0000
  H   H59       1.0  0.37854  0.05338  0.18015  1.0000
  C   C41       1.0  0.30970  0.04793  0.48035  1.0000
  H   H60       1.0  0.50979  0.11104  0.53891  1.0000
  H   H61       1.0  0.06394  0.27673  0.33566  1.0000
  S   S16       1.0  0.20353  0.29390  0.34568  1.0000
  C   C42       1.0  0.44800  0.04846  0.43590  1.0000
  H   H62       1.0  0.51664  0.15721  0.08924  1.0000
  H   H63       1.0  0.03446  0.29279  0.38529  1.0000
  H   H64       1.0  0.44881  0.04600  0.50424  1.0000
  H   H65       1.0  0.29554  0.06409  0.67262  1.0000
  C   C43       1.0  0.51079  0.10745  0.62527  1.0000
  C   C44       1.0  0.49559  0.28429  0.63975  1.0000
  H   H66       1.0  0.31233  0.17100  0.61485  1.0000
  C   C45       1.0  0.48390  0.07434  0.69942  1.0000
  C   C46       1.0  0.34586  0.05522  0.93407  1.0000
  H   H67       1.0  0.42127  0.07169  0.01419  1.0000
  C   C47       1.0  0.31307  0.05319  0.76721  1.0000
  Fe  Fe9       1.0  0.37276  0.23454  0.65046  1.0000
  S   S17       1.0  0.38182  0.24109  0.59491  1.0000
  S   S18       1.0  0.37508  0.20581  0.67178  1.0000
  Fe  Fe10      1.0  0.41288  0.26486  0.61292  1.0000
  S   S19       1.0  0.46522  0.26928  0.58402  1.0000
  Fe  Fe11      1.0  0.33435  0.25934  0.60159  1.0000
  H   H68       1.0  0.32760  0.25266  0.03587  1.0000
  S   S20       1.0  0.40709  0.25711  0.66835  1.0000
  S   S21       1.0  0.32238  0.25087  0.65611  1.0000
  Fe  Fe12      1.0  0.35165  0.09295  0.64667  1.0000
  S   S22       1.0  0.35868  0.06587  0.62122  1.0000
  Fe  Fe13      1.0  0.38689  0.11403  0.58740  1.0000
  C   C48       1.0  0.29502  0.18153  0.62765  1.0000
  H   H69       1.0  0.30067  0.08393  0.82628  1.0000
  Fe  Fe14      1.0  0.34199  0.08076  0.57436  1.0000
  C   C49       1.0  0.48115  0.05190  0.99896  1.0000
  Fe  Fe15      1.0  0.41269  0.07598  0.60540  1.0000
  S   S23       1.0  0.45951  0.05722  0.60621  1.0000
  S   S24       1.0  0.32986  0.10727  0.60132  1.0000
  S   S25       1.0  0.40770  0.10194  0.63488  1.0000
  C   C50       1.0  0.48148  0.06052  0.64369  1.0000
  C   C51       1.0  0.46457  0.06940  0.67146  1.0000
  H   H70       1.0  0.27887  0.28654  0.61810  1.0000
  S   S26       1.0  0.33067  0.09518  0.70106  1.0000
  H   H71       1.0  0.43682  0.07288  0.67111  1.0000
  C   C52       1.0  0.38717  0.18793  0.64378  1.0000
  C   C53       1.0  0.40338  0.19145  0.61149  1.0000
  C   C54       1.0  0.41012  0.17704  0.58866  1.0000
  C   C55       1.0  0.40067  0.15906  0.59801  1.0000
  C   C56       1.0  0.38516  0.15549  0.63056  1.0000
  C   C57       1.0  0.37875  0.16988  0.65348  1.0000
  H   H72       1.0  0.41060  0.20523  0.60398  1.0000
  H   H73       1.0  0.31885  0.06418  0.84651  1.0000
  H   H74       1.0  0.37788  0.14166  0.63805  1.0000
  H   H75       1.0  0.36644  0.16703  0.67852  1.0000
  C   C58       1.0  0.50046  0.27808  0.60622  1.0000
  H   H76       1.0  0.33717  0.19488  0.57601  1.0000
  H   H77       1.0  0.24346  0.28596  0.65052  1.0000
  C   C59       1.0  0.48567  0.22831  0.64842  1.0000
  H   H78       1.0  0.27538  0.06879  0.91510  1.0000
  H   H79       1.0  0.28825  0.28912  0.66205  1.0000
  H   H80       1.0  0.28439  0.22999  0.96517  1.0000
  H   H81       1.0  0.33009  0.22339  0.95895  1.0000
  S   S27       1.0  0.36617  0.28394  0.61444  1.0000
  H   H82       1.0  0.47729  0.10068  0.56806  1.0000
  C   C60       1.0  0.51688  0.05525  0.64506  1.0000
  C   C61       1.0  0.44982  0.06480  0.95235  1.0000
  H   H83       1.0  0.24156  0.18288  0.58510  1.0000
  C   C62       1.0  0.27989  0.22577  0.03324  1.0000
  C   C63       1.0  0.32318  0.24741  0.00997  1.0000
  C   C64       1.0  0.26574  0.05987  0.89474  1.0000
  H   H84       1.0  0.31834  0.05016  0.79332  1.0000
  Fe  Fe16      1.0  0.35742  0.27422  0.66883  1.0000
  S   S28       1.0  0.36738  0.05236  0.89401  1.0000
  H   H85       1.0  0.29804  0.20719  0.97622  1.0000
  H   H86       1.0  0.33536  0.21056  0.61080  1.0000
  H   H87       1.0  0.21358  0.08180  0.87455  1.0000
  H   H88       1.0  0.23934  0.09365  0.84139  1.0000
  H   H89       1.0  0.27931  0.21606  0.64425  1.0000
  H   H90       1.0  0.23948  0.20489  0.63280  1.0000
  N   N5        1.0  0.44740  0.05181  0.98153  1.0000
  H   H91       1.0  0.25806  0.23455  0.02421  1.0000
  C   C65       1.0  0.30058  0.06104  0.69898  1.0000
  C   C66       1.0  0.26513  0.21060  0.62237  1.0000
  C   C67       1.0  0.28283  0.27988  0.73433  1.0000
  H   H92       1.0  0.42124  0.04728  0.72079  1.0000
  H   H93       1.0  0.47120  0.08197  0.72017  1.0000
  H   H94       1.0  0.35598  0.08421  0.93382  1.0000
  H   H95       1.0  0.21907  0.29495  0.96163  1.0000
  H   H96       1.0  0.25928  0.22246  0.60541  1.0000
  C   C68       1.0  0.49885  0.11106  0.56580  1.0000
  H   H97       1.0  0.30224  0.25623  0.99935  1.0000
  H   H98       1.0  0.48619  0.12465  0.57067  1.0000
  H   H99       1.0  0.38336  0.05222  0.69641  1.0000
  H   H100      1.0  0.46937  0.28442  0.65221  1.0000
  H   H101      1.0  0.41670  0.04848  0.02903  1.0000
  H   H102      1.0  0.27044  0.21138  0.03397  1.0000
  H   H103      1.0  0.39210  0.05645  0.99401  1.0000
  S   S29       1.0  0.29781  0.06366  0.04162  1.0000
  H   H104      1.0  0.23350  0.26823  0.75447  1.0000
  H   H105      1.0  0.26036  0.20041  0.55713  1.0000
  C   C69       1.0  0.30599  0.22184  0.97633  1.0000
  H   H106      1.0  0.50389  0.04786  0.98133  1.0000
  C   C70       1.0  0.32242  0.07028  0.75299  1.0000
  H   H107      1.0  0.22002  0.27094  0.00684  1.0000
  C   C71       1.0  0.24098  0.08591  0.86589  1.0000
  C   C72       1.0  0.23653  0.28293  0.00840  1.0000
  C   C73       1.0  0.26899  0.29270  0.64258  1.0000
  C   C74       1.0  0.30058  0.07598  0.85067  1.0000
  H   H108      1.0  0.32678  0.08901  0.99086  1.0000
  C   C75       1.0  0.34449  0.07271  0.94805  1.0000
  N   N6        1.0  0.28668  0.19660  0.60389  1.0000
  C   C76       1.0  0.32844  0.07542  0.98055  1.0000
  C   C77       1.0  0.31672  0.07412  0.71872  1.0000
  H   H109      1.0  0.27063  0.17453  0.63814  1.0000
  C   C78       1.0  0.31428  0.06060  0.99946  1.0000
  C   C79       1.0  0.34120  0.21672  0.02517  1.0000
  H   H110      1.0  0.47196  0.06109  0.93382  1.0000
  S   S30       1.0  0.28887  0.25787  0.56651  1.0000
  H   H111      1.0  0.33512  0.08035  0.76817  1.0000
  H   H112      1.0  0.36650  0.21822  0.00955  1.0000
  H   H113      1.0  0.28861  0.26872  0.71714  1.0000
  C   C80       1.0  0.31994  0.20501  0.58996  1.0000
  H   H114      1.0  0.42497  0.06493  0.93830  1.0000
  S   S31       1.0  0.40798  0.14134  0.56857  1.0000
  C   C81       1.0  0.41811  0.05734  0.00575  1.0000
  H   H115      1.0  0.23919  0.05463  0.90366  1.0000
  H   H116      1.0  0.32860  0.29140  0.55534  1.0000
  N   N7        1.0  0.26452  0.06981  0.86178  1.0000
  H   H117      1.0  0.31232  0.08470  0.87019  1.0000
  S   S32       1.0  0.39720  0.08874  0.55640  1.0000
  C   C82       1.0  0.25843  0.28477  0.03593  1.0000
  H   H118      1.0  0.30932  0.18664  0.64974  1.0000
  H   H119      1.0  0.33422  0.20191  0.02611  1.0000
  H   H120      1.0  0.25044  0.06444  0.81035  1.0000
  H   H121      1.0  0.47817  0.22749  0.67622  1.0000
  H   H122      1.0  0.47901  0.24236  0.63944  1.0000
  C   C83       1.0  0.25163  0.27961  0.75553  1.0000
  H   H123      1.0  0.48858  0.09758  0.62861  1.0000
  H   H124      1.0  0.46836  0.21863  0.63533  1.0000
  S   S33       1.0  0.36281  0.10614  0.04096  1.0000
  C   C84       1.0  0.26687  0.18934  0.57556  1.0000
  H   H125      1.0  0.31479  0.21657  0.57210  1.0000
  C   C85       1.0  0.25081  0.05755  0.83583  1.0000
  N   N8        1.0  0.31260  0.22794  0.01120  1.0000
  H   H126      1.0  0.49983  0.12119  0.63181  1.0000
  H   H127      1.0  0.42232  0.17983  0.56356  1.0000
  H   H128      1.0  0.45455  0.07900  0.96093  1.0000
  H   H129      1.0  0.28261  0.17876  0.56119  1.0000
  H   H130      1.0  0.25078  0.09550  0.88510  1.0000
  H   H131      1.0  0.48694  0.06572  0.00892  1.0000
  H   H132      1.0  0.34808  0.24960  0.99404  1.0000
  H   H133      1.0  0.28409  0.04795  0.89274  1.0000
  H   H134      1.0  0.15923  0.29498  0.00060  1.0000
  H   H135      1.0  0.51535  0.19508  0.64065  1.0000
  H   H136      1.0  0.22336  0.05293  0.84298  1.0000
  C   C86       1.0  0.24388  0.29390  0.77834  1.0000
  S   S34       1.0  0.20421  0.29312  0.80418  1.0000
  H   H137      1.0  0.51652  0.21560  0.58989  1.0000
  C   C87       1.0  0.30638  0.29454  0.73564  1.0000
  S   S35       1.0  0.21574  0.50944  0.29522  1.0000
  S   S36       1.0  0.15301  0.34078  0.37113  1.0000
  S   S37       1.0  0.20129  0.49154  0.39137  1.0000
  C   C88       1.0  0.31706  0.30815  0.42260  1.0000
  Fe  Fe17      1.0  0.18700  0.50921  0.34685  1.0000
  C   C89       1.0  0.19436  0.42301  0.36343  1.0000
  C   C90       1.0  0.03823  0.53126  0.36228  1.0000
  H   H138      1.0  0.18388  0.44282  0.52157  1.0000
  C   C91       1.0  0.24754  0.31426  0.30171  1.0000
  C   C92       1.0  0.27178  0.31639  0.27353  1.0000
  H   H139      1.0  0.41295  0.34337  0.19949  1.0000
  H   H140      1.0  0.24069  0.32587  0.31756  1.0000
  H   H141      1.0  0.28350  0.32966  0.26794  1.0000
  H   H142      1.0  0.10640  0.53366  0.25736  1.0000
  C   C93       1.0  0.22347  0.53096  0.27598  1.0000
  H   H143      1.0  0.21166  0.52158  0.22602  1.0000
  C   C94       1.0  0.17136  0.47245  0.48312  1.0000
  C   C95       1.0  0.18487  0.53432  0.50041  1.0000
  H   H144      1.0  0.12058  0.53828  0.31648  1.0000
  H   H145      1.0  0.34442  0.31222  0.41389  1.0000
  C   C96       1.0  0.41574  0.29846  0.22253  1.0000
  H   H146      1.0  0.18276  0.45195  0.36360  1.0000
  Fe  Fe18      1.0  0.19420  0.35983  0.38977  1.0000
  S   S38       1.0  0.13066  0.49947  0.34760  1.0000
  H   H147      1.0  0.38006  0.33014  0.22347  1.0000
  H   H148      1.0  0.24941  0.30033  0.41354  1.0000
  C   C97       1.0  0.20609  0.45277  0.51811  1.0000
  H   H149      1.0  0.21645  0.42430  0.34485  1.0000
  S   S39       1.0  0.20947  0.38636  0.36345  1.0000
  C   C98       1.0  0.15127  0.54031  0.49190  1.0000
  C   C99       1.0  0.04855  0.33537  0.39150  1.0000
  H   H150      1.0  0.20741  0.45578  0.43151  1.0000
  C   C100      1.0  0.04291  0.51970  0.33420  1.0000
  N   N9        1.0  0.42220  0.31434  0.19938  1.0000
  H   H151      1.0  0.14743  0.54395  0.24257  1.0000
  Fe  Fe19      1.0  0.19365  0.31877  0.37849  1.0000
  S   S40       1.0  0.23615  0.33817  0.39194  1.0000
  S   S41       1.0  0.17572  0.53417  0.37834  1.0000
  H   H152      1.0  0.07375  0.33875  0.37873  1.0000
  C   C101      1.0  0.17533  0.43866  0.37402  1.0000
  C   C102      1.0  0.18490  0.40571  0.37674  1.0000
  H   H153      1.0  0.16837  0.48311  0.50310  1.0000
  H   H154      1.0  0.28621  0.31113  0.36258  1.0000
  H   H155      1.0  0.23498  0.48305  0.45637  1.0000
  H   H156      1.0  0.06899  0.51746  0.32245  1.0000
  H   H157      1.0  0.30002  0.32056  0.42110  1.0000
  H   H158      1.0  0.26103  0.46847  0.48237  1.0000
  H   H159      1.0  0.23345  0.44107  0.45726  1.0000
  H   H160      1.0  0.12524  0.32418  0.07192  1.0000
  S   S42       1.0  0.07438  0.54266  0.37825  1.0000
  C   C103      1.0  0.28049  0.30158  0.25227  1.0000
  S   S43       1.0  0.21257  0.52282  0.47023  1.0000
  Fe  Fe20      1.0  0.14377  0.48398  0.39497  1.0000
  H   H161      1.0  0.42288  0.33365  0.24024  1.0000
  C   C104      1.0  0.40317  0.31174  0.16790  1.0000
  H   H162      1.0  0.37402  0.31111  0.17343  1.0000
  C   C105      1.0  0.04571  0.33360  0.42704  1.0000
  H   H163      1.0  0.16972  0.47951  0.45810  1.0000
  Fe  Fe21      1.0  0.12023  0.52333  0.38194  1.0000
  H   H164      1.0  0.23318  0.48603  0.50148  1.0000
  H   H165      1.0  0.22243  0.53309  0.53986  1.0000
  H   H166      1.0  0.14504  0.30251  0.06097  1.0000
  Fe  Fe22      1.0  0.18405  0.51563  0.42323  1.0000
  H   H167      1.0  0.11507  0.41841  0.42972  1.0000
  C   C106      1.0  0.40902  0.33114  0.21644  1.0000
  H   H168      1.0  0.41126  0.29880  0.15517  1.0000
  S   S44       1.0  0.12369  0.45640  0.41337  1.0000
  C   C107      1.0  0.10232  0.30088  0.36874  1.0000
  C   C108      1.0  0.14674  0.43702  0.39797  1.0000
  C   C109      1.0  0.15618  0.40409  0.40057  1.0000
  S   S45       1.0  0.12737  0.50700  0.42953  1.0000
  C   C110      1.0  0.13716  0.41972  0.41116  1.0000
  C   C111      1.0  0.20826  0.44896  0.45699  1.0000
  H   H169      1.0  0.23743  0.54421  0.32208  1.0000
  Fe  Fe23      1.0  0.21589  0.33371  0.44610  1.0000
  S   S46       1.0  0.25799  0.33093  0.48464  1.0000
  H   H170      1.0  0.20369  0.46256  0.53964  1.0000
  H   H171      1.0  0.21789  0.29689  0.49343  1.0000
  S   S47       1.0  0.17726  0.35709  0.44524  1.0000
  C   C112      1.0  0.30354  0.29897  0.36578  1.0000
  Fe  Fe24      1.0  0.13874  0.33642  0.42698  1.0000
  S   S48       1.0  0.08341  0.33395  0.45153  1.0000
  C   C113      1.0  0.26571  0.31037  0.50676  1.0000
  C   C114      1.0  0.29675  0.30875  0.52456  1.0000
  H   H172      1.0  0.31528  0.32003  0.52432  1.0000
  C   C115      1.0  0.23497  0.47549  0.48118  1.0000
  N   N10       1.0  0.20521  0.46241  0.48485  1.0000
  H   H173      1.0  0.47107  0.30366  0.17697  1.0000
  C   C116      1.0  0.21922  0.53317  0.24092  1.0000
  S   S49       1.0  0.17605  0.31272  0.43298  1.0000
  H   H174      1.0  0.18599  0.43898  0.45880  1.0000
  H   H175      1.0  0.14816  0.46308  0.48582  1.0000
  H   H176      1.0  0.46655  0.32796  0.17348  1.0000
  H   H177      1.0  0.12809  0.29924  0.35397  1.0000
  H   H178      1.0  0.14856  0.39079  0.41075  1.0000
  H   H179      1.0  0.10668  0.31043  0.38996  1.0000
  H   H180      1.0  0.38689  0.29661  0.22908  1.0000
  S   S50       1.0  0.31160  0.30477  0.21757  1.0000
  H   H181      1.0  0.40849  0.32305  0.14911  1.0000
  C   C117      1.0  0.23229  0.29718  0.30919  1.0000
  C   C118      1.0  0.24204  0.29569  0.50689  1.0000
  H   H182      1.0  0.08364  0.30757  0.35146  1.0000
  C   C119      1.0  0.19636  0.53759  0.53319  1.0000
  H   H183      1.0  0.42932  0.30003  0.24677  1.0000
  H   H184      1.0  0.23128  0.44503  0.52029  1.0000
  H   H185      1.0  0.29691  0.30177  0.05866  1.0000
  H   H186      1.0  0.02937  0.53241  0.52884  1.0000
  H   H187      1.0  0.31737  0.30422  0.45009  1.0000
  H   H188      1.0  0.33051  0.30271  0.35530  1.0000
  H   H189      1.0  0.47606  0.31749  0.21377  1.0000
  C   C120      1.0  0.46062  0.31598  0.19060  1.0000
  H   H190      1.0  0.14261  0.53845  0.46642  1.0000
  H   H191      1.0  0.07686  0.54174  0.06822  1.0000
  C   C121      1.0  0.12683  0.31340  0.05211  1.0000
  H   H192      1.0  0.10001  0.30723  0.05095  1.0000
  H   H193      1.0  0.02150  0.33286  0.34472  1.0000
  C   C122      1.0  0.04036  0.49999  0.92189  1.0000
  N   N11       1.0  0.13937  0.32097  0.01853  1.0000
  C   C123      1.0  0.19731  0.53239  0.76759  1.0000
  H   H194      1.0  0.31954  0.31789  0.64861  1.0000
  H   H195      1.0  0.29773  0.33614  0.62689  1.0000
  C   C124      1.0  0.15895  0.53690  0.03148  1.0000
  C   C125      1.0  0.27990  0.30023  0.03761  1.0000
  H   H196      1.0  0.08849  0.44319  0.93574  1.0000
  H   H197      1.0  0.27067  0.31779  0.69249  1.0000
  N   N12       1.0  0.26490  0.31274  0.63923  1.0000
  H   H198      1.0  0.18579  0.33425  0.99593  1.0000
  C   C126      1.0  0.23589  0.29653  0.98280  1.0000
  C   C127      1.0  0.25154  0.32026  0.67230  1.0000
  H   H199      1.0  0.17461  0.34051  0.03931  1.0000
  H   H200      1.0  0.14300  0.52637  0.04431  1.0000
  Fe  Fe25      1.0  0.18593  0.52069  0.91129  1.0000
  S   S51       1.0  0.21819  0.49658  0.89254  1.0000
  H   H201      1.0  0.16648  0.52169  0.98509  1.0000
  Fe  Fe26      1.0  0.12081  0.50840  0.87587  1.0000
  S   S52       1.0  0.14709  0.48348  0.85369  1.0000
  S   S53       1.0  0.06604  0.51563  0.86131  1.0000
  Fe  Fe27      1.0  0.16908  0.48007  0.90528  1.0000
  S   S54       1.0  0.16596  0.45271  0.93247  1.0000
  Fe  Fe28      1.0  0.19342  0.50200  0.84261  1.0000
  H   H202      1.0  0.15077  0.31143  0.96765  1.0000
  S   S55       1.0  0.13885  0.50375  0.92867  1.0000
  S   S56       1.0  0.16514  0.52731  0.86008  1.0000
  Fe  Fe29      1.0  0.13648  0.32533  0.89914  1.0000
  S   S57       1.0  0.14595  0.33314  0.84385  1.0000
  S   S58       1.0  0.08476  0.32102  0.92980  1.0000
  Fe  Fe30      1.0  0.21469  0.32813  0.91396  1.0000
  S   S59       1.0  0.23064  0.33600  0.85990  1.0000
  S   S60       1.0  0.25484  0.33006  0.95443  1.0000
  Fe  Fe31      1.0  0.18282  0.35430  0.86303  1.0000
  S   S61       1.0  0.18936  0.38272  0.84041  1.0000
  Fe  Fe32      1.0  0.19302  0.31418  0.84525  1.0000
  C   C128      1.0  0.23956  0.31693  0.61276  1.0000
  S   S62       1.0  0.16966  0.34805  0.91814  1.0000
  H   H203      1.0  0.02068  0.53031  0.79425  1.0000
  C   C129      1.0  0.17501  0.32896  0.02113  1.0000
  H   H204      1.0  0.25267  0.37421  0.94750  1.0000
  C   C130      1.0  0.11452  0.33530  0.00767  1.0000
  H   H205      1.0  0.26405  0.37550  0.85327  1.0000
  C   C131      1.0  0.14110  0.30618  0.99316  1.0000
  C   C132      1.0  0.25688  0.31216  0.98480  1.0000
  H   H206      1.0  0.11220  0.34666  0.02623  1.0000
  C   C133      1.0  0.27901  0.31392  0.01216  1.0000
  S   S63       1.0  0.18071  0.30467  0.89946  1.0000
  C   C134      1.0  0.07490  0.45388  0.92070  1.0000
  C   C135      1.0  0.26749  0.30853  0.77969  1.0000
  H   H207      1.0  0.04387  0.42122  0.91495  1.0000
  H   H208      1.0  0.07188  0.31730  0.85770  1.0000
  H   H209      1.0  0.26167  0.31966  0.79694  1.0000
  H   H210      1.0  0.33099  0.36601  0.88942  1.0000
  H   H211      1.0  0.30958  0.36058  0.93043  1.0000
  H   H212      1.0  0.30356  0.38910  0.85117  1.0000
  H   H213      1.0  0.06728  0.49922  0.92927  1.0000
  C   C136      1.0  0.17245  0.43337  0.90671  1.0000
  C   C137      1.0  0.18537  0.43506  0.87278  1.0000
  C   C138      1.0  0.18994  0.41942  0.85257  1.0000
  C   C139      1.0  0.18151  0.40204  0.86610  1.0000
  C   C140      1.0  0.16802  0.40039  0.89988  1.0000
  C   C141      1.0  0.16382  0.41600  0.92023  1.0000
  H   H214      1.0  0.19222  0.44840  0.86217  1.0000
  H   H215      1.0  0.20031  0.42080  0.82641  1.0000
  H   H216      1.0  0.16097  0.38711  0.91039  1.0000
  H   H217      1.0  0.15359  0.41466  0.94643  1.0000
  H   H218      1.0  0.22603  0.31383  0.68140  1.0000
  C   C142      1.0  0.04468  0.46113  0.86955  1.0000
  C   C143      1.0  0.29861  0.30884  0.75839  1.0000
  H   H219      1.0  0.26149  0.39915  0.86412  1.0000
  H   H220      1.0  0.23398  0.39214  0.92219  1.0000
  C   C144      1.0  0.08931  0.43738  0.86887  1.0000
  H   H221      1.0  0.28847  0.40989  0.91686  1.0000
  C   C145      1.0  0.03290  0.43258  0.89953  1.0000
  H   H222      1.0  0.12324  0.34128  0.98237  1.0000
  S   S64       1.0  0.20893  0.54469  0.93836  1.0000
  C   C146      1.0  0.17206  0.53426  0.99779  1.0000
  C   C147      1.0  0.29966  0.32100  0.62931  1.0000
  S   S65       1.0  0.22675  0.50081  0.79372  1.0000
  N   N13       1.0  0.28403  0.38180  0.90211  1.0000
  H   H223      1.0  0.02215  0.46776  0.88417  1.0000
  C   C148      1.0  0.24947  0.37919  0.92091  1.0000
  C   C149      1.0  0.30484  0.36467  0.90361  1.0000
  C   C150      1.0  0.25775  0.53990  0.72551  1.0000
  H   H224      1.0  0.28852  0.53412  0.84994  1.0000
  H   H225      1.0  0.31663  0.32027  0.75942  1.0000
  H   H226      1.0  0.21298  0.31100  0.61959  1.0000
  H   H227      1.0  0.07969  0.43179  0.84482  1.0000
  C   C151      1.0  0.25608  0.52395  0.74558  1.0000
  C   C152      1.0  0.22618  0.52027  0.76701  1.0000
  H   H228      1.0  0.10133  0.42585  0.88303  1.0000
  C   C153      1.0  0.27817  0.38662  0.86612  1.0000
  H   H229      1.0  0.24658  0.53168  0.83141  1.0000
  H   H230      1.0  0.11103  0.44719  0.86184  1.0000
  C   C154      1.0  0.30345  0.39674  0.91788  1.0000
  H   H231      1.0  0.29062  0.35307  0.89239  1.0000
  H   H232      1.0  0.27839  0.51462  0.74501  1.0000
  H   H233      1.0  0.30781  0.39364  0.94519  1.0000
  H   H234      1.0  0.05371  0.46003  0.93769  1.0000
  H   H235      1.0  0.29535  0.32596  0.01386  1.0000
  H   H236      1.0  0.23321  0.36895  0.90817  1.0000
  H   H237      1.0  0.09480  0.46476  0.91427  1.0000
  C   C155      1.0  0.04665  0.31792  0.87196  1.0000
  H   H238      1.0  0.17398  0.52946  0.78382  1.0000
  H   H239      1.0  0.32982  0.39902  0.90453  1.0000
  H   H240      1.0  0.31047  0.31571  0.60438  1.0000
  C   C156      1.0  0.04552  0.31975  0.90744  1.0000
  C   C157      1.0  0.26080  0.53931  0.85077  1.0000
  H   H241      1.0  0.23618  0.33194  0.60912  1.0000
  C   C158      1.0  0.02542  0.54493  0.80015  1.0000
  N   N14       1.0  0.06045  0.44624  0.88964  1.0000
  H   H242      1.0  0.24723  0.33530  0.67060  1.0000
  H   H243      1.0  0.11450  0.30013  0.98980  1.0000
  H   H244      1.0  0.24833  0.53559  0.87622  1.0000
  C   C159      1.0  0.03253  0.50786  0.89044  1.0000
  H   H245      1.0  0.24872  0.31123  0.58758  1.0000
  H   H246      1.0  0.06443  0.47203  0.86259  1.0000
  H   H247      1.0  0.08750  0.32965  0.00474  1.0000
  S   S66       1.0  0.34448  0.29613  0.70774  1.0000
  H   H248      1.0  0.04314  0.53768  0.73399  1.0000
  H   H249      1.0  0.08376  0.52691  0.77843  1.0000
  H   H250      1.0  0.19422  0.31862  0.03014  1.0000
  H   H251      1.0  0.09537  0.54222  0.81124  1.0000
  H   H252      1.0  0.02152  0.42646  0.87671  1.0000
  C   C160      1.0  0.08778  0.54161  0.78423  1.0000
  H   H253      1.0  0.03433  0.45600  0.84546  1.0000
  H   H254      1.0  0.28139  0.54286  0.70962  1.0000
  H   H255      1.0  0.05335  0.54416  0.02967  1.0000
  H   H256      1.0  0.03048  0.54551  0.82783  1.0000
  Fe  Fe33      1.0  0.18268  0.61983  0.13020  1.0000
  S   S67       1.0  0.17471  0.61841  0.18713  1.0000
  S   S68       1.0  0.20093  0.64574  0.10279  1.0000
  Fe  Fe34      1.0  0.16326  0.58000  0.12165  1.0000
  S   S69       1.0  0.15420  0.57527  0.17810  1.0000
  C   C161      1.0  0.27463  0.78719  0.26646  1.0000
  Fe  Fe35      1.0  0.12647  0.60221  0.17751  1.0000
  C   C162      1.0  0.20250  0.58622  0.51677  1.0000
  Fe  Fe36      1.0  0.20337  0.59167  0.18294  1.0000
  S   S70       1.0  0.24090  0.58684  0.22459  1.0000
  S   S71       1.0  0.13135  0.60593  0.12077  1.0000
  S   S72       1.0  0.21563  0.59409  0.12638  1.0000
  Fe  Fe37      1.0  0.17994  0.74482  0.16302  1.0000
  S   S73       1.0  0.13963  0.76588  0.18039  1.0000
  S   S74       1.0  0.17857  0.71742  0.18967  1.0000
  Fe  Fe38      1.0  0.21308  0.76988  0.10759  1.0000
  C   C163      1.0  0.28578  0.77887  0.39833  1.0000
  Fe  Fe39      1.0  0.18541  0.78552  0.17490  1.0000
  C   C164      1.0  0.17955  0.60987  0.48058  1.0000
  H   H257      1.0  0.23334  0.61929  0.51910  1.0000
  Fe  Fe40      1.0  0.13345  0.77080  0.12438  1.0000
  S   S75       1.0  0.08350  0.77235  0.09488  1.0000
  S   S76       1.0  0.22618  0.76405  0.16180  1.0000
  S   S77       1.0  0.17088  0.74836  0.10753  1.0000
  C   C165      1.0  0.04253  0.77121  0.11853  1.0000
  H   H258      1.0  0.12273  0.58400  0.24765  1.0000
  H   H259      1.0  0.27728  0.63852  0.24208  1.0000
  H   H260      1.0  0.23687  0.77695  0.23201  1.0000
  H   H261      1.0  0.13228  0.59281  0.52355  1.0000
  C   C166      1.0  0.07902  0.56380  0.28832  1.0000
  H   H262      1.0  0.22431  0.76906  0.43063  1.0000
  H   H263      1.0  0.16288  0.59981  0.46761  1.0000
  N   N15       1.0  0.18469  0.60424  0.51627  1.0000
  C   C167      1.0  0.13519  0.57705  0.26938  1.0000
  H   H264      1.0  0.07758  0.56979  0.18541  1.0000
  H   H265      1.0  0.13454  0.58684  0.29088  1.0000
  H   H266      1.0  0.23176  0.76267  0.36829  1.0000
  H   H267      1.0  0.02796  0.55477  0.50957  1.0000
  H   H268      1.0  0.13589  0.61640  0.53598  1.0000
  S   S78       1.0  0.07580  0.60712  0.20803  1.0000
  H   H269      1.0  0.29171  0.79038  0.18699  1.0000
  C   C168      1.0  0.23482  0.56524  0.24407  1.0000
  C   C169      1.0  0.23976  0.56299  0.27903  1.0000
  N   N16       1.0  0.25038  0.78669  0.39284  1.0000
  H   H270      1.0  0.30431  0.78115  0.37561  1.0000
  C   C170      1.0  0.26665  0.78991  0.52503  1.0000
  H   H271      1.0  0.24800  0.57448  0.29378  1.0000
  C   C171      1.0  0.22423  0.55035  0.22510  1.0000
  H   H272      1.0  0.03008  0.54928  0.16756  1.0000
  C   C172      1.0  0.19117  0.66614  0.12477  1.0000
  C   C173      1.0  0.16959  0.66597  0.15482  1.0000
  C   C174      1.0  0.16553  0.68185  0.17434  1.0000
  C   C175      1.0  0.18186  0.69819  0.16324  1.0000
  C   C176      1.0  0.20202  0.69865  0.13226  1.0000
  C   C177      1.0  0.20690  0.68259  0.11320  1.0000
  H   H273      1.0  0.15634  0.65356  0.16333  1.0000
  H   H274      1.0  0.14961  0.68149  0.19810  1.0000
  H   H275      1.0  0.21482  0.71122  0.12365  1.0000
  H   H276      1.0  0.22347  0.68282  0.08984  1.0000
  N   N17       1.0  0.27578  0.64490  0.18842  1.0000
  C   C178      1.0  0.24944  0.65977  0.19323  1.0000
  C   C179      1.0  0.26972  0.63523  0.15640  1.0000
  C   C180      1.0  0.27203  0.63188  0.21751  1.0000
  C   C181      1.0  0.31186  0.65270  0.18649  1.0000
  H   H277      1.0  0.25353  0.66767  0.21674  1.0000
  H   H278      1.0  0.22201  0.65424  0.19555  1.0000
  H   H279      1.0  0.25062  0.66958  0.17125  1.0000
  H   H280      1.0  0.24270  0.62931  0.15687  1.0000
  H   H281      1.0  0.27204  0.64462  0.13381  1.0000
  H   H282      1.0  0.28874  0.62374  0.15203  1.0000
  H   H283      1.0  0.29045  0.62003  0.21423  1.0000
  H   H284      1.0  0.24476  0.62614  0.22016  1.0000
  H   H285      1.0  0.31542  0.66256  0.16471  1.0000
  H   H286      1.0  0.33231  0.64179  0.18288  1.0000
  H   H287      1.0  0.31735  0.66014  0.21022  1.0000
  H   H288      1.0  0.06419  0.55106  0.29529  1.0000
  H   H289      1.0  0.28696  0.77397  0.27006  1.0000
  H   H290      1.0  0.19406  0.63162  0.53317  1.0000
  H   H291      1.0  0.06457  0.77538  0.16726  1.0000
  H   H292      1.0  0.31832  0.78239  0.50376  1.0000
  C   C182      1.0  0.04066  0.77324  0.15393  1.0000
  H   H293      1.0  0.18683  0.57566  0.50408  1.0000
  C   C183      1.0  0.20685  0.61787  0.53260  1.0000
  H   H294      1.0  0.20866  0.78345  0.35821  1.0000
  H   H295      1.0  0.20017  0.78956  0.42083  1.0000
  C   C184      1.0  0.04289  0.59290  0.19361  1.0000
  H   H296      1.0  0.16184  0.54855  0.30296  1.0000
  H   H297      1.0  0.34012  0.79197  0.12237  1.0000
  H   H298      1.0  0.25244  0.77939  0.33990  1.0000
  C   C185      1.0  0.24634  0.78885  0.24477  1.0000
  C   C186      1.0  0.23506  0.77762  0.36358  1.0000
  C   C187      1.0  0.14982  0.60297  0.53511  1.0000
  S   S79       1.0  0.25745  0.77186  0.06679  1.0000
  C   C188      1.0  0.05086  0.57489  0.18427  1.0000
  C   C189      1.0  0.12881  0.54899  0.51627  1.0000
  H   H299      1.0  0.22916  0.58668  0.50333  1.0000
  H   H300      1.0  0.16617  0.62343  0.47933  1.0000
  S   S80       1.0  0.14808  0.55588  0.09039  1.0000
  H   H301      1.0  0.20608  0.58136  0.54338  1.0000
  H   H302      1.0  0.16350  0.57453  0.26151  1.0000
  C   C190      1.0  0.14014  0.55218  0.54904  1.0000
  H   H303      1.0  0.29603  0.78286  0.12604  1.0000
  H   H304      1.0  0.28440  0.76388  0.40337  1.0000
  H   H305      1.0  0.20531  0.61090  0.46556  1.0000
  H   H306      1.0  0.29787  0.78521  0.42058  1.0000
  C   C191      1.0  0.22714  0.78385  0.42397  1.0000
  N   N18       1.0  0.11669  0.55984  0.27920  1.0000
  C   C192      1.0  0.11929  0.54697  0.25041  1.0000
  H   H307      1.0  0.07323  0.56555  0.11153  1.0000
  C   C193      1.0  0.23367  0.54591  0.29508  1.0000
  H   H308      1.0  0.04725  0.58584  0.10554  1.0000
  C   C194      1.0  0.29715  0.79240  0.50356  1.0000
  C   C195      1.0  0.06384  0.57532  0.09195  1.0000
  H   H309      1.0  0.08784  0.58219  0.08026  1.0000
  H   H310      1.0  0.10278  0.55346  0.50948  1.0000
  H   H311      1.0  0.22070  0.55195  0.19804  1.0000
  N   N19       1.0  0.04414  0.56583  0.06588  1.0000
  C   C196      1.0  0.02404  0.56335  0.17392  1.0000
  H   H312      1.0  0.07619  0.57295  0.31080  1.0000
  H   H313      1.0  0.23803  0.79070  0.44637  1.0000
  S   S81       1.0  0.17528  0.79266  0.12024  1.0000
  C   C197      1.0  0.13335  0.55148  0.30881  1.0000
  H   H314      1.0  0.13133  0.56054  0.33143  1.0000
  H   H315      1.0  0.10648  0.55261  0.22773  1.0000
  H   H316      1.0  0.06592  0.57062  0.26676  1.0000
  C   C198      1.0  0.02073  0.54680  0.53326  1.0000
  H   H317      1.0  0.01973  0.54697  0.10242  1.0000
  C   C199      1.0  0.28993  0.78422  0.75700  1.0000
  Fe  Fe41      1.0  0.16411  0.61661  0.63580  1.0000
  S   S82       1.0  0.16382  0.61139  0.69240  1.0000
  S   S83       1.0  0.17819  0.64189  0.60428  1.0000
  Fe  Fe42      1.0  0.13602  0.57843  0.62109  1.0000
  S   S84       1.0  0.13396  0.56960  0.67619  1.0000
  S   S85       1.0  0.11143  0.56353  0.57835  1.0000
  Fe  Fe43      1.0  0.11161  0.59761  0.68599  1.0000
  Fe  Fe44      1.0  0.18629  0.58388  0.67794  1.0000
  S   S86       1.0  0.10975  0.60544  0.63092  1.0000
  S   S87       1.0  0.19076  0.59008  0.62157  1.0000
  Fe  Fe45      1.0  0.19169  0.74356  0.65253  1.0000
  S   S88       1.0  0.15381  0.76510  0.67279  1.0000
  S   S89       1.0  0.18978  0.71689  0.68211  1.0000
  Fe  Fe46      1.0  0.22107  0.76848  0.59455  1.0000
  H   H318      1.0  0.17379  0.65072  0.67638  1.0000
  H   H319      1.0  0.19212  0.67845  0.57999  1.0000
  Fe  Fe47      1.0  0.19973  0.78438  0.66334  1.0000
  H   H320      1.0  0.19772  0.70794  0.60986  1.0000
  Fe  Fe48      1.0  0.14288  0.76981  0.61776  1.0000
  S   S90       1.0  0.08978  0.76981  0.59388  1.0000
  S   S91       1.0  0.23842  0.76249  0.64748  1.0000
  S   S92       1.0  0.17837  0.74718  0.59797  1.0000
  C   C200      1.0  0.04970  0.76986  0.61875  1.0000
  H   H321      1.0  0.08155  0.74332  0.66923  1.0000
  H   H322      1.0  0.11070  0.54661  0.76772  1.0000
  N   N20       1.0  0.08027  0.71498  0.65552  1.0000
  C   C201      1.0  0.08586  0.72951  0.68053  1.0000
  H   H323      1.0  0.06191  0.57747  0.66144  1.0000
  H   H324      1.0  0.17950  0.68015  0.70625  1.0000
  H   H325      1.0  0.09133  0.55813  0.03639  1.0000
  C   C202      1.0  0.04321  0.71558  0.64526  1.0000
  H   H326      1.0  0.20754  0.55832  0.82445  1.0000
  C   C203      1.0  0.18240  0.66259  0.62619  1.0000
  C   C204      1.0  0.17892  0.66314  0.66180  1.0000
  C   C205      1.0  0.18226  0.67982  0.67867  1.0000
  C   C206      1.0  0.18867  0.69608  0.66005  1.0000
  C   C207      1.0  0.19233  0.69553  0.62442  1.0000
  C   C208      1.0  0.18920  0.67881  0.60755  1.0000
  C   C209      1.0  0.04755  0.77655  0.65203  1.0000
  H   H327      1.0  0.20228  0.74090  0.03546  1.0000
  H   H328      1.0  0.09911  0.73123  0.61222  1.0000
  H   H329      1.0  0.30568  0.56445  0.87220  1.0000
  S   S93       1.0  0.18462  0.79149  0.60992  1.0000
  H   H330      1.0  0.30522  0.55908  0.80937  1.0000
  H   H331      1.0  0.06694  0.57272  0.81613  1.0000
  H   H332      1.0  0.18556  0.77303  0.04553  1.0000
  H   H333      1.0  0.06892  0.55808  0.72579  1.0000
  H   H334      1.0  0.27624  0.57846  0.80475  1.0000
  S   S94       1.0  0.23404  0.57270  0.70291  1.0000
  H   H335      1.0  0.17658  0.55771  0.74726  1.0000
  H   H336      1.0  0.21401  0.75403  0.96024  1.0000
  C   C210      1.0  0.18016  0.74011  0.01781  1.0000
  H   H337      1.0  0.31343  0.78215  0.60348  1.0000
  H   H338      1.0  0.03668  0.55228  0.55398  1.0000
  H   H339      1.0  0.07110  0.78158  0.66329  1.0000
  C   C211      1.0  0.08771  0.69696  0.67112  1.0000
  H   H340      1.0  0.40033  0.77058  0.80464  1.0000
  C   C212      1.0  0.47901  0.78381  0.83484  1.0000
  H   H341      1.0  0.15615  0.73551  0.03325  1.0000
  H   H342      1.0  0.06936  0.69403  0.69362  1.0000
  H   H343      1.0  0.11516  0.69636  0.68005  1.0000
  S   S95       1.0  0.06200  0.60122  0.71918  1.0000
  C   C213      1.0  0.06160  0.57167  0.78861  1.0000
  H   H344      1.0  0.11344  0.72916  0.68930  1.0000
  H   H345      1.0  0.14010  0.76954  0.96416  1.0000
  S   S96       1.0  0.26396  0.77054  0.55221  1.0000
  H   H346      1.0  0.13254  0.71820  0.63230  1.0000
  H   H347      1.0  0.44433  0.76581  0.78727  1.0000
  H   H348      1.0  0.49631  0.78129  0.81150  1.0000
  H   H349      1.0  0.11986  0.75221  0.99156  1.0000
  H   H350      1.0  0.30744  0.78005  0.01165  1.0000
  H   H351      1.0  0.10211  0.70692  0.60613  1.0000
  C   C214      1.0  0.18772  0.56640  0.03215  1.0000
  C   C215      1.0  0.02731  0.59290  0.69583  1.0000
  N   N21       1.0  0.25936  0.55925  0.84436  1.0000
  H   H352      1.0  0.16071  0.78555  0.01535  1.0000
  H   H353      1.0  0.03815  0.70482  0.62631  1.0000
  H   H354      1.0  0.26452  0.56579  0.89711  1.0000
  H   H355      1.0  0.02061  0.75821  0.57857  1.0000
  H   H356      1.0  0.18720  0.72927  0.99895  1.0000
  C   C216      1.0  0.20085  0.56375  0.99830  1.0000
  H   H357      1.0  0.19376  0.57884  0.04531  1.0000
  H   H358      1.0  0.02412  0.71350  0.66756  1.0000
  H   H359      1.0  0.08521  0.68566  0.65261  1.0000
  C   C217      1.0  0.20700  0.76362  0.98135  1.0000
  H   H360      1.0  0.26379  0.55649  0.78987  1.0000
  C   C218      1.0  0.42862  0.76915  0.81119  1.0000
  C   C219      1.0  0.03496  0.58138  0.66823  1.0000
  N   N22       1.0  0.17421  0.75795  0.00087  1.0000
  H   H361      1.0  0.03689  0.72904  0.63343  1.0000
  H   H362      1.0  0.06750  0.72803  0.70350  1.0000
  H   H363      1.0  0.21990  0.58028  0.83981  1.0000
  C   C220      1.0  0.14504  0.75631  0.97746  1.0000
  H   H364      1.0  0.25600  0.77497  0.71806  1.0000
  C   C221      1.0  0.16458  0.77177  0.02696  1.0000
  H   H365      1.0  0.21127  0.61400  0.55960  1.0000
  H   H366      1.0  0.30203  0.77094  0.76043  1.0000
  H   H367      1.0  0.21707  0.57417  0.98549  1.0000
  N   N23       1.0  0.44148  0.78606  0.82666  1.0000
  C   C222      1.0  0.04721  0.55195  0.74249  1.0000
  H   H368      1.0  0.20782  0.56222  0.86963  1.0000
  H   H369      1.0  0.03827  0.58048  0.78367  1.0000
  H   H370      1.0  0.22994  0.76387  0.99796  1.0000
  C   C223      1.0  0.10449  0.71795  0.62516  1.0000
  H   H371      1.0  0.42233  0.77869  0.87765  1.0000
  C   C224      1.0  0.26382  0.78648  0.73294  1.0000
  H   H372      1.0  0.43023  0.75723  0.82896  1.0000
  C   C225      1.0  0.41987  0.78980  0.85829  1.0000
  C   C226      1.0  0.27702  0.56354  0.81069  1.0000
  C   C227      1.0  0.06727  0.55183  0.04926  1.0000
  H   H373      1.0  0.15115  0.74586  0.95758  1.0000
  H   H374      1.0  0.39131  0.79106  0.85307  1.0000
  H   H375      1.0  0.27693  0.58389  0.86751  1.0000
  H   H376      1.0  0.08469  0.57768  0.77362  1.0000
  C   C228      1.0  0.22911  0.55205  0.72592  1.0000
  C   C229      1.0  0.27749  0.56880  0.87143  1.0000
  H   H377      1.0  0.18291  0.54903  0.58283  1.0000
  H   H378      1.0  0.20448  0.77759  0.97007  1.0000
  C   C230      1.0  0.16667  0.55295  0.04873  1.0000
  C   C231      1.0  0.22199  0.56530  0.84458  1.0000
  H   H379      1.0  0.13962  0.76808  0.04182  1.0000
  H   H380      1.0  0.48253  0.77214  0.85286  1.0000
  C   C232      1.0  0.03313  0.57925  0.04002  1.0000
  H   H381      1.0  0.02270  0.55985  0.73763  1.0000
  H   H382      1.0  0.15259  0.59852  0.56200  1.0000
  H   H383      1.0  0.29407  0.79165  0.66217  1.0000
  C   C233      1.0  0.19287  0.54770  0.98098  1.0000
  C   C234      1.0  0.28707  0.79050  0.01173  1.0000
  C   C235      1.0  0.25941  0.79015  0.03698  1.0000
  C   C236      1.0  0.19862  0.54823  0.74671  1.0000
  C   C237      1.0  0.17405  0.54660  0.55750  1.0000
  N   N24       1.0  0.05549  0.55252  0.77887  1.0000
  H   H384      1.0  0.35459  0.79422  0.60557  1.0000
  H   H385      1.0  0.05650  0.58622  0.02719  1.0000
  Fe  Fe49      1.0  0.31738  0.01535  0.30067  1.0000
  S   S97       1.0  0.28310  0.02098  0.25672  1.0000
  S   S98       1.0  0.34563  0.98842  0.30143  1.0000
  C   C238      1.0  0.46238  0.01631  0.43869  1.0000
  H   H386      1.0  0.45129  0.01430  0.41325  1.0000
  Fe  Fe50      1.0  0.34011  0.82268  0.34385  1.0000
  S   S99       1.0  0.44707  0.00096  0.28816  1.0000
  H   H387      1.0  0.27746  0.98033  0.27125  1.0000
  H   H388      1.0  0.20416  0.94547  0.32730  1.0000
  H   H389      1.0  0.50987  0.98928  0.32021  1.0000
  C   C239      1.0  0.47419  0.01209  0.31591  1.0000
  S   S100      1.0  0.39136  0.83821  0.33709  1.0000
  C   C240      1.0  0.48578  0.03817  0.35124  1.0000
  H   H390      1.0  0.40496  0.03772  0.15467  1.0000
  S   S101      1.0  0.30129  0.01524  0.35657  1.0000
  H   H391      1.0  0.36916  0.95555  0.33548  1.0000
  C   C241      1.0  0.25120  0.97344  0.27192  1.0000
  H   H392      1.0  0.25735  0.81913  0.11729  1.0000
  C   C242      1.0  0.27077  0.81947  0.27885  1.0000
  C   C243      1.0  0.24267  0.82117  0.25686  1.0000
  H   H393      1.0  0.28013  0.83135  0.29180  1.0000
  H   H394      1.0  0.23049  0.83440  0.25302  1.0000
  H   H395      1.0  0.48583  0.87122  0.34351  1.0000
  C   C244      1.0  0.43653  0.90057  0.39307  1.0000
  C   C245      1.0  0.45325  0.03095  0.20153  1.0000
  C   C246      1.0  0.51509  0.02912  0.36374  1.0000
  H   H396      1.0  0.39113  0.92606  0.31233  1.0000
  H   H397      1.0  0.45974  0.02210  0.50633  1.0000
  H   H398      1.0  0.45552  0.88878  0.33077  1.0000
  Fe  Fe51      1.0  0.33372  0.98926  0.35799  1.0000
  H   H399      1.0  0.46254  0.02389  0.22480  1.0000
  C   C247      1.0  0.35830  0.94289  0.34586  1.0000
  C   C248      1.0  0.46214  0.87935  0.35204  1.0000
  S   S102      1.0  0.36636  0.03172  0.30665  1.0000
  H   H400      1.0  0.43073  0.91066  0.37260  1.0000
  C   C249      1.0  0.46500  0.02955  0.32773  1.0000
  H   H401      1.0  0.31447  0.03398  0.43207  1.0000
  H   H402      1.0  0.29940  0.95503  0.30696  1.0000
  H   H403      1.0  0.23109  0.98448  0.26933  1.0000
  H   H404      1.0  0.49898  0.86785  0.40516  1.0000
  H   H405      1.0  0.26897  0.94052  0.33074  1.0000
  Fe  Fe52      1.0  0.39313  0.00487  0.31257  1.0000
  C   C250      1.0  0.39231  0.02336  0.21737  1.0000
  C   C251      1.0  0.50347  0.00304  0.32838  1.0000
  C   C252      1.0  0.28705  0.80248  0.28345  1.0000
  N   N25       1.0  0.24468  0.96268  0.30380  1.0000
  C   C253      1.0  0.35745  0.90960  0.34641  1.0000
  H   H406      1.0  0.49026  0.03791  0.48531  1.0000
  C   C254      1.0  0.30706  0.80310  0.18103  1.0000
  C   C255      1.0  0.37087  0.92616  0.33290  1.0000
  H   H407      1.0  0.47268  0.04197  0.19434  1.0000
  C   C256      1.0  0.33171  0.94319  0.37201  1.0000
  N   N26       1.0  0.41706  0.03839  0.20763  1.0000
  S   S103      1.0  0.37378  0.88898  0.32904  1.0000
  H   H408      1.0  0.49129  0.01884  0.43421  1.0000
  C   C257      1.0  0.20979  0.95364  0.30348  1.0000
  H   H409      1.0  0.46971  0.83374  0.34802  1.0000
  C   C258      1.0  0.25369  0.80649  0.38545  1.0000
  C   C259      1.0  0.27271  0.94867  0.30663  1.0000
  H   H410      1.0  0.29079  0.03829  0.49184  1.0000
  C   C260      1.0  0.49308  0.83314  0.36271  1.0000
  H   H411      1.0  0.41252  0.89186  0.39711  1.0000
  Fe  Fe53      1.0  0.35911  0.86236  0.35576  1.0000
  Fe  Fe54      1.0  0.35328  0.02933  0.36279  1.0000
  H   H412      1.0  0.25080  0.96468  0.24898  1.0000
  S   S104      1.0  0.32301  0.79974  0.30997  1.0000
  H   H413      1.0  0.27109  0.98187  0.33440  1.0000
  C   C261      1.0  0.23955  0.80298  0.52478  1.0000
  C   C262      1.0  0.23060  0.80591  0.23947  1.0000
  H   H414      1.0  0.22456  0.98593  0.33209  1.0000
  H   H415      1.0  0.20860  0.94418  0.28156  1.0000
  H   H416      1.0  0.28472  0.03555  0.18777  1.0000
  H   H417      1.0  0.27328  0.93899  0.28497  1.0000
  H   H418      1.0  0.36486  0.02855  0.22273  1.0000
  C   C263      1.0  0.24504  0.97501  0.33333  1.0000
  H   H419      1.0  0.45240  0.86671  0.41617  1.0000
  H   H420      1.0  0.24054  0.96740  0.35797  1.0000
  H   H421      1.0  0.18806  0.96385  0.30145  1.0000
  H   H422      1.0  0.33547  0.79989  0.18435  1.0000
  S   S105      1.0  0.30718  0.84729  0.35810  1.0000
  H   H423      1.0  0.47929  0.88340  0.43578  1.0000
  C   C264      1.0  0.31161  0.79563  0.12123  1.0000
  H   H424      1.0  0.39316  0.02539  0.43978  1.0000
  C   C265      1.0  0.49926  0.90160  0.37767  1.0000
  H   H425      1.0  0.26623  0.81366  0.40644  1.0000
  H   H426      1.0  0.31504  0.83754  0.15747  1.0000
  H   H427      1.0  0.44195  0.03647  0.31874  1.0000
  C   C266      1.0  0.46162  0.03453  0.48970  1.0000
  H   H428      1.0  0.50461  0.90950  0.40093  1.0000
  H   H429      1.0  0.45435  0.02078  0.18063  1.0000
  C   C267      1.0  0.33154  0.90981  0.37322  1.0000
  S   S106      1.0  0.38427  0.00345  0.36939  1.0000
  C   C268      1.0  0.47501  0.87632  0.41141  1.0000
  Fe  Fe55      1.0  0.39796  0.83259  0.39262  1.0000
  S   S107      1.0  0.31312  0.96406  0.38619  1.0000
  H   H430      1.0  0.25412  0.82504  0.16188  1.0000
  H   H431      1.0  0.29865  0.81334  0.20067  1.0000
  S   S108      1.0  0.36885  0.85767  0.41099  1.0000
  Fe  Fe56      1.0  0.32018  0.84010  0.41206  1.0000
  S   S109      1.0  0.27709  0.84027  0.45445  1.0000
  H   H432      1.0  0.30703  0.80015  0.09460  1.0000
  C   C269      1.0  0.24314  0.81849  0.50330  1.0000
  H   H433      1.0  0.51803  0.82514  0.44351  1.0000
  C   C270      1.0  0.27371  0.82097  0.48186  1.0000
  H   H434      1.0  0.40034  0.01605  0.24076  1.0000
  H   H435      1.0  0.22206  0.82854  0.50313  1.0000
  H   H436      1.0  0.32486  0.80990  0.46663  1.0000
  C   C271      1.0  0.31854  0.92661  0.38585  1.0000
  N   N27       1.0  0.46824  0.88947  0.38357  1.0000
  C   C272      1.0  0.48984  0.82916  0.39768  1.0000
  N   N28       1.0  0.44470  0.03164  0.45708  1.0000
  H   H437      1.0  0.29805  0.92675  0.40620  1.0000
  H   H438      1.0  0.22745  0.81302  0.38219  1.0000
  H   H439      1.0  0.39131  0.01304  0.19686  1.0000
  C   C273      1.0  0.40680  0.02730  0.46396  1.0000
  H   H440      1.0  0.43987  0.90828  0.41694  1.0000
  H   H441      1.0  0.32117  0.89707  0.38387  1.0000
  H   H442      1.0  0.43953  0.86969  0.35597  1.0000
  H   H443      1.0  0.45935  0.00322  0.45328  1.0000
  S   S110      1.0  0.44811  0.82583  0.41898  1.0000
  S   S111      1.0  0.34998  0.81459  0.39793  1.0000
  S   S112      1.0  0.19707  0.80878  0.21021  1.0000
  C   C274      1.0  0.30079  0.80792  0.48225  1.0000
  H   H444      1.0  0.27032  0.80916  0.36169  1.0000
  H   H445      1.0  0.49511  0.91165  0.35669  1.0000
  C   C275      1.0  0.32240  0.82655  0.13899  1.0000
  H   H446      1.0  0.31839  0.83202  0.11286  1.0000
  H   H447      1.0  0.40313  0.01455  0.47948  1.0000
  H   H448      1.0  0.21577  0.80112  0.54098  1.0000
  C   C276      1.0  0.26313  0.81430  0.14344  1.0000
  H   H449      1.0  0.35121  0.82373  0.14081  1.0000
  N   N29       1.0  0.30107  0.80990  0.14617  1.0000
  H   H450      1.0  0.24628  0.80213  0.14929  1.0000
  H   H451      1.0  0.21192  0.80372  0.05627  1.0000
  H   H452      1.0  0.39271  0.03851  0.47814  1.0000
  C   C277      1.0  0.29471  0.04257  0.23959  1.0000
  H   H453      1.0  0.42620  0.04545  0.25939  1.0000
  C   C278      1.0  0.32302  0.04549  0.44657  1.0000
  H   H454      1.0  0.48270  0.95768  0.81646  1.0000
  H   H455      1.0  0.30331  0.03169  0.99946  1.0000
  C   C279      1.0  0.42186  0.02508  0.66671  1.0000
  H   H456      1.0  0.42801  0.80275  0.87022  1.0000
  H   H457      1.0  0.38903  0.94343  0.81627  1.0000
  H   H458      1.0  0.34490  0.01566  0.71196  1.0000
  H   H459      1.0  0.40486  0.92147  0.86180  1.0000
  H   H460      1.0  0.33598  0.80289  0.66522  1.0000
  N   N30       1.0  0.39835  0.02377  0.69793  1.0000
  C   C280      1.0  0.24791  0.80359  0.72834  1.0000
  C   C281      1.0  0.51051  0.99584  0.83941  1.0000
  C   C282      1.0  0.30853  0.80472  0.65685  1.0000
  N   N31       1.0  0.30813  0.80997  0.62037  1.0000
  H   H461      1.0  0.35029  0.02738  0.67158  1.0000
  S   S113      1.0  0.21651  0.80739  0.69709  1.0000
  H   H462      1.0  0.44473  0.95359  0.88850  1.0000
  C   C283      1.0  0.51010  0.82419  0.91953  1.0000
  H   H463      1.0  0.48603  0.93359  0.80897  1.0000
  H   H464      1.0  0.43980  0.01527  0.73028  1.0000
  C   C284      1.0  0.23324  0.80372  0.03685  1.0000
  H   H465      1.0  0.41583  0.03286  0.95468  1.0000
  Fe  Fe57      1.0  0.39839  0.99991  0.82041  1.0000
  S   S114      1.0  0.38818  0.00009  0.87713  1.0000
  S   S115      1.0  0.45328  0.99393  0.79946  1.0000
  Fe  Fe58      1.0  0.32319  0.01077  0.80703  1.0000
  S   S116      1.0  0.30608  0.01172  0.86265  1.0000
  S   S117      1.0  0.28804  0.01813  0.76464  1.0000
  Fe  Fe59      1.0  0.35811  0.02583  0.86799  1.0000
  H   H466      1.0  0.18333  0.89648  0.91054  1.0000
  Fe  Fe60      1.0  0.33778  0.98568  0.86639  1.0000
  S   S118      1.0  0.32431  0.96152  0.90084  1.0000
  S   S119      1.0  0.37270  0.02687  0.81202  1.0000
  S   S120      1.0  0.35053  0.98349  0.81002  1.0000
  Fe  Fe61      1.0  0.34223  0.85878  0.85830  1.0000
  S   S121      1.0  0.35030  0.85543  0.91421  1.0000
  S   S122      1.0  0.33806  0.88503  0.82815  1.0000
  Fe  Fe62      1.0  0.33773  0.81802  0.84611  1.0000
  S   S123      1.0  0.34549  0.81099  0.90124  1.0000
  H   H467      1.0  0.21826  0.85867  0.89480  1.0000
  Fe  Fe63      1.0  0.30781  0.83402  0.91335  1.0000
  S   S124      1.0  0.26176  0.83421  0.95272  1.0000
  Fe  Fe64      1.0  0.38752  0.83276  0.89788  1.0000
  S   S125      1.0  0.43808  0.82830  0.92518  1.0000
  S   S126      1.0  0.29652  0.83928  0.85846  1.0000
  S   S127      1.0  0.38300  0.83786  0.84179  1.0000
  C   C285      1.0  0.47958  0.82907  0.90265  1.0000
  C   C286      1.0  0.29997  0.79896  0.77696  1.0000
  H   H468      1.0  0.21626  0.90601  0.85687  1.0000
  H   H469      1.0  0.44783  0.81447  0.81308  1.0000
  H   H470      1.0  0.45945  0.83845  0.85526  1.0000
  H   H471      1.0  0.43765  0.02313  0.99037  1.0000
  H   H472      1.0  0.30969  0.80417  0.96679  1.0000
  H   H473      1.0  0.32557  0.79902  0.57164  1.0000
  C   C287      1.0  0.23432  0.81726  0.01104  1.0000
  C   C288      1.0  0.26174  0.81744  0.98546  1.0000
  H   H474      1.0  0.23947  0.86624  0.85513  1.0000
  H   H475      1.0  0.27779  0.03402  0.69826  1.0000
  H   H476      1.0  0.26537  0.87070  0.92815  1.0000
  H   H477      1.0  0.21378  0.82760  0.01080  1.0000
  H   H478      1.0  0.26018  0.89746  0.84730  1.0000
  C   C289      1.0  0.28830  0.80411  0.98613  1.0000
  C   C290      1.0  0.28405  0.81605  0.77231  1.0000
  H   H479      1.0  0.24624  0.83164  0.74452  1.0000
  H   H480      1.0  0.29192  0.82758  0.78704  1.0000
  C   C291      1.0  0.47902  0.00403  0.82982  1.0000
  H   H481      1.0  0.47233  0.03787  0.88850  1.0000
  H   H482      1.0  0.21896  0.90500  0.93439  1.0000
  C   C292      1.0  0.46569  0.01933  0.84732  1.0000
  H   H483      1.0  0.28892  0.87750  0.88922  1.0000
  H   H484      1.0  0.44167  0.02590  0.83982  1.0000
  H   H485      1.0  0.32661  0.83192  0.58719  1.0000
  H   H486      1.0  0.25281  0.91404  0.88022  1.0000
  C   C293      1.0  0.48267  0.83427  0.86823  1.0000
  C   C294      1.0  0.33037  0.04045  0.95220  1.0000
  H   H487      1.0  0.33122  0.02691  0.94134  1.0000
  H   H488      1.0  0.19500  0.87338  0.86628  1.0000
  C   C295      1.0  0.32728  0.94018  0.88094  1.0000
  C   C296      1.0  0.32171  0.93863  0.84620  1.0000
  C   C297      1.0  0.32534  0.92162  0.83032  1.0000
  C   C298      1.0  0.33431  0.90604  0.84912  1.0000
  C   C299      1.0  0.33963  0.90752  0.88398  1.0000
  C   C300      1.0  0.33581  0.92456  0.89993  1.0000
  H   H489      1.0  0.31408  0.95049  0.83162  1.0000
  H   H490      1.0  0.32087  0.92050  0.80339  1.0000
  H   H491      1.0  0.34702  0.89561  0.89857  1.0000
  H   H492      1.0  0.34012  0.92573  0.92687  1.0000
  H   H493      1.0  0.36455  0.00401  0.67578  1.0000
  C   C301      1.0  0.25823  0.81834  0.74807  1.0000
  H   H494      1.0  0.41709  0.99687  0.71083  1.0000
  H   H495      1.0  0.43513  0.96968  0.85558  1.0000
  C   C302      1.0  0.48302  0.02610  0.87506  1.0000
  C   C303      1.0  0.41777  0.94468  0.80906  1.0000
  C   C304      1.0  0.42959  0.95556  0.86519  1.0000
  H   H496      1.0  0.48921  0.79625  0.84716  1.0000
  H   H497      1.0  0.25758  0.79822  0.61238  1.0000
  C   C305      1.0  0.47738  0.94395  0.82823  1.0000
  H   H498      1.0  0.39598  0.00903  0.74575  1.0000
  C   C306      1.0  0.44053  0.03323  0.96899  1.0000
  H   H499      1.0  0.40085  0.95485  0.87309  1.0000
  H   H500      1.0  0.51610  0.88165  0.93907  1.0000
  C   C307      1.0  0.32631  0.82769  0.61460  1.0000
  H   H501      1.0  0.27998  0.89387  0.92238  1.0000
  H   H502      1.0  0.44927  0.92061  0.87563  1.0000
  C   C308      1.0  0.43816  0.80151  0.80237  1.0000
  H   H503      1.0  0.43959  0.91257  0.83392  1.0000
  H   H504      1.0  0.42425  0.93448  0.78884  1.0000
  H   H505      1.0  0.20429  0.88176  0.94058  1.0000
  N   N32       1.0  0.23508  0.88680  0.89383  1.0000
  C   C309      1.0  0.22125  0.87057  0.87681  1.0000
  C   C310      1.0  0.26882  0.88202  0.90908  1.0000
  C   C311      1.0  0.20922  0.89279  0.92103  1.0000
  C   C312      1.0  0.24125  0.90175  0.86849  1.0000
  N   N33       1.0  0.43949  0.94186  0.83893  1.0000
  C   C313      1.0  0.51374  0.01755  0.88554  1.0000
  H   H506      1.0  0.42454  0.01172  0.65355  1.0000
  H   H507      1.0  0.42198  0.95853  0.79752  1.0000
  H   H508      1.0  0.26953  0.81665  0.58378  1.0000
  C   C314      1.0  0.43314  0.92329  0.85320  1.0000
  H   H509      1.0  0.31275  0.83871  0.62971  1.0000
  H   H510      1.0  0.41001  0.80373  0.79611  1.0000
  C   C315      1.0  0.36301  0.01741  0.68888  1.0000
  H   H511      1.0  0.49458  0.94255  0.85029  1.0000
  C   C316      1.0  0.29723  0.04003  0.74754  1.0000
  H   H512      1.0  0.25551  0.82123  0.62750  1.0000
  H   H513      1.0  0.29528  0.81525  0.67340  1.0000
  C   C317      1.0  0.27108  0.81168  0.61057  1.0000
  H   H514      1.0  0.50783  0.82013  0.94618  1.0000
  H   H515      1.0  0.35427  0.82697  0.62206  1.0000
  C   C318      1.0  0.41348  0.01065  0.72220  1.0000
  H   H516      1.0  0.41148  0.03513  0.64814  1.0000
  H   H517      1.0  0.46261  0.02843  0.95138  1.0000
  H   H518      1.0  0.44896  0.02955  0.67260  1.0000
  H   H519      1.0  0.37765  0.04143  0.73756  1.0000
  C   C319      1.0  0.39505  0.04196  0.71385  1.0000
  H   H520      1.0  0.45374  0.79906  0.77799  1.0000
  H   H521      1.0  0.26746  0.04504  0.83260  1.0000
  C   C320      1.0  0.31453  0.04317  0.98497  1.0000
  C   C321      1.0  0.51599  0.83408  0.85056  1.0000
  S   S128      1.0  0.33297  0.79581  0.80692  1.0000
  H   H522      1.0  0.48046  0.04219  0.02103  1.0000
  C   C322      1.0  0.29031  0.04410  0.71357  1.0000
  H   H523      1.0  0.51826  0.83795  0.82383  1.0000
  C   C323      1.0  0.32636  0.79575  0.59940  1.0000
  Fe  Fe65      1.0  0.61659  0.27253  0.16981  1.0000
  S   S129      1.0  0.63521  0.25417  0.12698  1.0000
  S   S130      1.0  0.56091  0.27123  0.19351  1.0000
  H   H524      1.0  0.55501  0.28362  0.12319  1.0000
  S   S131      1.0  0.71416  0.27149  0.13614  1.0000
  H   H525      1.0  0.61857  0.07740  0.27715  1.0000
  Fe  Fe66      1.0  0.66639  0.27864  0.10758  1.0000
  H   H526      1.0  0.59045  0.04819  0.23076  1.0000
  Fe  Fe67      1.0  0.68147  0.24853  0.15909  1.0000
  S   S132      1.0  0.71017  0.22157  0.16427  1.0000
  H   H527      1.0  0.52962  0.05954  0.30496  1.0000
  S   S133      1.0  0.66084  0.26502  0.20372  1.0000
  Fe  Fe68      1.0  0.66463  0.09585  0.21444  1.0000
  S   S134      1.0  0.68927  0.11023  0.16791  1.0000
  S   S135      1.0  0.68517  0.09561  0.26736  1.0000
  Fe  Fe69      1.0  0.59839  0.08557  0.17934  1.0000
  S   S136      1.0  0.61673  0.09887  0.12981  1.0000
  S   S137      1.0  0.54475  0.07290  0.19035  1.0000
  Fe  Fe70      1.0  0.66902  0.08597  0.13982  1.0000
  S   S138      1.0  0.70138  0.07285  0.09683  1.0000
  Fe  Fe71      1.0  0.63506  0.12205  0.16149  1.0000
  S   S139      1.0  0.61743  0.15052  0.14615  1.0000
  S   S140      1.0  0.64916  0.07061  0.18700  1.0000
  S   S141      1.0  0.61201  0.10975  0.21027  1.0000
  H   H528      1.0  0.65581  0.08252  0.51538  1.0000
  C   C324      1.0  0.69120  0.07437  0.28794  1.0000
  C   C325      1.0  0.68787  0.07339  0.32367  1.0000
  C   C326      1.0  0.68408  0.05219  0.08249  1.0000
  H   H529      1.0  0.68184  0.08564  0.33809  1.0000
  H   H530      1.0  0.57714  0.08303  0.29877  1.0000
  C   C327      1.0  0.58967  0.07456  0.27807  1.0000
  H   H531      1.0  0.75137  0.18479  0.53280  1.0000
  N   N34       1.0  0.58237  0.05489  0.28381  1.0000
  H   H532      1.0  0.56371  0.07078  0.11828  1.0000
  C   C328      1.0  0.68403  0.20177  0.16116  1.0000
  C   C329      1.0  0.64784  0.20314  0.15588  1.0000
  C   C330      1.0  0.62779  0.18729  0.15144  1.0000
  C   C331      1.0  0.64353  0.16993  0.15315  1.0000
  C   C332      1.0  0.67959  0.16849  0.15916  1.0000
  C   C333      1.0  0.69985  0.18441  0.16289  1.0000
  H   H533      1.0  0.63520  0.21641  0.15518  1.0000
  H   H534      1.0  0.59986  0.18850  0.14703  1.0000
  H   H535      1.0  0.69195  0.15515  0.16047  1.0000
  H   H536      1.0  0.72782  0.18323  0.16710  1.0000
  H   H537      1.0  0.73956  0.23746  0.06134  1.0000
  H   H538      1.0  0.68960  0.05606  0.36846  1.0000
  C   C334      1.0  0.69216  0.05664  0.34088  1.0000
  H   H539      1.0  0.53266  0.11222  0.13153  1.0000
  C   C335      1.0  0.53622  0.07487  0.12162  1.0000
  C   C336      1.0  0.52135  0.15762  0.11698  1.0000
  H   H540      1.0  0.82674  0.23761  0.23614  1.0000
  C   C337      1.0  0.76423  0.28625  0.54120  1.0000
  H   H541      1.0  0.70468  0.23798  0.09420  1.0000
  C   C338      1.0  0.65845  0.05232  0.05793  1.0000
  H   H542      1.0  0.66110  0.24686  0.05251  1.0000
  H   H543      1.0  0.70219  0.05919  0.24189  1.0000
  N   N35       1.0  0.78480  0.25566  0.22213  1.0000
  C   C339      1.0  0.80224  0.27228  0.23422  1.0000
  C   C340      1.0  0.79762  0.23941  0.24055  1.0000
  C   C341      1.0  0.79290  0.25365  0.18508  1.0000
  C   C342      1.0  0.74610  0.25733  0.22857  1.0000
  H   H544      1.0  0.79383  0.28469  0.21994  1.0000
  H   H545      1.0  0.83159  0.27134  0.23081  1.0000
  H   H546      1.0  0.79536  0.27475  0.26177  1.0000
  H   H547      1.0  0.78458  0.22670  0.23206  1.0000
  H   H548      1.0  0.57951  0.07945  0.25350  1.0000
  H   H549      1.0  0.79183  0.24056  0.26858  1.0000
  H   H550      1.0  0.77933  0.24148  0.17499  1.0000
  H   H551      1.0  0.82185  0.25208  0.17916  1.0000
  H   H552      1.0  0.78381  0.26584  0.17060  1.0000
  H   H553      1.0  0.73878  0.25895  0.25621  1.0000
  H   H554      1.0  0.73193  0.24508  0.21967  1.0000
  H   H555      1.0  0.73570  0.26946  0.21494  1.0000
  C   C343      1.0  0.71819  0.22919  0.07457  1.0000
  C   C344      1.0  0.64795  0.05333  0.51416  1.0000
  H   H556      1.0  0.53273  0.05610  0.25959  1.0000
  C   C345      1.0  0.52946  0.27861  0.13289  1.0000
  C   C346      1.0  0.64676  0.07054  0.52974  1.0000
  H   H557      1.0  0.54961  0.16148  0.11948  1.0000
  H   H558      1.0  0.65044  0.21924  0.08865  1.0000
  H   H559      1.0  0.78884  0.27205  0.49833  1.0000
  C   C347      1.0  0.78564  0.28505  0.51102  1.0000
  C   C348      1.0  0.59584  0.04907  0.31690  1.0000
  H   H560      1.0  0.73715  0.27146  0.06686  1.0000
  H   H561      1.0  0.56448  0.12911  0.11780  1.0000
  C   C349      1.0  0.69915  0.05850  0.26944  1.0000
  H   H562      1.0  0.62508  0.05053  0.31698  1.0000
  S   S142      1.0  0.66875  0.28683  0.05180  1.0000
  H   H563      1.0  0.73090  0.21776  0.08848  1.0000
  C   C350      1.0  0.54376  0.05175  0.28417  1.0000
  C   C351      1.0  0.53594  0.12548  0.11769  1.0000
  H   H564      1.0  0.65827  0.05208  0.48806  1.0000
  H   H565      1.0  0.73308  0.29061  0.41407  1.0000
  C   C352      1.0  0.66558  0.21109  0.06902  1.0000
  H   H566      1.0  0.71780  0.28757  0.31861  1.0000
  H   H567      1.0  0.54855  0.14427  0.17417  1.0000
  H   H568      1.0  0.53009  0.07919  0.06779  1.0000
  Fe  Fe72      1.0  0.68980  0.28864  0.17811  1.0000
  H   H569      1.0  0.69871  0.28909  0.25902  1.0000
  H   H570      1.0  0.67762  0.19933  0.08261  1.0000
  H   H571      1.0  0.58418  0.05740  0.33827  1.0000
  H   H572      1.0  0.52960  0.12323  0.09067  1.0000
  C   C353      1.0  0.52034  0.14085  0.17048  1.0000
  C   C354      1.0  0.52553  0.27147  0.16611  1.0000
  H   H573      1.0  0.74261  0.29138  0.45836  1.0000
  H   H574      1.0  0.70458  0.18681  0.52763  1.0000
  H   H575      1.0  0.73476  0.20241  0.50551  1.0000
  H   H576      1.0  0.76539  0.22620  0.53795  1.0000
  C   C355      1.0  0.72940  0.19478  0.52996  1.0000
  H   H577      1.0  0.70126  0.22873  0.53079  1.0000
  C   C356      1.0  0.51992  0.07587  0.15440  1.0000
  H   H578      1.0  0.64615  0.20549  0.05158  1.0000
  H   H579      1.0  0.62937  0.04648  0.25487  1.0000
  H   H580      1.0  0.64600  0.06507  0.05095  1.0000
  C   C357      1.0  0.74454  0.05865  0.01392  1.0000
  C   C358      1.0  0.70011  0.04694  0.83726  1.0000
  C   C359      1.0  0.75961  0.21767  0.56130  1.0000
  C   C360      1.0  0.53143  0.20543  0.65347  1.0000
  H   H581      1.0  0.67097  0.21300  0.55298  1.0000
  H   H582      1.0  0.55991  0.20186  0.64837  1.0000
  Fe  Fe73      1.0  0.64318  0.27875  0.64980  1.0000
  S   S143      1.0  0.65054  0.26171  0.60295  1.0000
  N   N36       1.0  0.52664  0.10708  0.59002  1.0000
  Fe  Fe74      1.0  0.70522  0.26182  0.68356  1.0000
  S   S144      1.0  0.71777  0.24282  0.64018  1.0000
  Fe  Fe75      1.0  0.70858  0.26719  0.60638  1.0000
  N   N37       1.0  0.74662  0.05080  0.97932  1.0000
  Fe  Fe76      1.0  0.65934  0.23851  0.63898  1.0000
  S   S145      1.0  0.63344  0.21228  0.62451  1.0000
  H   H583      1.0  0.74681  0.06023  0.92717  1.0000
  S   S146      1.0  0.64729  0.25495  0.68574  1.0000
  Fe  Fe77      1.0  0.67642  0.07697  0.70374  1.0000
  S   S147      1.0  0.69116  0.09980  0.66679  1.0000
  N   N38       1.0  0.52366  0.22416  0.64131  1.0000
  C   C361      1.0  0.60541  0.05866  0.78519  1.0000
  S   S148      1.0  0.60605  0.11138  0.67285  1.0000
  Fe  Fe78      1.0  0.59895  0.08733  0.70844  1.0000
  Fe  Fe79      1.0  0.64123  0.09265  0.64138  1.0000
  S   S149      1.0  0.63791  0.09342  0.58418  1.0000
  Fe  Fe80      1.0  0.65504  0.11690  0.70083  1.0000
  S   S150      1.0  0.67215  0.14469  0.71746  1.0000
  S   S151      1.0  0.63034  0.06813  0.67478  1.0000
  C   C362      1.0  0.62344  0.05662  0.58243  1.0000
  S   S152      1.0  0.70075  0.28684  0.65014  1.0000
  C   C363      1.0  0.77370  0.29141  0.80367  1.0000
  S   S153      1.0  0.64435  0.09461  0.73997  1.0000
  H   H584      1.0  0.60235  0.05578  0.75772  1.0000
  C   C364      1.0  0.64418  0.19359  0.65047  1.0000
  C   C365      1.0  0.66382  0.19606  0.67922  1.0000
  C   C366      1.0  0.67229  0.18094  0.69963  1.0000
  C   C367      1.0  0.66147  0.16332  0.69117  1.0000
  C   C368      1.0  0.64229  0.16086  0.66205  1.0000
  C   C369      1.0  0.63346  0.17600  0.64184  1.0000
  H   H585      1.0  0.67230  0.20961  0.68597  1.0000
  H   H586      1.0  0.56338  0.05611  0.67374  1.0000
  H   H587      1.0  0.63426  0.14731  0.65514  1.0000
  H   H588      1.0  0.61850  0.17403  0.61944  1.0000
  H   H589      1.0  0.61334  0.05781  0.60853  1.0000
  C   C370      1.0  0.74440  0.06566  0.95361  1.0000
  H   H590      1.0  0.59866  0.28921  0.74039  1.0000
  H   H591      1.0  0.80354  0.05008  0.97586  1.0000
  C   C371      1.0  0.69671  0.22025  0.55437  1.0000
  H   H592      1.0  0.52601  0.23943  0.59409  1.0000
  H   H593      1.0  0.52552  0.20395  0.68147  1.0000
  C   C372      1.0  0.54545  0.23739  0.65912  1.0000
  H   H594      1.0  0.69369  0.20570  0.00551  1.0000
  H   H595      1.0  0.53967  0.23687  0.68720  1.0000
  N   N39       1.0  0.72623  0.20733  0.55920  1.0000
  H   H596      1.0  0.56081  0.22284  0.59795  1.0000
  H   H597      1.0  0.59696  0.07309  0.78957  1.0000
  H   H598      1.0  0.78182  0.28983  0.82957  1.0000
  H   H599      1.0  0.70701  0.07618  0.83780  1.0000
  H   H600      1.0  0.79427  0.27034  0.03292  1.0000
  H   H601      1.0  0.54438  0.13499  0.59105  1.0000
  C   C373      1.0  0.70580  0.05078  0.76572  1.0000
  H   H602      1.0  0.58960  0.28424  0.59488  1.0000
  H   H603      1.0  0.69414  0.18862  0.59027  1.0000
  H   H604      1.0  0.71846  0.07292  0.95626  1.0000
  H   H605      1.0  0.75820  0.22727  0.58311  1.0000
  H   H606      1.0  0.58253  0.06416  0.85009  1.0000
  H   H607      1.0  0.74535  0.04778  0.03400  1.0000
  H   H608      1.0  0.71603  0.20561  0.61368  1.0000
  H   H609      1.0  0.74095  0.18681  0.59581  1.0000
  H   H610      1.0  0.53723  0.06236  0.80630  1.0000
  H   H611      1.0  0.57621  0.11830  0.60403  1.0000
  C   C374      1.0  0.66852  0.29320  0.79103  1.0000
  H   H612      1.0  0.63410  0.05773  0.78987  1.0000
  H   H613      1.0  0.68723  0.18288  0.72208  1.0000
  H   H614      1.0  0.73278  0.21924  0.00970  1.0000
  S   S154      1.0  0.73321  0.25898  0.73271  1.0000
  H   H615      1.0  0.71128  0.07960  0.77479  1.0000
  H   H616      1.0  0.76675  0.06822  0.01776  1.0000
  H   H617      1.0  0.69241  0.06317  0.61013  1.0000
  H   H618      1.0  0.78259  0.20842  0.56475  1.0000
  H   H619      1.0  0.57429  0.23466  0.65427  1.0000
  H   H620      1.0  0.52983  0.04796  0.62399  1.0000
  S   S155      1.0  0.70896  0.05314  0.72101  1.0000
  H   H621      1.0  0.68129  0.27989  0.78412  1.0000
  C   C375      1.0  0.52483  0.29048  0.65714  1.0000
  H   H622      1.0  0.67784  0.28913  0.72361  1.0000
  C   C376      1.0  0.52008  0.07033  0.69953  1.0000
  C   C377      1.0  0.55490  0.12100  0.58607  1.0000
  H   H623      1.0  0.72531  0.19920  0.03612  1.0000
  H   H624      1.0  0.62883  0.27187  0.75372  1.0000
  H   H625      1.0  0.76178  0.26280  0.79821  1.0000
  C   C378      1.0  0.53614  0.06019  0.67295  1.0000
  C   C379      1.0  0.63544  0.07212  0.56416  1.0000
  C   C380      1.0  0.56361  0.28404  0.60766  1.0000
  S   S156      1.0  0.81604  0.28455  0.96715  1.0000
  H   H626      1.0  0.53049  0.10377  0.64436  1.0000
  H   H627      1.0  0.56779  0.12092  0.55988  1.0000
  C   C381      1.0  0.70743  0.06618  0.78633  1.0000
  C   C382      1.0  0.59047  0.04991  0.84355  1.0000
  C   C383      1.0  0.75092  0.27809  0.75260  1.0000
  C   C384      1.0  0.67572  0.23802  0.03356  1.0000
  N   N40       1.0  0.58442  0.04588  0.80749  1.0000
  C   C385      1.0  0.77494  0.28542  0.99023  1.0000
  H   H628      1.0  0.61895  0.04832  0.84911  1.0000
  C   C386      1.0  0.76235  0.27614  0.78588  1.0000
  C   C387      1.0  0.53443  0.27819  0.59014  1.0000
  H   H629      1.0  0.65634  0.23345  0.01510  1.0000
  C   C388      1.0  0.73932  0.27780  0.04194  1.0000
  H   H630      1.0  0.55611  0.08831  0.55740  1.0000
  C   C389      1.0  0.71914  0.19661  0.59105  1.0000
  C   C390      1.0  0.55897  0.29009  0.64125  1.0000
  C   C391      1.0  0.70507  0.06423  0.82201  1.0000
  C   C392      1.0  0.71201  0.21111  0.02425  1.0000
  H   H631      1.0  0.54045  0.25163  0.65034  1.0000
  H   H632      1.0  0.71554  0.06231  0.64889  1.0000
  C   C393      1.0  0.77163  0.27714  0.02264  1.0000
  S   S157      1.0  0.54558  0.07912  0.73148  1.0000
  H   H633      1.0  0.53824  0.27360  0.56408  1.0000
  H   H634      1.0  0.71943  0.06642  0.01887  1.0000
  C   C394      1.0  0.71313  0.29457  0.99611  1.0000
  C   C395      1.0  0.54639  0.04810  0.80133  1.0000
  H   H635      1.0  0.73979  0.06483  0.60858  1.0000
  H   H636      1.0  0.69359  0.22991  0.57593  1.0000
  H   H637      1.0  0.76573  0.07593  0.95599  1.0000
  H   H638      1.0  0.69552  0.24691  0.01939  1.0000
  C   C396      1.0  0.70993  0.28643  0.02868  1.0000
  S   S158      1.0  0.74154  0.26656  0.55661  1.0000
  H   H639      1.0  0.52123  0.07805  0.58382  1.0000
  C   C397      1.0  0.71669  0.05790  0.62183  1.0000
  N   N41       1.0  0.69285  0.22235  0.05033  1.0000
  H   H640      1.0  0.60027  0.28315  0.78493  1.0000
  C   C398      1.0  0.53216  0.22553  0.60416  1.0000
  C   C399      1.0  0.74567  0.29421  0.97702  1.0000
  C   C400      1.0  0.54200  0.08880  0.58301  1.0000
  C   C401      1.0  0.61672  0.28529  0.76086  1.0000
  H   H641      1.0  0.56157  0.08491  0.60209  1.0000
  C   C402      1.0  0.75193  0.29531  0.73675  1.0000
  H   H642      1.0  0.52104  0.29527  0.68306  1.0000
  H   H643      1.0  0.65437  0.29132  0.81641  1.0000
  C   C403      1.0  0.95421  0.37493  0.35173  1.0000
  C   C404      1.0  0.72086  0.29722  0.26636  1.0000
  S   S159      1.0  0.84357  0.49455  0.34687  1.0000
  H   H644      1.0  0.97023  0.53182  0.26929  1.0000
  C   C405      1.0  0.85867  0.42681  0.35871  1.0000
  S   S160      1.0  0.86055  0.33885  0.34203  1.0000
  C   C406      1.0  0.73163  0.29643  0.30010  1.0000
  H   H645      1.0  0.82061  0.39711  0.41707  1.0000
  H   H646      1.0  0.96778  0.54335  0.22900  1.0000
  C   C407      1.0  0.97512  0.52531  0.36429  1.0000
  C   C408      1.0  0.70737  0.32423  0.40840  1.0000
  H   H647      1.0  0.90795  0.52947  0.07325  1.0000
  H   H648      1.0  0.76605  0.30600  0.42785  1.0000
  C   C409      1.0  0.97961  0.51412  0.33568  1.0000
  S   S161      1.0  0.64385  0.29764  0.14780  1.0000
  C   C410      1.0  0.77805  0.31862  0.54368  1.0000
  H   H649      1.0  0.70011  0.45789  0.38810  1.0000
  H   H650      1.0  0.79959  0.32690  0.29342  1.0000
  H   H651      1.0  0.96987  0.52629  0.50808  1.0000
  H   H652      1.0  0.72726  0.31995  0.49166  1.0000
  H   H653      1.0  0.91409  0.39146  0.40096  1.0000
  H   H654      1.0  0.86163  0.45603  0.36461  1.0000
  H   H655      1.0  0.75902  0.44844  0.33488  1.0000
  C   C411      1.0  0.99548  0.39911  0.36234  1.0000
  H   H656      1.0  0.70436  0.33831  0.47134  1.0000
  S   S162      1.0  0.87146  0.53644  0.36093  1.0000
  S   S163      1.0  0.94261  0.50484  0.31709  1.0000
  H   H657      1.0  0.73244  0.33074  0.39845  1.0000
  C   C412      1.0  0.76011  0.30708  0.30996  1.0000
  H   H658      1.0  0.94386  0.38241  0.32944  1.0000
  H   H659      1.0  0.92617  0.40765  0.36789  1.0000
  H   H660      1.0  0.90484  0.53323  0.27757  1.0000
  H   H661      1.0  0.68708  0.33520  0.41162  1.0000
  Fe  Fe81      1.0  0.84768  0.36242  0.37665  1.0000
  H   H662      1.0  0.93227  0.36609  0.36229  1.0000
  H   H663      1.0  0.68381  0.47777  0.36646  1.0000
  Fe  Fe82      1.0  0.89475  0.32938  0.38377  1.0000
  H   H664      1.0  0.78107  0.32807  0.23369  1.0000
  H   H665      1.0  0.94903  0.52758  0.37610  1.0000
  C   C413      1.0  0.70320  0.46629  0.36425  1.0000
  C   C414      1.0  0.85240  0.44327  0.37603  1.0000
  H   H666      1.0  0.73660  0.47613  0.30446  1.0000
  C   C415      1.0  0.01246  0.33011  0.44341  1.0000
  Fe  Fe83      1.0  0.89531  0.50862  0.35300  1.0000
  H   H667      1.0  0.01003  0.32888  0.47096  1.0000
  N   N42       1.0  0.73980  0.47318  0.35891  1.0000
  C   C416      1.0  0.98591  0.32809  0.38867  1.0000
  C   C417      1.0  0.84521  0.51363  0.06338  1.0000
  H   H668      1.0  0.84073  0.50609  0.08801  1.0000
  S   S164      1.0  0.85564  0.38987  0.35060  1.0000
  S   S165      1.0  0.72868  0.30855  0.19895  1.0000
  H   H669      1.0  0.65736  0.31600  0.45741  1.0000
  Fe  Fe84      1.0  0.81961  0.52170  0.36047  1.0000
  Fe  Fe85      1.0  0.81613  0.32402  0.37031  1.0000
  C   C418      1.0  0.84719  0.41013  0.37337  1.0000
  N   N43       1.0  0.96641  0.38769  0.37761  1.0000
  H   H670      1.0  0.74979  0.33347  0.45899  1.0000
  S   S166      1.0  0.82238  0.46383  0.42832  1.0000
  S   S167      1.0  0.95031  0.32236  0.36391  1.0000
  H   H671      1.0  0.01841  0.39058  0.35309  1.0000
  H   H672      1.0  0.79258  0.46235  0.35211  1.0000
  C   C419      1.0  0.76474  0.45758  0.35634  1.0000
  H   H673      1.0  0.84318  0.52850  0.06893  1.0000
  H   H674      1.0  0.87259  0.42700  0.33387  1.0000
  S   S168      1.0  0.89792  0.50144  0.40842  1.0000
  C   C420      1.0  0.76709  0.31927  0.25223  1.0000
  S   S169      1.0  0.76981  0.53046  0.33594  1.0000
  C   C421      1.0  0.77768  0.31860  0.28602  1.0000
  C   C422      1.0  0.00428  0.53418  0.37710  1.0000
  C   C423      1.0  0.90861  0.51447  0.06839  1.0000
  H   H675      1.0  0.74635  0.47682  0.41265  1.0000
  H   H676      1.0  0.81894  0.29954  0.47349  1.0000
  C   C424      1.0  0.74841  0.48464  0.38807  1.0000
  H   H677      1.0  0.73092  0.49690  0.39041  1.0000
  C   C425      1.0  0.74293  0.48426  0.32710  1.0000
  C   C426      1.0  0.73889  0.30848  0.24224  1.0000
  H   H678      1.0  0.95839  0.36800  0.41848  1.0000
  H   H679      1.0  0.87894  0.48115  0.06457  1.0000
  H   H680      1.0  0.69579  0.45758  0.34270  1.0000
  H   H681      1.0  0.76375  0.44918  0.38027  1.0000
  H   H682      1.0  0.77602  0.48969  0.38504  1.0000
  H   H683      1.0  0.97587  0.36563  0.34230  1.0000
  C   C427      1.0  0.93664  0.39959  0.38942  1.0000
  H   H684      1.0  0.72491  0.49636  0.32836  1.0000
  Fe  Fe86      1.0  0.87059  0.52849  0.41645  1.0000
  N   N44       1.0  0.71236  0.31421  0.44077  1.0000
  C   C428      1.0  0.77354  0.53934  0.29403  1.0000
  C   C429      1.0  0.73966  0.29990  0.43507  1.0000
  C   C430      1.0  0.82941  0.40995  0.40554  1.0000
  Fe  Fe87      1.0  0.83704  0.33723  0.43892  1.0000
  S   S170      1.0  0.81791  0.33750  0.49454  1.0000
  C   C431      1.0  0.82240  0.42650  0.42255  1.0000
  S   S171      1.0  0.88365  0.35353  0.41730  1.0000
  C   C432      1.0  0.79874  0.31750  0.51296  1.0000
  H   H685      1.0  0.69913  0.31489  0.38805  1.0000
  H   H686      1.0  0.94471  0.40947  0.40890  1.0000
  C   C433      1.0  0.80266  0.30063  0.49683  1.0000
  H   H687      1.0  0.80805  0.42637  0.44717  1.0000
  S   S172      1.0  0.85156  0.31203  0.40912  1.0000
  C   C434      1.0  0.72384  0.32706  0.46679  1.0000
  C   C435      1.0  0.98250  0.32755  0.42429  1.0000
  H   H688      1.0  0.95713  0.32438  0.43708  1.0000
  H   H689      1.0  0.00536  0.40890  0.38118  1.0000
  H   H690      1.0  0.77025  0.48973  0.32239  1.0000
  H   H691      1.0  0.93512  0.51112  0.05627  1.0000
  H   H692      1.0  0.83023  0.53722  0.28809  1.0000
  C   C436      1.0  0.83376  0.44320  0.40777  1.0000
  H   H693      1.0  0.81020  0.35820  0.05991  1.0000
  C   C437      1.0  0.80639  0.54140  0.27610  1.0000
  H   H694      1.0  0.98660  0.40730  0.34023  1.0000
  S   S173      1.0  0.81623  0.51631  0.41703  1.0000
  Fe  Fe88      1.0  0.84363  0.48986  0.40343  1.0000
  H   H695      1.0  0.90623  0.50734  0.09363  1.0000
  S   S174      1.0  0.79973  0.34857  0.40125  1.0000
  C   C438      1.0  0.97932  0.37717  0.40690  1.0000
  H   H696      1.0  0.98794  0.38635  0.42729  1.0000
  S   S175      1.0  0.77349  0.30526  0.35216  1.0000
  C   C439      1.0  0.01888  0.33221  0.37231  1.0000
  C   C440      1.0  0.01353  0.51136  0.32058  1.0000
  H   H697      1.0  0.00237  0.36839  0.39905  1.0000
  H   H698      1.0  0.77839  0.32886  0.07199  1.0000
  H   H699      1.0  0.73757  0.33876  0.05898  1.0000
  C   C441      1.0  0.67859  0.30559  0.45286  1.0000
  H   H700      1.0  0.71709  0.54268  0.29199  1.0000
  C   C442      1.0  0.74254  0.54431  0.27831  1.0000
  H   H701      1.0  0.00056  0.54308  0.39885  1.0000
  H   H702      1.0  0.01711  0.50267  0.29852  1.0000
  C   C443      1.0  0.96223  0.54065  0.51406  1.0000
  H   H703      1.0  0.93314  0.54073  0.52046  1.0000
  H   H704      1.0  0.90279  0.54472  0.23704  1.0000
  H   H705      1.0  0.68150  0.29796  0.47734  1.0000
  H   H706      1.0  0.66932  0.29572  0.43390  1.0000
  H   H707      1.0  0.61158  0.31527  0.79988  1.0000
  H   H708      1.0  0.86243  0.51537  0.99660  1.0000
  C   C444      1.0  0.87643  0.30952  0.78605  1.0000
  H   H709      1.0  0.68525  0.31267  0.73374  1.0000
  C   C445      1.0  0.77338  0.30874  0.78829  1.0000
  H   H710      1.0  0.64704  0.30644  0.71137  1.0000
  H   H711      1.0  0.90207  0.53815  0.75819  1.0000
  Fe  Fe89      1.0  0.89421  0.48769  0.93279  1.0000
  S   S176      1.0  0.84024  0.47800  0.95104  1.0000
  S   S177      1.0  0.94404  0.48367  0.96038  1.0000
  Fe  Fe90      1.0  0.86798  0.50712  0.87062  1.0000
  S   S178      1.0  0.81120  0.49960  0.88340  1.0000
  S   S179      1.0  0.89174  0.52212  0.82461  1.0000
  Fe  Fe91      1.0  0.82318  0.50647  0.93724  1.0000
  S   S180      1.0  0.78718  0.52108  0.97555  1.0000
  Fe  Fe92      1.0  0.83297  0.47181  0.89587  1.0000
  S   S181      1.0  0.80910  0.44697  0.87249  1.0000
  S   S182      1.0  0.87790  0.51659  0.92319  1.0000
  S   S183      1.0  0.88880  0.47881  0.87899  1.0000
  H   H712      1.0  0.93022  0.34327  0.75323  1.0000
  H   H713      1.0  0.91973  0.30351  0.73110  1.0000
  H   H714      1.0  0.91388  0.33974  0.79670  1.0000
  Fe  Fe93      1.0  0.84113  0.34662  0.91763  1.0000
  S   S184      1.0  0.85949  0.34425  0.86279  1.0000
  S   S185      1.0  0.84007  0.37224  0.94895  1.0000
  Fe  Fe94      1.0  0.81430  0.32466  0.85898  1.0000
  C   C446      1.0  0.97383  0.53711  0.57367  1.0000
  Fe  Fe95      1.0  0.89006  0.31965  0.87921  1.0000
  S   S186      1.0  0.94288  0.31510  0.85079  1.0000
  S   S187      1.0  0.79278  0.32930  0.91283  1.0000
  S   S188      1.0  0.87583  0.32369  0.93476  1.0000
  Fe  Fe96      1.0  0.82856  0.30605  0.92651  1.0000
  C   C447      1.0  0.86170  0.53224  0.79761  1.0000
  H   H715      1.0  0.01147  0.32170  0.95311  1.0000
  C   C448      1.0  0.75973  0.34659  0.99444  1.0000
  C   C449      1.0  0.86016  0.33655  0.75471  1.0000
  H   H716      1.0  0.01610  0.31490  0.82749  1.0000
  H   H717      1.0  0.86632  0.47532  0.78185  1.0000
  H   H718      1.0  0.01063  0.43887  0.91512  1.0000
  H   H719      1.0  0.80754  0.31985  0.99865  1.0000
  H   H720      1.0  0.94221  0.32303  0.77659  1.0000
  N   N45       1.0  0.78230  0.34290  0.02339  1.0000
  C   C450      1.0  0.89832  0.31378  0.72770  1.0000
  C   C451      1.0  0.76274  0.31065  0.75472  1.0000
  C   C452      1.0  0.98089  0.31912  0.90855  1.0000
  C   C453      1.0  0.98203  0.31713  0.87310  1.0000
  H   H721      1.0  0.76269  0.32403  0.74264  1.0000
  H   H722      1.0  0.94510  0.53805  0.58157  1.0000
  H   H723      1.0  0.84290  0.46987  0.82161  1.0000
  H   H724      1.0  0.77850  0.45730  0.75838  1.0000
  H   H725      1.0  0.98056  0.52241  0.57013  1.0000
  C   C454      1.0  0.62727  0.31678  0.77519  1.0000
  H   H726      1.0  0.75405  0.48314  0.79243  1.0000
  C   C455      1.0  0.88399  0.51900  0.01348  1.0000
  H   H727      1.0  0.95566  0.31954  0.92282  1.0000
  C   C456      1.0  0.81852  0.42618  0.89338  1.0000
  C   C457      1.0  0.83344  0.42610  0.92523  1.0000
  C   C458      1.0  0.83994  0.40946  0.94204  1.0000
  C   C459      1.0  0.83228  0.39281  0.92679  1.0000
  C   C460      1.0  0.81786  0.39283  0.89467  1.0000
  C   C461      1.0  0.81071  0.40951  0.87813  1.0000
  H   H728      1.0  0.83961  0.43884  0.93715  1.0000
  H   H729      1.0  0.85113  0.40951  0.96684  1.0000
  H   H730      1.0  0.81171  0.38002  0.88283  1.0000
  H   H731      1.0  0.79913  0.40949  0.85352  1.0000
  H   H732      1.0  0.74427  0.30409  0.58107  1.0000
  C   C462      1.0  0.97030  0.50175  0.90310  1.0000
  C   C463      1.0  0.97805  0.49356  0.93424  1.0000
  C   C464      1.0  0.92014  0.33275  0.77199  1.0000
  C   C465      1.0  0.99740  0.50889  0.88129  1.0000
  H   H733      1.0  0.94345  0.50255  0.89543  1.0000
  C   C466      1.0  0.66448  0.30203  0.73194  1.0000
  N   N46       1.0  0.88879  0.32316  0.76006  1.0000
  C   C467      1.0  0.81171  0.48976  0.75048  1.0000
  H   H734      1.0  0.86828  0.34703  0.73509  1.0000
  H   H735      1.0  0.76926  0.36841  0.04779  1.0000
  H   H736      1.0  0.75135  0.33366  0.98257  1.0000
  H   H737      1.0  0.85242  0.34386  0.77877  1.0000
  C   C468      1.0  0.01499  0.31652  0.85489  1.0000
  N   N47       1.0  0.64423  0.29933  0.76482  1.0000
  H   H738      1.0  0.88286  0.53409  0.01699  1.0000
  H   H739      1.0  0.83059  0.34102  0.99210  1.0000
  H   H740      1.0  0.83163  0.32929  0.03240  1.0000
  C   C469      1.0  0.84308  0.47912  0.79890  1.0000
  H   H741      1.0  0.77793  0.47566  0.82846  1.0000
  H   H742      1.0  0.90788  0.32365  0.70747  1.0000
  H   H743      1.0  0.84765  0.49320  0.80794  1.0000
  H   H744      1.0  0.81689  0.50427  0.75699  1.0000
  H   H745      1.0  0.86842  0.31631  0.81034  1.0000
  H   H746      1.0  0.82301  0.51022  0.04693  1.0000
  H   H747      1.0  0.64741  0.32764  0.77836  1.0000
  H   H748      1.0  0.78663  0.48952  0.73687  1.0000
  H   H749      1.0  0.78334  0.49860  0.81209  1.0000
  H   H750      1.0  0.80160  0.44960  0.79481  1.0000
  H   H751      1.0  0.69028  0.30323  0.79398  1.0000
  H   H752      1.0  0.86051  0.48471  0.02373  1.0000
  N   N48       1.0  0.80954  0.47794  0.78138  1.0000
  H   H753      1.0  0.77719  0.53912  0.03992  1.0000
  H   H754      1.0  0.82564  0.45354  0.75467  1.0000
  H   H755      1.0  0.74789  0.30038  0.95181  1.0000
  C   C470      1.0  0.87416  0.53906  0.76573  1.0000
  H   H756      1.0  0.77405  0.35492  0.97415  1.0000
  H   H757      1.0  0.87514  0.30641  0.71814  1.0000
  C   C471      1.0  0.01256  0.32032  0.92567  1.0000
  H   H758      1.0  0.80773  0.36915  0.01890  1.0000
  C   C472      1.0  0.82560  0.53337  0.80721  1.0000
  C   C473      1.0  0.77989  0.48411  0.80458  1.0000
  S   S189      1.0  0.59592  0.29642  0.66384  1.0000
  H   H759      1.0  0.75457  0.31835  0.03917  1.0000
  H   H760      1.0  0.81597  0.52844  0.83204  1.0000
  H   H761      1.0  0.69037  0.30115  0.98561  1.0000
  C   C474      1.0  0.80354  0.45875  0.77178  1.0000
  H   H762      1.0  0.73531  0.35423  0.00265  1.0000
  H   H763      1.0  0.83581  0.32972  0.74643  1.0000
  C   C475      1.0  0.80569  0.54116  0.99099  1.0000
  S   S190      1.0  0.78513  0.32833  0.81055  1.0000
  C   C476      1.0  0.01311  0.49291  0.94387  1.0000
  C   C477      1.0  0.81439  0.33282  0.01117  1.0000
  H   H764      1.0  0.90959  0.51565  0.99951  1.0000
  H   H765      1.0  0.77411  0.54235  0.79245  1.0000
  H   H766      1.0  0.83360  0.48541  0.73224  1.0000
  H   H767      1.0  0.99103  0.51496  0.85708  1.0000
  C   C478      1.0  0.80198  0.54127  0.78486  1.0000
  H   H768      1.0  0.60898  0.32176  0.75570  1.0000
  H   H769      1.0  0.98858  0.54218  0.59545  1.0000
  C   C479      1.0  0.79279  0.36043  0.03824  1.0000
  C   C480      1.0  0.76061  0.30305  0.55769  1.0000
  H   H770      1.0  0.90755  0.48524  0.02719  1.0000
  N   N49       1.0  0.87993  0.50906  0.04644  1.0000
  C   C481      1.0  0.88182  0.48916  0.04031  1.0000
  H   H771      1.0  0.77502  0.33164  0.55636  1.0000
  H   H772      1.0  0.85298  0.30182  0.77799  1.0000
  S   S191      1.0  0.84584  0.29976  0.87221  1.0000
  H   H773      1.0  0.89765  0.29951  0.79184  1.0000
  H   H774      1.0  0.01922  0.48675  0.96807  1.0000
  H   H775      1.0  0.74392  0.29687  0.71084  1.0000
  C   C482      1.0  0.76235  0.33177  0.04957  1.0000
  Fe  Fe97      1.0  0.90734  0.57204  0.14995  1.0000
  S   S192      1.0  0.87114  0.58304  0.19182  1.0000
  S   S193      1.0  0.95610  0.55560  0.15885  1.0000
  Fe  Fe98      1.0  0.86408  0.58666  0.09399  1.0000
  S   S194      1.0  0.82322  0.59921  0.12998  1.0000
  H   H776      1.0  0.95507  0.68469  0.16695  1.0000
  Fe  Fe99      1.0  0.86913  0.60840  0.15918  1.0000
  S   S195      1.0  0.86665  0.63473  0.18847  1.0000
  Fe  Fe100     1.0  0.82771  0.57318  0.16040  1.0000
  C   C483      1.0  0.93922  0.57460  0.25365  1.0000
  S   S196      1.0  0.91010  0.59838  0.12019  1.0000
  S   S197      1.0  0.86403  0.55955  0.12129  1.0000
  Fe  Fe101     1.0  0.83971  0.73460  0.12523  1.0000
  S   S198      1.0  0.84990  0.74146  0.17938  1.0000
  S   S199      1.0  0.84547  0.70687  0.10092  1.0000
  Fe  Fe102     1.0  0.83014  0.77441  0.10400  1.0000
  C   C484      1.0  0.74472  0.78150  0.27839  1.0000
  Fe  Fe103     1.0  0.88392  0.76393  0.15617  1.0000
  S   S200      1.0  0.93563  0.77072  0.17921  1.0000
  Fe  Fe104     1.0  0.80494  0.76142  0.17545  1.0000
  S   S201      1.0  0.76332  0.76371  0.21903  1.0000
  S   S202      1.0  0.87738  0.75563  0.10230  1.0000
  S   S203      1.0  0.79158  0.75273  0.12265  1.0000
  H   H777      1.0  0.99544  0.72976  0.14195  1.0000
  H   H778      1.0  0.01275  0.70796  0.12838  1.0000
  H   H779      1.0  0.75301  0.63313  0.25970  1.0000
  H   H780      1.0  0.81059  0.76877  0.42798  1.0000
  C   C485      1.0  0.92909  0.71843  0.15800  1.0000
  C   C486      1.0  0.97815  0.76803  0.11988  1.0000
  C   C487      1.0  0.97637  0.77037  0.15526  1.0000
  H   H781      1.0  0.99434  0.56722  0.09489  1.0000
  H   H782      1.0  0.74994  0.64207  0.18325  1.0000
  H   H783      1.0  0.95417  0.76599  0.10665  1.0000
  H   H784      1.0  0.97705  0.57579  0.52475  1.0000
  C   C488      1.0  0.85989  0.65466  0.16411  1.0000
  C   C489      1.0  0.85428  0.67141  0.18060  1.0000
  C   C490      1.0  0.84887  0.68750  0.16158  1.0000
  C   C491      1.0  0.84951  0.68689  0.12593  1.0000
  C   C492      1.0  0.85495  0.67011  0.10951  1.0000
  C   C493      1.0  0.85997  0.65400  0.12854  1.0000
  H   H785      1.0  0.85401  0.67195  0.20816  1.0000
  H   H786      1.0  0.84422  0.70032  0.17449  1.0000
  H   H787      1.0  0.85539  0.66955  0.08194  1.0000
  H   H788      1.0  0.86420  0.64112  0.11561  1.0000
  H   H789      1.0  0.83333  0.55008  0.22850  1.0000
  C   C494      1.0  0.82567  0.78827  0.37029  1.0000
  C   C495      1.0  0.81808  0.78332  0.43136  1.0000
  H   H790      1.0  0.78889  0.64281  0.20767  1.0000
  H   H791      1.0  0.00647  0.77474  0.19955  1.0000
  C   C496      1.0  0.77675  0.78588  0.53353  1.0000
  N   N50       1.0  0.98228  0.54795  0.54226  1.0000
  H   H792      1.0  0.96671  0.54888  0.49013  1.0000
  C   C497      1.0  0.80810  0.54865  0.24253  1.0000
  H   H793      1.0  0.84715  0.78380  0.43449  1.0000
  H   H794      1.0  0.78885  0.62933  0.17008  1.0000
  C   C498      1.0  0.00836  0.59954  0.19160  1.0000
  C   C499      1.0  0.98960  0.57008  0.17148  1.0000
  C   C500      1.0  0.98191  0.58827  0.17975  1.0000
  C   C501      1.0  0.85423  0.57730  0.53332  1.0000
  C   C502      1.0  0.82695  0.55780  0.47964  1.0000
  H   H795      1.0  0.95537  0.59359  0.17794  1.0000
  H   H796      1.0  0.93547  0.57310  0.22599  1.0000
  H   H797      1.0  0.92068  0.56787  0.31891  1.0000
  N   N51       1.0  0.75899  0.61781  0.21339  1.0000
  C   C503      1.0  0.73727  0.60602  0.19242  1.0000
  C   C504      1.0  0.78942  0.60719  0.22519  1.0000
  C   C505      1.0  0.73727  0.62427  0.24330  1.0000
  C   C506      1.0  0.77209  0.63371  0.19274  1.0000
  H   H798      1.0  0.71383  0.61345  0.18325  1.0000
  H   H799      1.0  0.72766  0.59366  0.20699  1.0000
  H   H800      1.0  0.75285  0.60094  0.16955  1.0000
  H   H801      1.0  0.80707  0.61572  0.24032  1.0000
  H   H802      1.0  0.78066  0.59510  0.24100  1.0000
  H   H803      1.0  0.80582  0.60189  0.20322  1.0000
  H   H804      1.0  0.72704  0.61257  0.25938  1.0000
  H   H805      1.0  0.71406  0.63238  0.23537  1.0000
  C   C507      1.0  0.74416  0.55124  0.24486  1.0000
  C   C508      1.0  0.81756  0.57608  0.53081  1.0000
  H   H806      1.0  0.93148  0.73356  0.15564  1.0000
  C   C509      1.0  0.99173  0.71469  0.14480  1.0000
  H   H807      1.0  0.72536  0.77072  0.28272  1.0000
  N   N52       1.0  0.95591  0.70910  0.13562  1.0000
  H   H808      1.0  0.97194  0.68152  0.12370  1.0000
  C   C510      1.0  0.95058  0.71427  0.09971  1.0000
  H   H809      1.0  0.80880  0.56509  0.06485  1.0000
  C   C511      1.0  0.74595  0.78670  0.51497  1.0000
  C   C512      1.0  0.76786  0.78108  0.24921  1.0000
  H   H810      1.0  0.95311  0.72932  0.09560  1.0000
  H   H811      1.0  0.00222  0.61352  0.19861  1.0000
  H   H812      1.0  0.88247  0.55489  0.27479  1.0000
  H   H813      1.0  0.71993  0.55482  0.23284  1.0000
  C   C513      1.0  0.00768  0.77291  0.17217  1.0000
  H   H814      1.0  0.76286  0.62058  0.53662  1.0000
  H   H815      1.0  0.75999  0.77962  0.39559  1.0000
  S   S204      1.0  0.77698  0.56226  0.18488  1.0000
  H   H816      1.0  0.63105  0.79129  0.27646  1.0000
  N   N53       1.0  0.93924  0.55653  0.27080  1.0000
  H   H817      1.0  0.80473  0.78795  0.45580  1.0000
  H   H818      1.0  0.93172  0.71473  0.18534  1.0000
  C   C514      1.0  0.94224  0.55901  0.30782  1.0000
  H   H819      1.0  0.72841  0.77501  0.51499  1.0000
  H   H820      1.0  0.78297  0.77356  0.54748  1.0000
  H   H821      1.0  0.76853  0.64122  0.51184  1.0000
  H   H822      1.0  0.79352  0.66913  0.53849  1.0000
  C   C515      1.0  0.80391  0.56658  0.50362  1.0000
  C   C516      1.0  0.77683  0.55349  0.22688  1.0000
  H   H823      1.0  0.99650  0.71104  0.17182  1.0000
  H   H824      1.0  0.91730  0.58344  0.26409  1.0000
  C   C517      1.0  0.95196  0.68907  0.13999  1.0000
  C   C518      1.0  0.86365  0.55893  0.48241  1.0000
  H   H825      1.0  0.90184  0.71476  0.15125  1.0000
  H   H826      1.0  0.96809  0.56517  0.31365  1.0000
  C   C519      1.0  0.87714  0.56906  0.50879  1.0000
  C   C520      1.0  0.76901  0.79388  0.39949  1.0000
  H   H827      1.0  0.92527  0.68444  0.13294  1.0000
  C   C521      1.0  0.01244  0.55698  0.08233  1.0000
  C   C522      1.0  0.90581  0.54694  0.26478  1.0000
  H   H828      1.0  0.77555  0.56563  0.50155  1.0000
  H   H829      1.0  0.96464  0.58197  0.25636  1.0000
  H   H830      1.0  0.90540  0.57046  0.51032  1.0000
  H   H831      1.0  0.81633  0.55019  0.45910  1.0000
  H   H832      1.0  0.73398  0.63966  0.54519  1.0000
  H   H833      1.0  0.97026  0.70746  0.08196  1.0000
  H   H834      1.0  0.89550  0.79320  0.09549  1.0000
  H   H835      1.0  0.81790  0.77398  0.36477  1.0000
  C   C523      1.0  0.97228  0.56726  0.54819  1.0000
  C   C524      1.0  0.76186  0.63580  0.53800  1.0000
  H   H836      1.0  0.92365  0.71031  0.09210  1.0000
  H   H837      1.0  0.85501  0.78864  0.37148  1.0000
  S   S205      1.0  0.83983  0.78448  0.15656  1.0000
  H   H838      1.0  0.83148  0.64215  0.52672  1.0000
  H   H839      1.0  0.99704  0.54954  0.06353  1.0000
  C   C525      1.0  0.01117  0.76858  0.10153  1.0000
  H   H840      1.0  0.01249  0.76699  0.07412  1.0000
  S   S206      1.0  0.89359  0.54779  0.45374  1.0000
  H   H841      1.0  0.99522  0.55237  0.26076  1.0000
  H   H842      1.0  0.01568  0.59003  0.05177  1.0000
  H   H843      1.0  0.81130  0.79464  0.22189  1.0000
  C   C526      1.0  0.79316  0.79488  0.24403  1.0000
  N   N54       1.0  0.80778  0.79486  0.40228  1.0000
  H   H844      1.0  0.94005  0.54571  0.32158  1.0000
  C   C527      1.0  0.96950  0.54557  0.25688  1.0000
  H   H845      1.0  0.73207  0.77767  0.59426  1.0000
  H   H846      1.0  0.93773  0.59515  0.69138  1.0000
  S   S207      1.0  0.84896  0.78721  0.65084  1.0000
  Fe  Fe105     1.0  0.88470  0.58237  0.64466  1.0000
  S   S208      1.0  0.86292  0.59141  0.69595  1.0000
  S   S209      1.0  0.93927  0.57139  0.63214  1.0000
  Fe  Fe106     1.0  0.81616  0.58847  0.61092  1.0000
  S   S210      1.0  0.78763  0.59797  0.65899  1.0000
  H   H847      1.0  0.00044  0.55259  0.79620  1.0000
  Fe  Fe107     1.0  0.83691  0.61391  0.66702  1.0000
  S   S211      1.0  0.82818  0.64138  0.69144  1.0000
  Fe  Fe108     1.0  0.81534  0.57491  0.68442  1.0000
  S   S212      1.0  0.86328  0.60654  0.61640  1.0000
  S   S213      1.0  0.83927  0.56371  0.63554  1.0000
  Fe  Fe109     1.0  0.84973  0.73785  0.61694  1.0000
  S   S214      1.0  0.85611  0.74373  0.67233  1.0000
  S   S215      1.0  0.85423  0.70988  0.59350  1.0000
  Fe  Fe110     1.0  0.84263  0.77807  0.59716  1.0000
  Fe  Fe111     1.0  0.89235  0.76619  0.65228  1.0000
  S   S216      1.0  0.94238  0.77389  0.67784  1.0000
  Fe  Fe112     1.0  0.81231  0.76419  0.66605  1.0000
  S   S217      1.0  0.88910  0.75894  0.59722  1.0000
  S   S218      1.0  0.80274  0.75642  0.61202  1.0000
  C   C528      1.0  0.98626  0.76382  0.62286  1.0000
  C   C529      1.0  0.98375  0.77116  0.65561  1.0000
  H   H848      1.0  0.86046  0.55225  0.71886  1.0000
  H   H849      1.0  0.72710  0.77236  0.63901  1.0000
  H   H850      1.0  0.75130  0.76515  0.85776  1.0000
  C   C530      1.0  0.83798  0.66064  0.66534  1.0000
  C   C531      1.0  0.82472  0.67783  0.67511  1.0000
  C   C532      1.0  0.83054  0.69318  0.65368  1.0000
  C   C533      1.0  0.84966  0.69137  0.62239  1.0000
  C   C534      1.0  0.86372  0.67427  0.61305  1.0000
  C   C535      1.0  0.85798  0.65895  0.63452  1.0000
  H   H851      1.0  0.80938  0.67924  0.69901  1.0000
  H   H852      1.0  0.81950  0.70631  0.66100  1.0000
  H   H853      1.0  0.87893  0.67289  0.58906  1.0000
  H   H854      1.0  0.86920  0.64587  0.62735  1.0000
  C   C536      1.0  0.99209  0.59760  0.70457  1.0000
  C   C537      1.0  0.97256  0.57972  0.65726  1.0000
  C   C538      1.0  0.96472  0.59115  0.68506  1.0000
  C   C539      1.0  0.71747  0.78149  0.61851  1.0000
  H   H855      1.0  0.74948  0.63969  0.60610  1.0000
  H   H856      1.0  0.01822  0.57256  0.01988  1.0000
  H   H857      1.0  0.79519  0.63969  0.61641  1.0000
  H   H858      1.0  0.84242  0.64180  0.57066  1.0000
  S   S219      1.0  0.70262  0.79075  0.95822  1.0000
  H   H859      1.0  0.81886  0.76847  0.92338  1.0000
  H   H860      1.0  0.98606  0.60654  0.72588  1.0000
  C   C540      1.0  0.81502  0.56120  0.03870  1.0000
  H   H861      1.0  0.96289  0.75874  0.61150  1.0000
  S   S220      1.0  0.76358  0.76769  0.70138  1.0000
  H   H862      1.0  0.86502  0.58470  0.55400  1.0000
  H   H863      1.0  0.92796  0.79199  0.60611  1.0000
  C   C541      1.0  0.00771  0.57477  0.64909  1.0000
  H   H864      1.0  0.79135  0.75298  0.90125  1.0000
  C   C542      1.0  0.73584  0.79276  0.98814  1.0000
  H   H865      1.0  0.98758  0.57330  0.56877  1.0000
  C   C543      1.0  0.78367  0.60573  0.75761  1.0000
  C   C544      1.0  0.77015  0.77872  0.03266  1.0000
  H   H866      1.0  0.73169  0.77979  0.88998  1.0000
  C   C545      1.0  0.79293  0.76706  0.91152  1.0000
  S   S221      1.0  0.78895  0.58648  0.56162  1.0000
  H   H867      1.0  0.70998  0.77981  0.75047  1.0000
  H   H868      1.0  0.81589  0.76548  0.84514  1.0000
  H   H869      1.0  0.80586  0.61589  0.83799  1.0000
  C   C546      1.0  0.74325  0.77774  0.00926  1.0000
  H   H870      1.0  0.72804  0.76530  0.00763  1.0000
  C   C547      1.0  0.84828  0.56593  0.98490  1.0000
  H   H871      1.0  0.68899  0.77834  0.61579  1.0000
  H   H872      1.0  0.85421  0.62409  0.79517  1.0000
  H   H873      1.0  0.77664  0.62003  0.59715  1.0000
  S   S222      1.0  0.86558  0.58815  0.03686  1.0000
  C   C548      1.0  0.83525  0.62189  0.77489  1.0000
  C   C549      1.0  0.82585  0.59037  0.79224  1.0000
  H   H874      1.0  0.84472  0.59150  0.81292  1.0000
  H   H875      1.0  0.80619  0.57960  0.80005  1.0000
  H   H876      1.0  0.79790  0.60104  0.73382  1.0000
  H   H877      1.0  0.85096  0.61775  0.75143  1.0000
  H   H878      1.0  0.76302  0.59527  0.76438  1.0000
  H   H879      1.0  0.75741  0.66782  0.57025  1.0000
  N   N55       1.0  0.80826  0.60802  0.78530  1.0000
  C   C550      1.0  0.79012  0.79471  0.03486  1.0000
  H   H880      1.0  0.84103  0.58528  0.76918  1.0000
  C   C551      1.0  0.79534  0.79409  0.73899  1.0000
  H   H881      1.0  0.76751  0.60391  0.82494  1.0000
  C   C552      1.0  0.83080  0.55110  0.97098  1.0000
  H   H882      1.0  0.81928  0.79152  0.72347  1.0000
  H   H883      1.0  0.86801  0.57344  0.96945  1.0000
  H   H884      1.0  0.82287  0.63532  0.76886  1.0000
  H   H885      1.0  0.77556  0.76706  0.04881  1.0000
  C   C553      1.0  0.78815  0.61409  0.81650  1.0000
  H   H886      1.0  0.80207  0.66854  0.58294  1.0000
  C   C554      1.0  0.76462  0.78414  0.73377  1.0000
  H   H887      1.0  0.77024  0.61881  0.75126  1.0000
  H   H888      1.0  0.84344  0.78095  0.86724  1.0000
  C   C555      1.0  0.84099  0.57073  0.01898  1.0000
  H   H889      1.0  0.77456  0.62738  0.81214  1.0000
  N   N56       1.0  0.78849  0.78106  0.88457  1.0000
  C   C556      1.0  0.81669  0.77915  0.85724  1.0000
  C   C557      1.0  0.78477  0.66292  0.56356  1.0000
  C   C558      1.0  0.75360  0.77872  0.86995  1.0000
  S   S223      1.0  0.78551  0.55951  0.72664  1.0000
  C   C559      1.0  0.77652  0.63523  0.59712  1.0000
  H   H890      1.0  0.01279  0.78292  0.69574  1.0000
  H   H891      1.0  0.01413  0.56599  0.62769  1.0000
  C   C560      1.0  0.82302  0.63685  0.55256  1.0000
  H   H892      1.0  0.94375  0.56855  0.55651  1.0000
  C   C561      1.0  0.81458  0.54827  0.75313  1.0000
  H   H893      1.0  0.77184  0.76833  0.93241  1.0000
  N   N57       1.0  0.78655  0.64272  0.56281  1.0000
  C   C562      1.0  0.73384  0.78748  0.75438  1.0000
  H   H894      1.0  0.74908  0.78935  0.85009  1.0000
  H   H895      1.0  0.81366  0.78963  0.83664  1.0000
  C   C563      1.0  0.85063  0.54706  0.74349  1.0000
  C   C564      1.0  0.79703  0.54659  0.02453  1.0000
  H   H896      1.0  0.83667  0.54742  0.94472  1.0000
  C   C565      1.0  0.01454  0.77730  0.67032  1.0000
  H   H897      1.0  0.82522  0.62165  0.55186  1.0000
  C   C566      1.0  0.01901  0.76348  0.60428  1.0000
  H   H898      1.0  0.54446  0.00386  0.36394  1.0000
  C   C567      1.0  0.67637  0.80906  0.23207  1.0000
  S   S224      1.0  0.70700  0.01987  0.34393  1.0000
  S   S225      1.0  0.68396  0.81490  0.37803  1.0000
  C   C568      1.0  0.62204  0.82470  0.24944  1.0000
  C   C569      1.0  0.65050  0.90592  0.40144  1.0000
  S   S226      1.0  0.77256  0.82871  0.32343  1.0000
  H   H899      1.0  0.58933  0.03452  0.32287  1.0000
  H   H900      1.0  0.90706  0.80535  0.15229  1.0000
  S   S227      1.0  0.69047  0.85826  0.35482  1.0000
  H   H901      1.0  0.60555  0.83059  0.27107  1.0000
  C   C570      1.0  0.77079  0.81000  0.29578  1.0000
  H   H902      1.0  0.85874  0.81849  0.11904  1.0000
  H   H903      1.0  0.64682  0.89242  0.39120  1.0000
  H   H904      1.0  0.93199  0.83732  0.06235  1.0000
  H   H905      1.0  0.84729  0.81532  0.40994  1.0000
  H   H906      1.0  0.53729  0.03701  0.28833  1.0000
  H   H907      1.0  0.92646  0.82752  0.15580  1.0000
  H   H908      1.0  0.70100  0.93635  0.36306  1.0000
  H   H909      1.0  0.75989  0.96460  0.37487  1.0000
  H   H910      1.0  0.71123  0.02965  0.27236  1.0000
  N   N58       1.0  0.65542  0.81690  0.26130  1.0000
  H   H911      1.0  0.81401  0.82003  0.26279  1.0000
  H   H912      1.0  0.74485  0.93671  0.34328  1.0000
  C   C571      1.0  0.73185  0.96897  0.37301  1.0000
  H   H913      1.0  0.73826  0.98494  0.31127  1.0000
  H   H914      1.0  0.76618  0.96500  0.31170  1.0000
  H   H915      1.0  0.67862  0.98405  0.33839  1.0000
  H   H916      1.0  0.96697  0.82776  0.08638  1.0000
  S   S228      1.0  0.71145  0.89238  0.42796  1.0000
  C   C572      1.0  0.67997  0.96887  0.33975  1.0000
  H   H917      1.0  0.59557  0.02929  0.25988  1.0000
  H   H918      1.0  0.66710  0.96350  0.31709  1.0000
  C   C573      1.0  0.79956  0.80091  0.53362  1.0000
  H   H919      1.0  0.86895  0.83175  0.08146  1.0000
  S   S229      1.0  0.54121  0.04010  0.39272  1.0000
  H   H920      1.0  0.66300  0.95423  0.43889  1.0000
  C   C574      1.0  0.55729  0.83515  0.36542  1.0000
  H   H921      1.0  0.72728  0.96523  0.28714  1.0000
  H   H922      1.0  0.70683  0.93670  0.31751  1.0000
  C   C575      1.0  0.93958  0.83348  0.08854  1.0000
  N   N59       1.0  0.91441  0.82016  0.10470  1.0000
  H   H923      1.0  0.90484  0.80650  0.05776  1.0000
  Fe  Fe113     1.0  0.64766  0.83925  0.37560  1.0000
  H   H924      1.0  0.70106  0.82609  0.28684  1.0000
  C   C576      1.0  0.52675  0.83608  0.34662  1.0000
  H   H925      1.0  0.81042  0.82315  0.38663  1.0000
  N   N60       1.0  0.71690  0.96239  0.34135  1.0000
  H   H926      1.0  0.95232  0.80882  0.13832  1.0000
  C   C577      1.0  0.73814  0.96966  0.31150  1.0000
  C   C578      1.0  0.71752  0.94216  0.34121  1.0000
  C   C579      1.0  0.70441  0.04181  0.28673  1.0000
  H   H927      1.0  0.71671  0.96357  0.39607  1.0000
  H   H928      1.0  0.60579  0.81411  0.23750  1.0000
  S   S230      1.0  0.59905  0.83879  0.34433  1.0000
  H   H929      1.0  0.66363  0.96447  0.36271  1.0000
  C   C580      1.0  0.73788  0.80246  0.49614  1.0000
  Fe  Fe114     1.0  0.72706  0.83448  0.36144  1.0000
  H   H930      1.0  0.94046  0.84626  0.10362  1.0000
  C   C581      1.0  0.60020  0.04422  0.25611  1.0000
  H   H931      1.0  0.80900  0.82836  0.51474  1.0000
  S   S231      1.0  0.61557  0.00423  0.36724  1.0000
  H   H932      1.0  0.73112  0.98421  0.37422  1.0000
  C   C582      1.0  0.79465  0.80927  0.26727  1.0000
  H   H933      1.0  0.62723  0.83587  0.23032  1.0000
  H   H934      1.0  0.68243  0.81952  0.21177  1.0000
  H   H935      1.0  0.52913  0.83900  0.31950  1.0000
  H   H936      1.0  0.66070  0.83793  0.29839  1.0000
  C   C583      1.0  0.63771  0.03769  0.53301  1.0000
  C   C584      1.0  0.91404  0.80351  0.08376  1.0000
  H   H937      1.0  0.70530  0.00688  0.08080  1.0000
  Fe  Fe115     1.0  0.66558  0.01522  0.38652  1.0000
  C   C585      1.0  0.70048  0.03571  0.09100  1.0000
  C   C586      1.0  0.79161  0.81663  0.51465  1.0000
  S   S232      1.0  0.63826  0.03575  0.42110  1.0000
  C   C587      1.0  0.68423  0.92693  0.43407  1.0000
  C   C588      1.0  0.87845  0.82825  0.10715  1.0000
  C   C589      1.0  0.81816  0.81402  0.40796  1.0000
  C   C590      1.0  0.67608  0.83148  0.27675  1.0000
  C   C591      1.0  0.69192  0.01950  0.07458  1.0000
  H   H938      1.0  0.87751  0.84086  0.12272  1.0000
  H   H939      1.0  0.60365  0.91721  0.38004  1.0000
  H   H940      1.0  0.80515  0.81942  0.43192  1.0000
  Fe  Fe116     1.0  0.63720  0.01299  0.46022  1.0000
  S   S233      1.0  0.64515  0.01575  0.51643  1.0000
  S   S234      1.0  0.58466  0.00172  0.44663  1.0000
  S   S235      1.0  0.65305  0.84695  0.43047  1.0000
  C   C592      1.0  0.65970  0.94090  0.42798  1.0000
  Fe  Fe117     1.0  0.69374  0.82431  0.43122  1.0000
  S   S236      1.0  0.66926  0.99340  0.42708  1.0000
  C   C593      1.0  0.55405  0.83127  0.40040  1.0000
  C   C594      1.0  0.76082  0.81744  0.49608  1.0000
  S   S237      1.0  0.60066  0.95499  0.39878  1.0000
  C   C595      1.0  0.70077  0.04084  0.32248  1.0000
  H   H941      1.0  0.75447  0.82982  0.48237  1.0000
  C   C596      1.0  0.62607  0.91993  0.39521  1.0000
  Fe  Fe118     1.0  0.61660  0.98394  0.41038  1.0000
  C   C597      1.0  0.63071  0.93747  0.40834  1.0000
  C   C598      1.0  0.67971  0.90943  0.42079  1.0000
  Fe  Fe119     1.0  0.69853  0.86424  0.40961  1.0000
  H   H942      1.0  0.57744  0.83047  0.41508  1.0000
  S   S238      1.0  0.73946  0.84221  0.41450  1.0000
  H   H943      1.0  0.70660  0.92963  0.44934  1.0000
  C   C599      1.0  0.92557  0.81532  0.13924  1.0000
  H   H944      1.0  0.68346  0.84251  0.25794  1.0000
  Fe  Fe120     1.0  0.58819  0.02286  0.40498  1.0000
  H   H945      1.0  0.72068  0.03557  0.10953  1.0000
  H   H946      1.0  0.94073  0.79707  0.08098  1.0000
  H   H947      1.0  0.63166  0.80793  0.30969  1.0000
  C   C600      1.0  0.64705  0.80240  0.28707  1.0000
  H   H948      1.0  0.75463  0.79902  0.42289  1.0000
  S   S239      1.0  0.69905  0.80296  0.47309  1.0000
  C   C601      1.0  0.52337  0.01140  0.35290  1.0000
  H   H949      1.0  0.70221  0.80354  0.23996  1.0000
  H   H950      1.0  0.76039  0.80232  0.37771  1.0000
  S   S240      1.0  0.82480  0.79633  0.06324  1.0000
  H   H951      1.0  0.81863  0.79691  0.34801  1.0000
  H   H952      1.0  0.66214  0.79760  0.22038  1.0000
  C   C602      1.0  0.74619  0.79591  0.30167  1.0000
  H   H953      1.0  0.72823  0.79614  0.32398  1.0000
  H   H954      1.0  0.52368  0.89363  0.37057  1.0000
  C   C603      1.0  0.52040  0.82821  0.41643  1.0000
  H   H955      1.0  0.67150  0.79607  0.29643  1.0000
  C   C604      1.0  0.73372  0.80074  0.78004  1.0000
  C   C605      1.0  0.66748  0.01971  0.04900  1.0000
  S   S241      1.0  0.83782  0.80055  0.55751  1.0000
  H   H956      1.0  0.76904  0.80145  0.91968  1.0000
  H   H957      1.0  0.70675  0.81990  0.66601  1.0000
  C   C606      1.0  0.53480  0.87809  0.91728  1.0000
  C   C607      1.0  0.79050  0.79943  0.89958  1.0000
  H   H958      1.0  0.75036  0.03520  0.66369  1.0000
  H   H959      1.0  0.99425  0.82874  0.59709  1.0000
  H   H960      1.0  0.76603  0.81909  0.63533  1.0000
  H   H961      1.0  0.71717  0.03211  0.94994  1.0000
  H   H962      1.0  0.57998  0.01687  0.81600  1.0000
  H   H963      1.0  0.70979  0.80333  0.79557  1.0000
  H   H964      1.0  0.77688  0.80074  0.60659  1.0000
  H   H965      1.0  0.71187  0.79670  0.68032  1.0000
  H   H966      1.0  0.94178  0.83309  0.65697  1.0000
  C   C608      1.0  0.94553  0.80225  0.59274  1.0000
  C   C609      1.0  0.79523  0.80734  0.76468  1.0000
  C   C610      1.0  0.52766  0.00249  0.86759  1.0000
  C   C611      1.0  0.75152  0.03147  0.63616  1.0000
  H   H967      1.0  0.62404  0.02475  0.80437  1.0000
  C   C612      1.0  0.78285  0.80969  0.01362  1.0000
  H   H968      1.0  0.61635  0.02736  0.58141  1.0000
  N   N61       1.0  0.71946  0.03778  0.61943  1.0000
  H   H969      1.0  0.67399  0.80305  0.65706  1.0000
  H   H970      1.0  0.97329  0.79744  0.59501  1.0000
  C   C613      1.0  0.59550  0.02691  0.79980  1.0000
  H   H971      1.0  0.71318  0.82736  0.60375  1.0000
  C   C614      1.0  0.72180  0.03252  0.58310  1.0000
  H   H972      1.0  0.68145  0.81007  0.59448  1.0000
  H   H973      1.0  0.93980  0.80212  0.56522  1.0000
  C   C615      1.0  0.76087  0.80445  0.63011  1.0000
  H   H974      1.0  0.68556  0.03279  0.66435  1.0000
  H   H975      1.0  0.68875  0.01409  0.63503  1.0000
  H   H976      1.0  0.88348  0.81771  0.61181  1.0000
  H   H977      1.0  0.78254  0.03461  0.94790  1.0000
  C   C616      1.0  0.68785  0.02926  0.63679  1.0000
  H   H978      1.0  0.78280  0.02954  0.99280  1.0000
  C   C617      1.0  0.57690  0.86565  0.95564  1.0000
  N   N62       1.0  0.94014  0.82057  0.60763  1.0000
  C   C618      1.0  0.70998  0.81255  0.59847  1.0000
  H   H979      1.0  0.69986  0.02146  0.76511  1.0000
  H   H980      1.0  0.78770  0.81040  0.87995  1.0000
  C   C619      1.0  0.70108  0.03343  0.78094  1.0000
  Fe  Fe121     1.0  0.63833  0.98230  0.90512  1.0000
  S   S242      1.0  0.62250  0.00782  0.87720  1.0000
  S   S243      1.0  0.63833  0.95670  0.87346  1.0000
  Fe  Fe122     1.0  0.64541  0.00245  0.97149  1.0000
  S   S244      1.0  0.62958  0.02931  0.94919  1.0000
  H   H981      1.0  0.63071  0.03629  0.02201  1.0000
  Fe  Fe123     1.0  0.58826  0.01333  0.92419  1.0000
  H   H982      1.0  0.57064  0.85140  0.94839  1.0000
  Fe  Fe124     1.0  0.66520  0.02160  0.90426  1.0000
  H   H983      1.0  0.60793  0.89778  0.94771  1.0000
  S   S245      1.0  0.60045  0.98681  0.95035  1.0000
  S   S246      1.0  0.68477  0.99570  0.92828  1.0000
  Fe  Fe125     1.0  0.68436  0.85536  0.90999  1.0000
  S   S247      1.0  0.64469  0.83390  0.92761  1.0000
  S   S248      1.0  0.68453  0.88157  0.94003  1.0000
  Fe  Fe126     1.0  0.71835  0.83059  0.85488  1.0000
  S   S249      1.0  0.68055  0.80775  0.86793  1.0000
  S   S250      1.0  0.76565  0.82716  0.81763  1.0000
  Fe  Fe127     1.0  0.63875  0.82963  0.87163  1.0000
  S   S251      1.0  0.58756  0.82865  0.84417  1.0000
  Fe  Fe128     1.0  0.69068  0.81431  0.92246  1.0000
  H   H984      1.0  0.96334  0.84735  0.60235  1.0000
  S   S252      1.0  0.67600  0.85224  0.85419  1.0000
  S   S253      1.0  0.73062  0.83607  0.90919  1.0000
  C   C620      1.0  0.70290  0.80538  0.65883  1.0000
  H   H985      1.0  0.58041  0.90737  0.91636  1.0000
  H   H986      1.0  0.77591  0.03776  0.62404  1.0000
  H   H987      1.0  0.57494  0.04059  0.86121  1.0000
  H   H988      1.0  0.62371  0.87317  0.90436  1.0000
  H   H989      1.0  0.69421  0.01813  0.82833  1.0000
  C   C621      1.0  0.76445  0.81070  0.78527  1.0000
  N   N63       1.0  0.57200  0.87865  0.92710  1.0000
  S   S254      1.0  0.66122  0.99958  0.02587  1.0000
  H   H990      1.0  0.97024  0.81344  0.65097  1.0000
  C   C622      1.0  0.54645  0.82901  0.86735  1.0000
  S   S255      1.0  0.53442  0.02595  0.92093  1.0000
  H   H991      1.0  0.56681  0.82007  0.91497  1.0000
  H   H992      1.0  0.92345  0.81048  0.65765  1.0000
  H   H993      1.0  0.75449  0.01634  0.63482  1.0000
  H   H994      1.0  0.74996  0.82055  0.97485  1.0000
  C   C623      1.0  0.54350  0.82420  0.90196  1.0000
  C   C624      1.0  0.69771  0.03154  0.81669  1.0000
  N   N64       1.0  0.72277  0.80098  0.62646  1.0000
  H   H995      1.0  0.58930  0.85960  0.88830  1.0000
  H   H996      1.0  0.60487  0.86572  0.96348  1.0000
  H   H997      1.0  0.72492  0.80973  0.57383  1.0000
  C   C625      1.0  0.65335  0.93620  0.89178  1.0000
  C   C626      1.0  0.66164  0.93522  0.92605  1.0000
  C   C627      1.0  0.67235  0.91848  0.94027  1.0000
  C   C628      1.0  0.67488  0.90268  0.92032  1.0000
  C   C629      1.0  0.66711  0.90375  0.88590  1.0000
  C   C630      1.0  0.65618  0.92045  0.87176  1.0000
  H   H998      1.0  0.65957  0.94732  0.94166  1.0000
  H   H999      1.0  0.67830  0.91774  0.96693  1.0000
  H   H1000     1.0  0.66944  0.89176  0.87016  1.0000
  H   H1001     1.0  0.65008  0.92120  0.84514  1.0000
  H   H1002     1.0  0.59366  0.88323  0.87577  1.0000
  C   C631      1.0  0.59560  0.87346  0.89755  1.0000
  H   H1003     1.0  0.55100  0.99558  0.87602  1.0000
  C   C632      1.0  0.58085  0.89732  0.93791  1.0000
  H   H1004     1.0  0.81910  0.81498  0.76865  1.0000
  H   H1005     1.0  0.55961  0.86914  0.97847  1.0000
  C   C633      1.0  0.65016  0.03608  0.04119  1.0000
  H   H1006     1.0  0.56226  0.90218  0.95881  1.0000
  C   C634      1.0  0.62477  0.03942  0.56694  1.0000
  H   H1007     1.0  0.66312  0.03397  0.62538  1.0000
  C   C635      1.0  0.75565  0.80879  0.99056  1.0000
  C   C636      1.0  0.96683  0.83331  0.59202  1.0000
  H   H1008     1.0  0.59164  0.02355  0.77267  1.0000
  H   H1009     1.0  0.79803  0.82214  0.01525  1.0000
  H   H1010     1.0  0.52755  0.86417  0.90873  1.0000
  H   H1011     1.0  0.53031  0.88778  0.89588  1.0000
  C   C637      1.0  0.94412  0.81943  0.64489  1.0000
  H   H1012     1.0  0.52095  0.98398  0.82608  1.0000
  H   H1013     1.0  0.81613  0.80161  0.91158  1.0000
  H   H1014     1.0  0.90016  0.82821  0.57296  1.0000
  C   C638      1.0  0.90416  0.82721  0.60085  1.0000
  H   H1015     1.0  0.89889  0.84092  0.61206  1.0000
  H   H1016     1.0  0.96494  0.83421  0.56383  1.0000
  H   H1017     1.0  0.71794  0.02636  0.99450  1.0000
  C   C639      1.0  0.71691  0.03799  0.97598  1.0000
  H   H1018     1.0  0.72237  0.01739  0.58014  1.0000
  H   H1019     1.0  0.77113  0.79628  0.65157  1.0000
  H   H1020     1.0  0.69865  0.03770  0.56951  1.0000
  H   H1021     1.0  0.52973  0.03876  0.81796  1.0000
  C   C640      1.0  0.78046  0.04084  0.97373  1.0000
  H   H1022     1.0  0.69098  0.04498  0.98068  1.0000
  H   H1023     1.0  0.74592  0.03824  0.56944  1.0000
  S   S256      1.0  0.69769  0.04498  0.88203  1.0000
  H   H1024     1.0  0.54095  0.04513  0.77434  1.0000
