data_image0
_chemical_formula_structural       CSH8CNHCSC2H3C4SH3C2HFeHNCSC3H2SH9C2HC2H2C3HCHCHS2FeHFeHCHSC2FeSNSC5HCH4SCHCFeHC3NSFeHSC2H4FeSCHC3H2CNH2CHSC3HCFeHSC3S2NSFeCH2CH2CH2CHNCH3SFeCHCSC2HCH2FeCH2FeC3H2CH3S2H2CHCHSHC3HCH2CH2FeNHSHCH2C2HSFeH13SCH5FeSCS2HSH2SH7CH4CSFeSHCH2CH5NCHFeH2CFeS2FeS2FeSFeS3FeCSFeHSFeSCHSH2SHCHS2FeS2FeS2FeSFeS3C2H2C2FeHCHSH3CFeH2C2NCH3CSCHC2NHC6H6SHSC4HCHSCHC7H4C3HCH3SHC6H8SH2C2HFeC3HFeHCHCSC4HSCSCH2CSNHFeC2HC2HSH7NC4H15CHSCH2CH3SFeC5H2C2H2CSCH2S2H2CH4SC2H3CH5CHCHNFeH2CH2FeNCSHC3H2CHCH2CHCHNC4H12NC4H12CFeH2CHFeH4C2NC2FeH3SCH2FeHC2H3SH2CFeNC3H2C2H2CH11SHSH2S2HCFeCHC2H4S2HCH2CSCH3CHCHC2HFeS3NFeSHSCFeS2FeS2FeSFeS3FeHSFeHSCH2NS2FeSH2SFeSFeSH2FeSHFeS2FeSFeS3FeCSFeCSHN2S2FeS2FeS2FeHFeS3HC3HFeSCHC6H4C6H4C6H4C3H2CH2CSHC4H2CH3C2H4C2H2CH5C6H7CSHSCHCSC6H5C2H2C3SH5C6H4C6H4SHC4FeHNC4H14NC2HNCHC2H3NHC2H5S2H2C2FeH4C2H5SHC3HCHSHCH7CSCNCH5SH2C6H3CH2SH3NH7CHCH2C2H2CH3SC2SHSHSHSH2CH3CH2NH2CFeCFeCHCHCH2C2H3SH4NC2HFe2H2C2HSH2C4H4CHCHCHFeC2SHCHSH4CHFeNCFeNHC2H2FeH6FeCHNHCH6CHCHC3H7SH4NH2CHCHCS2CNH2C2HCHFeHCH2CH5C2H3C2H2C2H2CH2NHSH3CH4CH2FeHCHCNH4NH2C4H2C2HC2HCSCSCHCHFeS2FeCFeS2FeHSHSFeS2FeSNFeSFeS3FeS2FeS2FeSFeS2H3CHCHC5S2HCHCNH2SHSHC2H3CH2CH4CSH5C6H4C6H4C6H4C2FeHC4HFeCFeH6SHCHSCFeH2NHC3HFeH2SCH2CSC2HSNSH3NCHCH6CH3SHCNCH2C2HSHCSH2C2H3CH5CSCH5C2NC4H12CH3FeHFeNHCHC2FeCFeH2C2HS2C3H2CSHNH2C2H3C2SHSHC2H3NCHSH3SHCSC4HC2H5C3HCHSHFeCH5C2H2C2SHNC4H17SFeC2HCHNHFeHCH2CH4C2HC3HC2H2FeCH3CHC2HCH6SH5NCHCH2CHFeH3SCH2C2SHFeS2FeS2C2FeS3FeS3CSFeSHFeS2Fe3CS2FeS2FeS2FeSFeS3C2SH2SHSH3SHCSHCFeC4HFeS2FeS2FeSFeS3CFeC6H5SH3CNCH2C6H4C2H3CH2CH3C2H2NSHSCH2CHC6H7C3NCH4C6H4C7NCH3NH2C2HC2H5FeHCH3CHC4H8CHCH8CHCH4CHCH2CNC2H2FeNHSCHCHC3SH3C2H4NHSH2C3NS2H3C2H2FeH2CH3SH8C2H2CH2SH3CHFeH4CH3CH3NSCH4CHCH5CSHC4H2CH2CFeCH3NCH3CHCH2CH2C3NHC2HSH2CHCH2CHCHFeHCH2SC3H3SHCHSH3CH3CH5CHSC3H4CH2SHNHCHCSFeS2FeSCFeSFeHS3FeS2FeS2FeSFeS3FeSFe2S2FeSFeS3FeS2FeS2FeSFeCS2FeS2FeS2FeSFeS3FeS2FeS2FeSFeS3FeS2FeS2FeSFeS4H2C4H5CH2C3NH2SC2H4C6H4C6H5C6H14CH2C3HCH2C6H4SCH4C7H3C6H4C6H4C6H5C5H4CHC4H4CH5NH3CHCH2C7H4CHC4SH6NHNCH2NC4H12C3H2CH5SCH10SH2SH3CH3C2HC3HCH3NH2NHC2HCH2CHSCH3C2H3CH3CH5CH7NC2H5C2FeH9C2HNHCH3SH2CH3C3H2CHCH2CH4CH2CNCH5C3H7C3H3CFeCH2S2HNH5C3HCSCH7NHC2H2NH2CHFeCHCFeHC2HCH3CH2SH2C2H5CH2CH6CFeS2FeS2FeSFeS3H2CS2C2H3SHSFeSHFeCSFeHSHFeCSFeHSCH3S2FeH2SHNSNHCH2FeSH4C3H2C2H4FeH4S2HCHFeCSC2H4SCHC2FeHC3H6FeC2H3CH2SC3H2CHC2FeHCH3CHNCHC4HS2H2CH2C2H2CHCH2CHSH3CHFeSFeCNC3HSCH3C6H4C2SHC3HSHC6H2SH3NCHCH4CHFeSNH2SHC3HCSHNC2FeH2NC3H9CFeH3CHNC4H13SH2CHCHCH4SCSCSHC2SH3NHCH3CFeHC2NH3CH2SH3CHCH3SH3CH5CH2CH4CHSC3SC2FeHFeH3Fe2S2FeS2FeSFeS3FeS2FeSFeSFeSHSFeHS2CSH2CHCSH2CHCHSC2HCH6CNCH7FeS2HCHCH2C3NSCHSCH6CH6CHFeCHSCH2SCHSH2CNH3CH4CSCHFeHCH5CH2C4FeH3CHC4H2C4HCH4CHCH2CSCHC7H3NHC5H3CHFeHC2FeSHCHNCHSC2HNCH2NCH3SHC3H4C2HCH5CHSNSH2CFeSHCHS2H3C2HSNHCHFeH2CH2CHNC4H12CFeCHCSH2SCH2C2NCNCHCH3CH2CH2CH2SC2H2CHCHCH12NCH3CHCH3CHCHCH2CHSC3H3SH4C3H4CHCH2SCHCH5NH3CHC3HNCSCH2SCFeSHFeSCFeSFeS3FeS2FeS2FeSFeS2HSHNH2CHSCSCSFeHSHCHSHFeS2FeS2FeHFeS3FeSH3C2FeSHSFeS2FeS2FeCHS2FeSCFeSHFeSFeS3H2CSCNH2SCH2CSH2C6H3C7H4C6H5C4H4C7H5C3H5CH4SHC3H2CHSHC2HCH4C6H6CHC6H4CH2C4H3C5H4CH2NC4H12CHCHCHSN2C4H13C2HCFeHCHCH6N2H2FeHCHCH2NHCHCHCH4CSH3C4HCHCNC4H12NC4H13SCS2CHCSNSCH4CH2CH3NH2NH2SCHCH2NC2H4FeH2CSH2CH5CH4CH5CH2NHC3H2SFeS2FeS2FeSFeHS2C2H2CHC2HCH2CH4C2HCHCH2S2HC2HC2H5SCFeCHCH2SH3CHNCHCH3CH7CH3NHC2NH2S2CHC3H3SH2SNCHCH2CHCHCH3CH3CH2SH7FeCH2C3H4CHCH4CH2NC2FeCH2SHCHC3FeH3C2HNHCHSHN2CSHFeS2FeS2FeHFeS4H3SC3S2CHCHS2CHFeS2CHCH3C3H7FeSCHCHFeH2CH2C6H4CH12CHC2FeH3C7H6CFeCNHC2H3C2HC2HNHNH3CH2SH2SH2CSNCH2CHC2H3C2NH11CH8CH3CSH2SHFeH2CSC2H3C2H3FeSHCHFeCH6CHCH4CSCFeSHFeS2Fe2S3CSHCHC3FeS2FeS2FeSFeS3FeH4FeSHSFeS2FeS2FeSFeS3FeS2FeS2FeSFeS3FeCSFe2SH2FeS3HFeH3CSCHC3H2CH4C6H4C6H5C5FeH3C7H4C3HC2H4C4H4C8H5CH2CHFeNH2CSH3C2H4C7H4CHC7H4CH5CH6NHCNC4H16CHFeC2S2CH2SHCH2N2C4H11CH2C4HCH6CSHCH4C2H2CFeCH2SH4FeNCH4SCH2C2NH3CH4C3H2NHCHCHSHCH5NHCH3C2HNCSH3SFeH4CHSCSHNHSH2S2HCHCNH2NCHCHCHC2H4C2H2CH2SCNH3CH4SCH2CHNC2FeH2CH4S2HCH2C2HCH3C2HCHFeH4SH2CSCSFeH5CH4C7SH3CSHCH3SH3CH2FeH4CH4C2H2CHCH3CH2FeCFeHCHCH2FeH3CHCS2CH2NH2S2CHSCHFeSHC2FeSH2SFeHSC3HCNCHCSCH2SFeSFe2CHFeSHCHSNCHCHC3HSCH2CSH4CNCH2SHCSH2C2SCSHCHCH5C2SH4FeSCHSH2CH2CHFeHC3HNSH4CHSFeHC2SCH4C2H3SH3CHCH2CHC2H3CH2C5HCH5CHC2HCHC2H3C3H2CH2Fe2SC2SH2CH8SH4FeCSCH2CNS2CH2S2H2NHC5NFeH3SHCH3FeCH3CH4S2H3CHFeHSCH2C2HSH4CHNCSCHFeC2HC2HSCHCHCSHCH2CSHSCH2FeH3CHCNSHCH2C2HFeCH2C4H4FeCHCSH2C2NHCH6CHCH5C2H2FeC3HC2H3CFeHC7H5C2HFeSHN2S2CH4CHSCH2FeNHCHCH2CSHS2H2CH5NC2HCH2FeHSCH2NSHFeH2CSH2SHFeHS2CH3C4SCH2SC2H3C2H3S3H3CH4SC4H2CSHCSHFeH6FeCFeH7SC3H2CH2CFeH2S2H5FeS2FeS2FeSFeS3FeS2HSCFeSFeS3FeS2FeS2FeSFeS3FeS2FeS2FeSFeS2FeS2FeS2FeSFeS3FeS2FeS2FeSFeS3FeS2FeS2FeSFeHS2FeSH2SC2H5SHCHC2H3C6H4C6H4C6H4C6H4C6H4C6H9CHCH2C6H4C6H4C6H4CSH4C6H4NH4C4H3CH2SHNFeC6H9CH3C2H3SNHNC4H14CH6CH3CNC4H13CHNC4H12CFeCHC2H5CHNHNH3SHC2HCHCHC2HNH2CHC2NC4H14CH6CHSCHCHC2NCH2C4HC2HCSH2C2NC2NH2CH10C4NH6C2HCFeHCH2NH3C2H2C2HFeCHSH2CHFeCH5C5HC2H4NH7FeHCH2CH3SCHCHCH2NHCH2C2H2C2HNH3C3HCHC2H2CH2C3H4N2FeC2H4CH2CH2C2H4NH2C2HCHCH3CH4CFeH2SHS2CH4SC4HCH5C3HCHCH2NSH4SH3CH2CFeSHFeSCFeSFeS3HCHFeS2C2FeSCSFeHSCHCH4FeS2FeS2FeHFeS3HFeHC4SCHS2HSCFeSCFeSFeSHSFeSHFeS2FeSHFeSH6NHC3H4C7H4NH3C6H5CH5CFeHCSCH2SHSHFeH2C2H3C2H4S2NCFeH2C6H5CHNH2CHCH2C6H4C6H4CHCSC2HCH2NC3HCHCH3CHCFeH3NH2CHCHSH2CFeH4CHCHCHCSHCHCHC3HSHCH3CHCSC2H5CH2C2H2C2H2SNC4H10CFeSH2SH2SC3H2S2C2HC2H4CH3CFeSH3CH7CFeH2CH3CH4CNHCH2CFeSHFeSHFeSFeSCHC2SHCHC2H2C2HSC2H3FeHCFeSFeCS2FeCH2SH2SFeHSFeCS2H2S3CFeC5H3CFeSFeCSHC2FeC3HSH6C2HCSHCH2FeH2SCSNCHSCHCHC2NCH3CS2C2HC6HC2HCH2SH3C2HCS2C3H5CH2C5H2CNHFeC2H9NH2CH3CSC2SH4CHSFeCH3CNH4SH2FeC2SHC2FeHNC4H12CH3CNH3C2H5CHSHCNH3C2HCH2CHCH3C2HSHCSCH3CNFeCSHC2HFeS2FeSHFeSFeHS3CFeSHFeS2FeSFeCS2FeHSFeS2FeHFeS3HFeHFeS2H4S3HSCFeSFeSHFeS2FeSCFeSFeS3HCSC2H4SFeHS2HCHSFeH2SH2CH4CHCH5CH3SC6H3SFeC3H4SNC6H5CH2SHCH3C6H5CHSHCSHFeHNHFeH3C6H4C6H8NHSCHSCHNFeH5FeC6H4C6H5C2H2FeCHSHCHCH3FeCH2NC2SCHCHCHS2H5NC4H12NC4H6SC2H2FeC2SCNC4H13CHNCSC3SH3SHCFeNC4H10NH2CHCH2CNC4H10CH6CH3FeH3SC2H2NH3CSHCSC2HC3H2CH3C2H4CHCHCSHCH2CHSH2FeS2FeSHFeSFeHSHFeS2FeS2FeSFeS3H4CFeHSHCSFeCH2S3C2SCH3FeSH3CH2CH2FeCH4C6HSH2C6H4FeHCHC6H4C3HSH4C7H5SHCH2CSH2CH2C3H3CH2C2H2CHSCH3NH4NC2H2C3H2FeSCH2C2H4NCHCH2NHC2HCHCHSH2SHCH2NHCHNHCHNH2CHS2HCSCHNHC3NH5CH3FeSH3CSH2NC4H6FeH6SFeH6CHCHCH6CSCFeHFeCHC2H2CSH2S2CH2C2FeCNH2CHNCH2CHCHCHCH2C3H2SHCH2SHCH2CSH2FeC3H3CHSH3CSH4SH2FeHSFeS2FeCHCS2CS2HCHSNCSCH6SNCH2CH3CHC3H3FeH2FeS2CHFeH2SCHFeH2SHCHCHCH2CHCSH3C3HFeNHCH5CFeC2HC2HNHSCH2CFeNCH3CFeHNH2FeC2HC6H4CHCHFeH6NCFeSC4HCH2CHC6H2FeH2SCHC5SHC2HCH3SH3CHSCH4S2H11CHSHCSHCHCH7C3H2NHCH2CHFeS2FeSHCHSH2CHSH2C2HCS2H2FeHSH2NCH3SCSFeS2FeS2FeSFeS3FeS2FeS2FeSFeS3FeS2FeS2FeSFeS3FeS2FeS2FeSFeS3HC3H5C8H4C6H4C6H4C6H4C6H4FeHCH6NH3CHSHCHC2HNH2C5H4CHCH6C2H3CHFeH2CH2NCH2C6H5NFeH3NC6H4CH2CHSHCH3SHCNCH2FeCHCHFeHCSH5C4HCHCHCH3SH4CHC2H2NCH3SHNC5HCH19S2CH4C2HSHCSH5CHCSCH2CH2C2HSFeHCHCNHSHCH2CHC2HCHFeHSHSH7CHCH2CSH2CFeH5SCHFeHCFeH3C2HCH2NH2FeHCHCHC3H3NC2H2SHNH2SC2H3SCHCHSHC2H6NCH2CH6CFeH2C2H3C3H2FeS2FeCHFeSH2SC2SHFeHC2HFeS2FeH2C4S2CHCH4CH4C2HC3HCHCHNHC5H2CSCHCH3SCNH2CH2SH4C2HSH2CH3FeH2SCH2NHCH2CSHCSH5CH2CH3CHCH5SH2NHS2H2CNFe2H2CHFeCH3C2HSCSCH2SHFeCH2CHNFeHCFeC2H3SC2HCHSCH3CH4FeH2FeH2S2HC2HC2SHCH3CSHCH3CH4C2HSH3NCH4SCHS2FeC2H4FeCHC2SH2SFeS2FeSCHCH2CH2CHSH4C2HFeHSFeHSHCH2S2CSC2FeS2FeH2FeS2HSHFeHSH2SHCH6CHFeCNH3SHCHFeSFeSC3H3CHSCHC2SCHCHCH2C6H5CFeCHC2SC8H4CHSC2HFe2SH3SH3CSH5C6H4CH2C3HCH2CHFeCSH2C3HC2SNC4H13CSHFeH4SHCHCFeHNHSHSC4HSCH2FeHCNH6SCFeNH2SCHC3H2NHFeCH2FeHCSH2S3HC2SCHNFeCH2CSC2H4CHSHCSCH2CH2CHCNHCH3FeHCH2SCH3C2SCHSFeC4H4FeSH2CSHC2H3CH2FeNH2C2HSHCHCNC2H3NHNH2CNHFeH3CH2SC2H2CH5CSC2SC3H5CSH2NFeH3CHC2H2CHCH6SC2H4CHC2HCH6CHCHC2NHC2SHC2NFeH3SCHCH2FeH2CH2S2CH4CSHFeS2FeSFeS2HFeHCH3SNCH2FeSHFeS2FeSFeS3FeSC2H2CHNHSCFeSCHNH6CHCSHNHNH2C7H4C4HCH4CH3CHCH3C6H8C2H2CHCHC2H3CSHCH2FeHS2H3CHCH2CH5CSFeH2FeHC2H4CSNHC3H2CHNSHCHCH3CNH4C2H3C3H2CH2CH3CHC2HC2HS4H4C3SFeH3SCFeHSH3SHNCH3FeHFeCHCHC2HC4HNCSC2HCH3SCH2CH3C2HS2HCFeCSHCHFeSFeSCFeHCH3C2HNSCHCFeSHCFeCH2C2H3CFeSCFeS2HSHCS2HS3CH2CHCFe2H2SHSH3C4HCSH3C2H2CSH2SCH5FeH4NH3C4SHFeHCH2CNFeCHCH3C2NCNHC4H2CH4CH2C3SH3SNCH5CHCHC3HSH2CH3C2SC2H2CHCH5CHCFe
_chemical_formula_sum              "C2880 S1152 H4608 N288 Fe576"
_cell_length_a       121.051
_cell_length_b       120.942
_cell_length_c       121.103
_cell_angle_alpha    74.0116
_cell_angle_beta     73.7386
_cell_angle_gamma    73.5956

_space_group_name_H-M_alt    "P 1"
_space_group_IT_number       1

loop_
  _space_group_symop_operation_xyz
  'x, y, z'

loop_
  _atom_site_type_symbol
  _atom_site_label
  _atom_site_symmetry_multiplicity
  _atom_site_fract_x
  _atom_site_fract_y
  _atom_site_fract_z
  _atom_site_occupancy
  C   C1        1.0  0.07465  0.22944  0.44532  1.0000
  S   S1        1.0  0.08996  0.19773  0.43595  1.0000
  H   H1        1.0  0.07056  0.29373  0.42642  1.0000
  H   H2        1.0  0.00435  0.18134  0.47206  1.0000
  H   H3        1.0  0.06844  0.26688  0.41875  1.0000
  H   H4        1.0  0.05143  0.28904  0.40944  1.0000
  H   H5        1.0  0.03070  0.20425  0.43062  1.0000
  H   H6        1.0  0.05506  0.26894  0.43802  1.0000
  H   H7        1.0  0.08148  0.10463  0.45077  1.0000
  H   H8        1.0  0.06025  0.20969  0.41459  1.0000
  C   C2        1.0  0.01237  0.28005  0.47506  1.0000
  N   N1        1.0  0.09854  0.11175  0.48738  1.0000
  H   H9        1.0  0.02725  0.21515  0.43934  1.0000
  C   C3        1.0  0.04960  0.28519  0.41905  1.0000
  S   S2        1.0  0.04966  0.32407  0.44606  1.0000
  C   C4        1.0  0.07019  0.27570  0.41779  1.0000
  C   C5        1.0  0.00229  0.21558  0.42438  1.0000
  H   H10       1.0  0.04183  0.29130  0.42327  1.0000
  H   H11       1.0  0.03825  0.20185  0.44215  1.0000
  H   H12       1.0  0.29875  0.02532  0.44940  1.0000
  C   C6        1.0  0.08585  0.21288  0.43617  1.0000
  C   C7        1.0  0.09272  0.22028  0.42788  1.0000
  C   C8        1.0  0.09054  0.23221  0.42820  1.0000
  C   C9        1.0  0.08170  0.23677  0.43705  1.0000
  S   S3        1.0  0.02515  0.24878  0.43695  1.0000
  H   H13       1.0  0.19290  0.02760  0.47260  1.0000
  H   H14       1.0  0.09991  0.21673  0.42126  1.0000
  H   H15       1.0  0.09603  0.23778  0.42183  1.0000
  C   C10       1.0  0.06271  0.29484  0.42282  1.0000
  C   C11       1.0  0.00518  0.23522  0.41426  1.0000
  H   H16       1.0  0.11747  0.02113  0.47344  1.0000
  Fe  Fe1       1.0  0.32081  0.02687  0.48261  1.0000
  H   H17       1.0  0.09574  0.21380  0.45876  1.0000
  N   N2        1.0  0.05995  0.28334  0.42410  1.0000
  C   C12       1.0  0.01567  0.10671  0.47287  1.0000
  S   S4        1.0  0.08002  0.25148  0.43793  1.0000
  C   C13       1.0  0.00350  0.31528  0.44643  1.0000
  C   C14       1.0  0.05170  0.20961  0.47987  1.0000
  C   C15       1.0  0.05731  0.27761  0.43672  1.0000
  H   H18       1.0  0.00067  0.28785  0.44705  1.0000
  H   H19       1.0  0.04969  0.28317  0.44177  1.0000
  S   S5        1.0  0.07747  0.17127  0.43745  1.0000
  H   H20       1.0  0.05520  0.30078  0.42761  1.0000
  H   H21       1.0  0.06502  0.27588  0.44074  1.0000
  H   H22       1.0  0.01611  0.12856  0.45960  1.0000
  H   H23       1.0  0.02235  0.18312  0.43044  1.0000
  H   H24       1.0  0.09293  0.12026  0.44443  1.0000
  H   H25       1.0  0.23749  0.07060  0.43498  1.0000
  H   H26       1.0  0.07818  0.27412  0.42135  1.0000
  H   H27       1.0  0.11083  0.12128  0.47469  1.0000
  H   H28       1.0  0.06463  0.29948  0.41342  1.0000
  C   C16       1.0  0.99805  0.30612  0.44751  1.0000
  C   C17       1.0  0.05183  0.31151  0.45724  1.0000
  H   H29       1.0  0.31018  0.02852  0.46194  1.0000
  C   C18       1.0  0.03457  0.20870  0.43506  1.0000
  C   C19       1.0  0.01727  0.29283  0.44351  1.0000
  H   H30       1.0  0.04691  0.27675  0.42041  1.0000
  H   H31       1.0  0.03484  0.25739  0.48238  1.0000
  C   C20       1.0  0.05289  0.22011  0.48164  1.0000
  C   C21       1.0  0.08904  0.12249  0.48831  1.0000
  C   C22       1.0  0.03243  0.16394  0.45376  1.0000
  H   H32       1.0  0.22716  0.06220  0.45513  1.0000
  C   C23       1.0  0.23093  0.05330  0.45305  1.0000
  H   H33       1.0  0.08971  0.21086  0.48105  1.0000
  C   C24       1.0  0.01582  0.31318  0.44386  1.0000
  H   H34       1.0  0.07919  0.16647  0.48633  1.0000
  S   S6        1.0  0.00915  0.25494  0.46233  1.0000
  S   S7        1.0  0.05578  0.27813  0.48590  1.0000
  Fe  Fe2       1.0  0.01645  0.23900  0.45426  1.0000
  H   H35       1.0  0.06466  0.28231  0.46079  1.0000
  Fe  Fe3       1.0  0.07067  0.23674  0.48002  1.0000
  H   H36       1.0  0.24839  0.03420  0.45026  1.0000
  C   C25       1.0  0.01147  0.16567  0.45623  1.0000
  H   H37       1.0  0.22436  0.05106  0.44966  1.0000
  S   S8        1.0  0.04484  0.17842  0.43585  1.0000
  C   C26       1.0  0.07655  0.21755  0.44470  1.0000
  C   C27       1.0  0.07902  0.11169  0.45546  1.0000
  Fe  Fe4       1.0  0.07890  0.18461  0.44638  1.0000
  S   S9        1.0  0.30244  0.03792  0.48324  1.0000
  N   N3        1.0  0.04378  0.21450  0.42668  1.0000
  S   S10       1.0  0.08331  0.17108  0.46234  1.0000
  C   C28       1.0  0.02152  0.19340  0.46423  1.0000
  C   C29       1.0  0.30067  0.03095  0.46408  1.0000
  C   C30       1.0  0.02268  0.30199  0.44248  1.0000
  C   C31       1.0  0.08549  0.12052  0.45188  1.0000
  C   C32       1.0  0.29420  0.02926  0.45693  1.0000
  H   H38       1.0  0.27787  0.04323  0.48398  1.0000
  C   C33       1.0  0.00577  0.22582  0.42402  1.0000
  H   H39       1.0  0.07100  0.21199  0.45098  1.0000
  H   H40       1.0  0.07243  0.27966  0.40822  1.0000
  H   H41       1.0  0.03141  0.28985  0.46979  1.0000
  H   H42       1.0  0.03219  0.30050  0.44061  1.0000
  S   S11       1.0  0.02617  0.27885  0.44188  1.0000
  C   C34       1.0  0.99818  0.21470  0.41500  1.0000
  H   H43       1.0  0.11094  0.18393  0.47301  1.0000
  C   C35       1.0  0.04640  0.31196  0.46900  1.0000
  Fe  Fe5       1.0  0.05840  0.17495  0.44644  1.0000
  H   H44       1.0  0.06773  0.23294  0.45216  1.0000
  C   C36       1.0  0.09470  0.20153  0.48161  1.0000
  C   C37       1.0  0.00384  0.18799  0.47703  1.0000
  C   C38       1.0  0.02230  0.17675  0.43872  1.0000
  N   N4        1.0  0.02385  0.27470  0.47845  1.0000
  S   S12       1.0  0.26640  0.00504  0.47964  1.0000
  Fe  Fe6       1.0  0.07872  0.25179  0.45660  1.0000
  H   H45       1.0  0.23462  0.05957  0.42945  1.0000
  S   S13       1.0  0.05958  0.18937  0.45406  1.0000
  C   C39       1.0  0.29477  0.03591  0.47390  1.0000
  C   C40       1.0  0.24093  0.06146  0.43347  1.0000
  H   H46       1.0  0.25982  0.05495  0.44346  1.0000
  H   H47       1.0  0.17726  0.02402  0.49068  1.0000
  H   H48       1.0  0.02667  0.13135  0.46574  1.0000
  H   H49       1.0  0.24948  0.06126  0.42688  1.0000
  Fe  Fe7       1.0  0.07987  0.15819  0.45423  1.0000
  S   S14       1.0  0.09121  0.13996  0.45424  1.0000
  C   C41       1.0  0.03253  0.17234  0.44315  1.0000
  H   H50       1.0  0.25572  0.04006  0.43575  1.0000
  C   C42       1.0  0.08238  0.12964  0.45796  1.0000
  C   C43       1.0  0.04778  0.30171  0.47786  1.0000
  C   C44       1.0  0.20610  0.02608  0.48207  1.0000
  H   H51       1.0  0.03439  0.21993  0.41271  1.0000
  H   H52       1.0  0.02333  0.19952  0.48334  1.0000
  C   C45       1.0  0.06966  0.11178  0.46534  1.0000
  N   N5        1.0  0.01569  0.18941  0.47661  1.0000
  H   H53       1.0  0.09816  0.11174  0.46975  1.0000
  H   H54       1.0  0.01264  0.12904  0.47488  1.0000
  C   C46       1.0  0.28185  0.03223  0.45980  1.0000
  H   H55       1.0  0.24791  0.06457  0.45141  1.0000
  S   S15       1.0  0.08416  0.26408  0.46403  1.0000
  C   C47       1.0  0.05862  0.30084  0.45435  1.0000
  C   C48       1.0  0.03453  0.10984  0.46058  1.0000
  C   C49       1.0  0.28244  0.03925  0.47650  1.0000
  H   H56       1.0  0.05314  0.21318  0.43987  1.0000
  C   C50       1.0  0.09714  0.10597  0.47872  1.0000
  Fe  Fe8       1.0  0.26051  0.01987  0.46532  1.0000
  H   H57       1.0  0.04366  0.30209  0.48693  1.0000
  S   S16       1.0  0.06110  0.25261  0.46895  1.0000
  C   C51       1.0  0.25094  0.05557  0.44954  1.0000
  C   C52       1.0  0.05977  0.29057  0.46316  1.0000
  C   C53       1.0  0.00493  0.29489  0.44610  1.0000
  S   S17       1.0  0.06229  0.10016  0.47042  1.0000
  S   S18       1.0  0.27362  0.02904  0.45173  1.0000
  N   N6        1.0  0.24244  0.05281  0.44454  1.0000
  S   S19       1.0  0.02605  0.22080  0.46147  1.0000
  Fe  Fe9       1.0  0.01623  0.26494  0.44434  1.0000
  C   C54       1.0  0.24700  0.04084  0.44210  1.0000
  H   H58       1.0  0.04170  0.11467  0.45858  1.0000
  H   H59       1.0  0.10233  0.18142  0.46441  1.0000
  C   C55       1.0  0.18594  0.02412  0.49139  1.0000
  H   H60       1.0  0.24078  0.03828  0.43852  1.0000
  H   H61       1.0  0.08289  0.19520  0.46239  1.0000
  C   C56       1.0  0.03844  0.22372  0.41759  1.0000
  H   H62       1.0  0.01637  0.20202  0.46017  1.0000
  H   H63       1.0  0.00888  0.22643  0.43131  1.0000
  C   C57       1.0  0.05316  0.20564  0.42104  1.0000
  H   H64       1.0  0.10817  0.05670  0.49045  1.0000
  N   N7        1.0  0.09511  0.19725  0.47115  1.0000
  C   C58       1.0  0.27599  0.03720  0.46961  1.0000
  H   H65       1.0  0.25228  0.04921  0.45791  1.0000
  H   H66       1.0  0.06284  0.30052  0.44530  1.0000
  H   H67       1.0  0.03052  0.19451  0.46353  1.0000
  S   S20       1.0  0.08801  0.23536  0.46713  1.0000
  Fe  Fe10      1.0  0.23503  0.01887  0.47412  1.0000
  C   C59       1.0  0.10097  0.20457  0.46038  1.0000
  H   H68       1.0  0.00292  0.20832  0.43186  1.0000
  C   C60       1.0  0.10176  0.18485  0.47225  1.0000
  S   S21       1.0  0.06059  0.16086  0.46259  1.0000
  C   C61       1.0  0.03698  0.23101  0.47168  1.0000
  C   C62       1.0  0.07277  0.12992  0.46761  1.0000
  H   H69       1.0  0.10991  0.20483  0.46093  1.0000
  C   C63       1.0  0.06652  0.12092  0.47138  1.0000
  H   H70       1.0  0.08824  0.10393  0.48103  1.0000
  H   H71       1.0  0.26648  0.03955  0.47187  1.0000
  Fe  Fe11      1.0  0.06371  0.17483  0.46943  1.0000
  C   C64       1.0  0.02987  0.11050  0.48110  1.0000
  H   H72       1.0  0.04036  0.16023  0.45706  1.0000
  H   H73       1.0  0.03875  0.10026  0.46264  1.0000
  Fe  Fe12      1.0  0.00817  0.25110  0.43182  1.0000
  C   C65       1.0  0.03309  0.28029  0.46985  1.0000
  C   C66       1.0  0.03612  0.22058  0.46949  1.0000
  C   C67       1.0  0.08295  0.19804  0.47034  1.0000
  H   H74       1.0  0.04957  0.20117  0.41636  1.0000
  H   H75       1.0  0.05926  0.12112  0.47894  1.0000
  C   C68       1.0  0.01988  0.12612  0.46756  1.0000
  H   H76       1.0  0.07765  0.20726  0.46972  1.0000
  H   H77       1.0  0.09744  0.17904  0.48015  1.0000
  H   H78       1.0  0.07828  0.19246  0.47819  1.0000
  S   S22       1.0  0.21746  0.02730  0.46941  1.0000
  S   S23       1.0  0.99783  0.16371  0.46544  1.0000
  H   H79       1.0  0.03184  0.17888  0.48144  1.0000
  H   H80       1.0  0.07046  0.13680  0.47249  1.0000
  C   C69       1.0  0.19477  0.02622  0.48117  1.0000
  H   H81       1.0  0.05733  0.20133  0.48305  1.0000
  C   C70       1.0  0.04338  0.20986  0.47372  1.0000
  H   H82       1.0  0.23174  0.04686  0.46150  1.0000
  S   S24       1.0  0.24572  0.02952  0.47744  1.0000
  H   H83       1.0  0.04128  0.32024  0.47127  1.0000
  C   C71       1.0  0.04893  0.21991  0.43305  1.0000
  C   C72       1.0  0.02189  0.16056  0.46030  1.0000
  C   C73       1.0  0.05447  0.29102  0.47492  1.0000
  H   H84       1.0  0.03131  0.23054  0.42156  1.0000
  C   C74       1.0  0.12989  0.00747  0.48943  1.0000
  H   H85       1.0  0.02169  0.15445  0.46873  1.0000
  H   H86       1.0  0.04510  0.22831  0.41107  1.0000
  C   C75       1.0  0.11010  0.11506  0.48345  1.0000
  H   H87       1.0  0.03123  0.23925  0.46866  1.0000
  H   H88       1.0  0.05739  0.19858  0.42766  1.0000
  Fe  Fe13      1.0  0.06735  0.26302  0.47774  1.0000
  N   N8        1.0  0.02497  0.11330  0.47052  1.0000
  H   H89       1.0  0.04208  0.22637  0.43772  1.0000
  S   S25       1.0  0.05423  0.17699  0.48774  1.0000
  H   H90       1.0  0.04562  0.23865  0.48000  1.0000
  C   C76       1.0  0.01182  0.17339  0.44523  1.0000
  H   H91       1.0  0.05581  0.22453  0.42700  1.0000
  H   H92       1.0  0.01160  0.10871  0.46516  1.0000
  C   C77       1.0  0.02693  0.26193  0.47863  1.0000
  C   C78       1.0  0.04527  0.23072  0.47788  1.0000
  H   H93       1.0  0.00845  0.10890  0.48051  1.0000
  S   S26       1.0  0.24950  0.01033  0.46085  1.0000
  Fe  Fe14      1.0  0.09171  0.24758  0.47579  1.0000
  H   H94       1.0  0.02883  0.26027  0.46961  1.0000
  H   H95       1.0  0.00128  0.24132  0.39701  1.0000
  H   H96       1.0  0.02013  0.32022  0.44279  1.0000
  H   H97       1.0  0.10199  0.20114  0.45242  1.0000
  H   H98       1.0  0.03364  0.27954  0.46080  1.0000
  H   H99       1.0  0.04269  0.20172  0.47219  1.0000
  H   H100      1.0  0.01926  0.09701  0.47496  1.0000
  H   H101      1.0  0.04191  0.27594  0.47181  1.0000
  H   H102      1.0  0.10370  0.20111  0.48256  1.0000
  H   H103      1.0  0.11748  0.10718  0.48261  1.0000
  H   H104      1.0  0.03120  0.11166  0.45243  1.0000
  H   H105      1.0  0.02235  0.18701  0.45884  1.0000
  H   H106      1.0  0.01009  0.28979  0.47408  1.0000
  S   S27       1.0  0.10792  0.24540  0.48219  1.0000
  C   C79       1.0  0.00161  0.23413  0.40465  1.0000
  H   H107      1.0  0.08976  0.12921  0.47990  1.0000
  H   H108      1.0  0.00397  0.17703  0.44179  1.0000
  H   H109      1.0  0.99834  0.19641  0.47307  1.0000
  H   H110      1.0  0.00513  0.27639  0.48169  1.0000
  H   H111      1.0  0.01249  0.27821  0.46651  1.0000
  Fe  Fe15      1.0  0.25057  0.01373  0.49145  1.0000
  S   S28       1.0  0.00840  0.24855  0.41406  1.0000
  C   C80       1.0  0.02282  0.17804  0.48174  1.0000
  S   S29       1.0  0.01794  0.32685  0.46461  1.0000
  S   S30       1.0  0.06430  0.21999  0.48796  1.0000
  H   H112      1.0  0.03705  0.11519  0.47953  1.0000
  S   S31       1.0  0.99997  0.26831  0.43749  1.0000
  H   H113      1.0  0.10379  0.09753  0.47818  1.0000
  H   H114      1.0  0.99905  0.18508  0.48621  1.0000
  S   S32       1.0  0.99990  0.24034  0.44869  1.0000
  H   H115      1.0  0.02384  0.17115  0.47686  1.0000
  H   H116      1.0  0.01964  0.25756  0.48411  1.0000
  H   H117      1.0  0.03375  0.10089  0.48360  1.0000
  H   H118      1.0  0.13487  0.00713  0.48024  1.0000
  H   H119      1.0  0.00942  0.20704  0.47969  1.0000
  H   H120      1.0  0.20662  0.00244  0.48725  1.0000
  H   H121      1.0  0.10129  0.22339  0.48825  1.0000
  C   C81       1.0  0.01458  0.19825  0.48339  1.0000
  H   H122      1.0  0.02299  0.11300  0.48883  1.0000
  H   H123      1.0  0.08017  0.12044  0.49046  1.0000
  H   H124      1.0  0.11142  0.11949  0.48977  1.0000
  H   H125      1.0  0.08023  0.27320  0.48936  1.0000
  C   C82       1.0  0.99812  0.22388  0.40501  1.0000
  S   S33       1.0  0.23831  0.00391  0.48944  1.0000
  Fe  Fe16      1.0  0.05834  0.09541  0.49014  1.0000
  S   S34       1.0  0.07526  0.24718  0.49000  1.0000
  H   H126      1.0  0.09018  0.19625  0.48984  1.0000
  C   C83       1.0  0.02308  0.27645  0.49026  1.0000
  H   H127      1.0  0.02068  0.28597  0.49049  1.0000
  H   H128      1.0  0.11896  0.99944  0.47777  1.0000
  C   C84       1.0  0.11293  0.02098  0.48282  1.0000
  H   H129      1.0  0.01863  0.17484  0.49110  1.0000
  H   H130      1.0  0.11472  0.02843  0.48530  1.0000
  H   H131      1.0  0.09158  0.27859  0.49173  1.0000
  H   H132      1.0  0.13216  0.01463  0.49191  1.0000
  H   H133      1.0  0.10325  0.02289  0.48345  1.0000
  N   N9        1.0  0.11702  0.00956  0.49054  1.0000
  C   C85       1.0  0.11446  0.99991  0.48706  1.0000
  H   H134      1.0  0.10482  0.00113  0.48788  1.0000
  Fe  Fe17      1.0  0.25384  0.99641  0.47646  1.0000
  H   H135      1.0  0.01250  0.07641  0.49206  1.0000
  H   H136      1.0  0.31606  0.99548  0.48093  1.0000
  C   C86       1.0  0.26771  0.02616  0.52403  1.0000
  Fe  Fe18      1.0  0.06118  0.14620  0.56076  1.0000
  S   S35       1.0  0.05733  0.15911  0.54446  1.0000
  S   S36       1.0  0.05693  0.12843  0.56440  1.0000
  Fe  Fe19      1.0  0.07068  0.16292  0.56821  1.0000
  S   S37       1.0  0.06789  0.17739  0.55241  1.0000
  S   S38       1.0  0.07928  0.16409  0.58197  1.0000
  Fe  Fe20      1.0  0.05060  0.17247  0.55573  1.0000
  S   S39       1.0  0.03472  0.18610  0.55151  1.0000
  Fe  Fe21      1.0  0.07484  0.16305  0.54230  1.0000
  S   S40       1.0  0.08635  0.16589  0.52419  1.0000
  S   S41       1.0  0.05261  0.15919  0.57250  1.0000
  S   S42       1.0  0.07948  0.14885  0.55771  1.0000
  Fe  Fe22      1.0  0.06041  0.10191  0.51184  1.0000
  C   C87       1.0  0.03550  0.31358  0.51979  1.0000
  S   S43       1.0  0.06886  0.11479  0.51506  1.0000
  Fe  Fe23      1.0  0.03821  0.09462  0.51145  1.0000
  H   H137      1.0  0.27409  0.04407  0.50641  1.0000
  S   S44       1.0  0.01829  0.10121  0.51525  1.0000
  Fe  Fe24      1.0  0.06166  0.07649  0.51211  1.0000
  S   S45       1.0  0.07054  0.05785  0.51983  1.0000
  C   C88       1.0  0.10486  0.23585  0.49577  1.0000
  H   H138      1.0  0.29772  0.01951  0.51658  1.0000
  S   S46       1.0  0.05035  0.08871  0.52417  1.0000
  H   H139      1.0  0.02460  0.29203  0.51632  1.0000
  H   H140      1.0  0.17701  0.04562  0.54877  1.0000
  S   S47       1.0  0.01367  0.24894  0.50890  1.0000
  H   H141      1.0  0.13331  0.99898  0.49518  1.0000
  C   C89       1.0  0.32240  0.00671  0.56982  1.0000
  H   H142      1.0  0.03964  0.29354  0.51233  1.0000
  S   S48       1.0  0.12475  0.03669  0.49976  1.0000
  S   S49       1.0  0.03601  0.30696  0.57522  1.0000
  Fe  Fe25      1.0  0.06745  0.22777  0.56855  1.0000
  S   S50       1.0  0.06403  0.21768  0.55749  1.0000
  S   S51       1.0  0.07204  0.21660  0.58557  1.0000
  Fe  Fe26      1.0  0.06342  0.25073  0.55040  1.0000
  S   S52       1.0  0.05972  0.24197  0.53808  1.0000
  S   S53       1.0  0.06235  0.27018  0.54266  1.0000
  Fe  Fe27      1.0  0.04903  0.23284  0.55440  1.0000
  S   S54       1.0  0.03202  0.22855  0.55530  1.0000
  Fe  Fe28      1.0  0.07514  0.22770  0.54251  1.0000
  S   S55       1.0  0.08711  0.21590  0.53068  1.0000
  S   S56       1.0  0.05145  0.24250  0.56655  1.0000
  S   S57       1.0  0.07990  0.23693  0.55360  1.0000
  C   C90       1.0  0.21805  0.02854  0.59592  1.0000
  C   C91       1.0  0.00668  0.25369  0.56590  1.0000
  H   H143      1.0  0.02571  0.16181  0.51892  1.0000
  H   H144      1.0  0.24074  0.04895  0.53944  1.0000
  C   C92       1.0  0.31321  0.02934  0.54094  1.0000
  C   C93       1.0  0.07547  0.16925  0.49455  1.0000
  Fe  Fe29      1.0  0.02781  0.32490  0.56574  1.0000
  H   H145      1.0  0.27346  0.02597  0.50100  1.0000
  C   C94       1.0  0.28074  0.03869  0.51165  1.0000
  H   H146      1.0  0.31097  0.02815  0.55042  1.0000
  S   S58       1.0  0.32364  0.01091  0.49715  1.0000
  H   H147      1.0  0.15783  0.00627  0.54595  1.0000
  H   H148      1.0  0.23284  0.02569  0.55191  1.0000
  H   H149      1.0  0.21720  0.02422  0.49393  1.0000
  C   C95       1.0  0.28043  0.02109  0.50601  1.0000
  Fe  Fe30      1.0  0.19924  0.02144  0.58347  1.0000
  H   H150      1.0  0.03011  0.26513  0.56355  1.0000
  H   H151      1.0  0.10107  0.01177  0.50399  1.0000
  C   C96       1.0  0.09450  0.22333  0.51744  1.0000
  C   C97       1.0  0.09870  0.23313  0.51701  1.0000
  N   N10       1.0  0.02765  0.30523  0.52319  1.0000
  C   C98       1.0  0.99802  0.10158  0.50906  1.0000
  H   H152      1.0  0.03741  0.16640  0.52160  1.0000
  H   H153      1.0  0.02953  0.25413  0.55646  1.0000
  H   H154      1.0  0.09772  0.23598  0.52502  1.0000
  C   C99       1.0  0.19963  0.02242  0.50333  1.0000
  S   S59       1.0  0.17780  0.01919  0.51545  1.0000
  C   C100      1.0  0.01522  0.31185  0.52471  1.0000
  H   H155      1.0  0.99940  0.19906  0.54616  1.0000
  C   C101      1.0  0.02844  0.23364  0.54151  1.0000
  C   C102      1.0  0.03036  0.24454  0.53455  1.0000
  N   N11       1.0  0.23069  0.04226  0.55647  1.0000
  H   H156      1.0  0.03423  0.24988  0.53756  1.0000
  C   C103      1.0  0.04322  0.29676  0.56614  1.0000
  C   C104      1.0  0.04747  0.30060  0.55407  1.0000
  C   C105      1.0  0.05350  0.29235  0.54700  1.0000
  C   C106      1.0  0.05505  0.28022  0.55190  1.0000
  C   C107      1.0  0.05071  0.27635  0.56394  1.0000
  C   C108      1.0  0.04490  0.28462  0.57106  1.0000
  H   H157      1.0  0.04642  0.30995  0.55027  1.0000
  H   H158      1.0  0.05703  0.29539  0.53774  1.0000
  H   H159      1.0  0.05205  0.26703  0.56782  1.0000
  H   H160      1.0  0.04174  0.28163  0.58042  1.0000
  H   H161      1.0  0.09247  0.26304  0.49477  1.0000
  H   H162      1.0  0.00406  0.20251  0.57388  1.0000
  S   S60       1.0  0.18686  0.03263  0.57190  1.0000
  H   H163      1.0  0.21323  0.05196  0.56299  1.0000
  S   S61       1.0  0.21287  0.01409  0.56899  1.0000
  C   C109      1.0  0.23141  0.04911  0.54422  1.0000
  C   C110      1.0  0.10367  0.05268  0.49904  1.0000
  C   C111      1.0  0.21982  0.03373  0.51905  1.0000
  C   C112      1.0  0.00762  0.26818  0.57570  1.0000
  H   H164      1.0  0.15861  0.03714  0.52795  1.0000
  C   C113      1.0  0.08572  0.05228  0.51436  1.0000
  H   H165      1.0  0.06785  0.26269  0.52113  1.0000
  S   S62       1.0  0.28811  0.02344  0.57517  1.0000
  C   C114      1.0  0.23067  0.02897  0.51220  1.0000
  H   H166      1.0  0.24563  0.04721  0.55853  1.0000
  C   C115      1.0  0.01960  0.16075  0.55051  1.0000
  C   C116      1.0  0.07552  0.17820  0.58516  1.0000
  C   C117      1.0  0.06622  0.18685  0.58118  1.0000
  C   C118      1.0  0.06439  0.19851  0.58236  1.0000
  C   C119      1.0  0.07213  0.20165  0.58704  1.0000
  C   C120      1.0  0.08088  0.19281  0.59181  1.0000
  C   C121      1.0  0.08249  0.18109  0.59096  1.0000
  H   H167      1.0  0.06052  0.18463  0.57706  1.0000
  H   H168      1.0  0.05701  0.20509  0.57958  1.0000
  H   H169      1.0  0.08675  0.19513  0.59566  1.0000
  H   H170      1.0  0.08955  0.17437  0.59428  1.0000
  C   C122      1.0  0.07762  0.16958  0.51377  1.0000
  C   C123      1.0  0.06563  0.17498  0.51658  1.0000
  C   C124      1.0  0.05863  0.17768  0.50834  1.0000
  H   H171      1.0  0.28913  0.02115  0.49974  1.0000
  C   C125      1.0  0.09788  0.10354  0.49900  1.0000
  H   H172      1.0  0.31443  0.01343  0.56899  1.0000
  H   H173      1.0  0.06174  0.17721  0.52507  1.0000
  H   H174      1.0  0.04938  0.18189  0.51054  1.0000
  S   S63       1.0  0.29157  0.00971  0.55396  1.0000
  H   H175      1.0  0.07876  0.25382  0.51174  1.0000
  C   C126      1.0  0.06107  0.12348  0.55117  1.0000
  C   C127      1.0  0.06915  0.12844  0.54172  1.0000
  C   C128      1.0  0.07195  0.12513  0.53090  1.0000
  C   C129      1.0  0.06650  0.11705  0.52934  1.0000
  C   C130      1.0  0.05867  0.11179  0.53887  1.0000
  C   C131      1.0  0.05601  0.11496  0.54983  1.0000
  H   H176      1.0  0.07323  0.13489  0.54271  1.0000
  H   H177      1.0  0.07810  0.12915  0.52359  1.0000
  H   H178      1.0  0.05446  0.10551  0.53774  1.0000
  H   H179      1.0  0.04978  0.11108  0.55714  1.0000
  H   H180      1.0  0.21327  0.99757  0.50586  1.0000
  H   H181      1.0  0.18482  0.03284  0.52843  1.0000
  H   H182      1.0  0.99940  0.25075  0.57308  1.0000
  H   H183      1.0  0.01541  0.22605  0.52400  1.0000
  S   S64       1.0  0.15968  0.99600  0.52371  1.0000
  H   H184      1.0  0.22671  0.05849  0.54396  1.0000
  H   H185      1.0  0.02231  0.21822  0.54277  1.0000
  C   C132      1.0  0.18840  0.02220  0.50247  1.0000
  C   C133      1.0  0.17917  0.04194  0.52720  1.0000
  H   H186      1.0  0.21344  0.04127  0.60678  1.0000
  Fe  Fe31      1.0  0.13644  0.02174  0.51010  1.0000
  C   C134      1.0  0.02659  0.17849  0.54764  1.0000
  C   C135      1.0  0.02627  0.16682  0.55348  1.0000
  C   C136      1.0  0.01521  0.08715  0.50224  1.0000
  H   H187      1.0  0.03096  0.16254  0.56048  1.0000
  Fe  Fe32      1.0  0.19971  0.02399  0.55784  1.0000
  H   H188      1.0  0.23414  0.04048  0.60662  1.0000
  C   C137      1.0  0.01002  0.09621  0.50843  1.0000
  H   H189      1.0  0.01348  0.31817  0.51645  1.0000
  C   C138      1.0  0.15866  0.01186  0.56115  1.0000
  S   S65       1.0  0.19005  0.00642  0.58943  1.0000
  C   C139      1.0  0.16130  0.03490  0.53650  1.0000
  C   C140      1.0  0.15277  0.01373  0.57243  1.0000
  C   C141      1.0  0.14213  0.00507  0.55965  1.0000
  C   C142      1.0  0.23862  0.01957  0.51750  1.0000
  H   H190      1.0  0.00497  0.31225  0.56289  1.0000
  S   S66       1.0  0.15431  0.01462  0.49944  1.0000
  C   C143      1.0  0.08257  0.16686  0.50267  1.0000
  S   S67       1.0  0.20323  0.03001  0.59569  1.0000
  C   C144      1.0  0.14156  0.01131  0.57726  1.0000
  H   H191      1.0  0.21380  0.04120  0.51501  1.0000
  H   H192      1.0  0.20156  0.02098  0.51190  1.0000
  C   C145      1.0  0.21679  0.02881  0.53108  1.0000
  S   S68       1.0  0.04861  0.08127  0.50049  1.0000
  N   N12       1.0  0.16841  0.04292  0.53672  1.0000
  H   H193      1.0  0.16732  0.01365  0.55738  1.0000
  Fe  Fe33      1.0  0.99779  0.25967  0.51869  1.0000
  C   C146      1.0  0.16136  0.05517  0.53498  1.0000
  C   C147      1.0  0.01969  0.24843  0.57933  1.0000
  H   H194      1.0  0.00323  0.27533  0.56926  1.0000
  C   C148      1.0  0.23228  0.03504  0.60191  1.0000
  C   C149      1.0  0.09170  0.05751  0.50334  1.0000
  H   H195      1.0  0.06024  0.13962  0.51461  1.0000
  S   S69       1.0  0.13548  0.99927  0.55203  1.0000
  H   H196      1.0  0.24627  0.01489  0.58486  1.0000
  H   H197      1.0  0.00256  0.26071  0.55919  1.0000
  H   H198      1.0  0.16647  0.06146  0.53511  1.0000
  H   H199      1.0  0.12770  0.00486  0.57483  1.0000
  H   H200      1.0  0.02484  0.24057  0.57559  1.0000
  H   H201      1.0  0.02926  0.14230  0.51442  1.0000
  H   H202      1.0  0.26623  0.01705  0.52719  1.0000
  N   N13       1.0  0.05719  0.20967  0.52318  1.0000
  C   C150      1.0  0.04808  0.20705  0.51893  1.0000
  C   C151      1.0  0.05701  0.22241  0.51942  1.0000
  C   C152      1.0  0.06895  0.20289  0.51830  1.0000
  C   C153      1.0  0.05478  0.20627  0.53615  1.0000
  H   H203      1.0  0.04969  0.20934  0.50915  1.0000
  H   H204      1.0  0.03914  0.21213  0.52234  1.0000
  H   H205      1.0  0.04785  0.19755  0.52186  1.0000
  H   H206      1.0  0.04829  0.22778  0.52294  1.0000
  H   H207      1.0  0.06383  0.22460  0.52248  1.0000
  H   H208      1.0  0.05879  0.22533  0.50970  1.0000
  H   H209      1.0  0.06984  0.19329  0.52185  1.0000
  H   H210      1.0  0.07606  0.20528  0.52064  1.0000
  H   H211      1.0  0.07075  0.20448  0.50854  1.0000
  H   H212      1.0  0.04625  0.21156  0.54024  1.0000
  H   H213      1.0  0.06186  0.20745  0.53961  1.0000
  H   H214      1.0  0.05416  0.19690  0.53930  1.0000
  H   H215      1.0  0.27945  0.01178  0.50906  1.0000
  H   H216      1.0  0.02579  0.25132  0.58278  1.0000
  H   H217      1.0  0.24635  0.02915  0.55161  1.0000
  C   C154      1.0  0.01409  0.17783  0.53546  1.0000
  H   H218      1.0  0.15317  0.03520  0.54366  1.0000
  S   S70       1.0  0.29046  0.04205  0.54134  1.0000
  C   C155      1.0  0.03029  0.29853  0.51388  1.0000
  H   H219      1.0  0.28836  0.02335  0.52995  1.0000
  H   H220      1.0  0.10856  0.02978  0.52213  1.0000
  C   C156      1.0  0.10087  0.22591  0.49629  1.0000
  H   H221      1.0  0.22543  0.01532  0.58544  1.0000
  H   H222      1.0  0.06630  0.28417  0.51699  1.0000
  H   H223      1.0  0.23591  0.04222  0.57208  1.0000
  S   S71       1.0  0.04732  0.10900  0.50036  1.0000
  Fe  Fe34      1.0  0.29290  0.00476  0.57283  1.0000
  C   C157      1.0  0.99817  0.20836  0.54675  1.0000
  C   C158      1.0  0.00371  0.13717  0.52244  1.0000
  C   C159      1.0  0.23911  0.02068  0.58958  1.0000
  C   C160      1.0  0.02955  0.29695  0.53436  1.0000
  C   C161      1.0  0.23620  0.04730  0.56284  1.0000
  H   H224      1.0  0.16644  0.02560  0.53758  1.0000
  H   H225      1.0  0.09284  0.21184  0.50747  1.0000
  C   C162      1.0  0.05490  0.14877  0.51398  1.0000
  C   C163      1.0  0.03961  0.14345  0.53083  1.0000
  H   H226      1.0  0.26047  0.03142  0.51948  1.0000
  H   H227      1.0  0.30151  0.04348  0.51697  1.0000
  C   C164      1.0  0.01980  0.23109  0.52684  1.0000
  S   S72       1.0  0.15921  0.01884  0.58085  1.0000
  C   C165      1.0  0.17178  0.03963  0.54821  1.0000
  H   H228      1.0  0.08730  0.03811  0.52958  1.0000
  H   H229      1.0  0.22210  0.01494  0.54534  1.0000
  S   S73       1.0  0.25612  0.02792  0.59521  1.0000
  S   S74       1.0  0.14390  0.02319  0.52451  1.0000
  H   H230      1.0  0.04494  0.30891  0.51887  1.0000
  H   H231      1.0  0.01909  0.15184  0.55526  1.0000
  C   C166      1.0  0.28879  0.01951  0.52243  1.0000
  H   H232      1.0  0.01274  0.24548  0.58694  1.0000
  H   H233      1.0  0.01403  0.20497  0.55983  1.0000
  H   H234      1.0  0.23688  0.02444  0.56540  1.0000
  H   H235      1.0  0.24166  0.00730  0.53358  1.0000
  S   S75       1.0  0.25242  0.01396  0.50924  1.0000
  C   C167      1.0  0.02129  0.24218  0.52010  1.0000
  C   C168      1.0  0.07287  0.26273  0.51191  1.0000
  H   H236      1.0  0.01034  0.29287  0.55762  1.0000
  H   H237      1.0  0.22732  0.04544  0.53922  1.0000
  H   H238      1.0  0.04386  0.13298  0.51272  1.0000
  C   C169      1.0  0.15328  0.00768  0.55468  1.0000
  H   H239      1.0  0.08327  0.27058  0.52439  1.0000
  H   H240      1.0  0.19270  0.99723  0.50606  1.0000
  H   H241      1.0  0.17739  0.03057  0.54956  1.0000
  H   H242      1.0  0.03165  0.27255  0.49302  1.0000
  H   H243      1.0  0.11351  0.00138  0.50897  1.0000
  C   C170      1.0  0.08627  0.27173  0.49533  1.0000
  H   H244      1.0  0.15867  0.05789  0.52638  1.0000
  C   C171      1.0  0.06350  0.17470  0.49735  1.0000
  H   H245      1.0  0.32971  0.99783  0.52311  1.0000
  N   N14       1.0  0.07966  0.27207  0.50756  1.0000
  Fe  Fe35      1.0  0.14174  0.00469  0.53252  1.0000
  H   H246      1.0  0.17700  0.04393  0.51841  1.0000
  H   H247      1.0  0.03445  0.31981  0.51127  1.0000
  C   C172      1.0  0.10416  0.23924  0.50614  1.0000
  H   H248      1.0  0.16393  0.03983  0.55569  1.0000
  H   H249      1.0  0.05704  0.15326  0.50456  1.0000
  Fe  Fe36      1.0  0.27267  0.00848  0.56097  1.0000
  N   N15       1.0  0.27942  0.02635  0.51602  1.0000
  C   C173      1.0  0.22057  0.03548  0.60201  1.0000
  S   S76       1.0  0.19074  0.00913  0.56139  1.0000
  H   H250      1.0  0.03743  0.16595  0.50691  1.0000
  C   C174      1.0  0.32726  0.02536  0.52298  1.0000
  C   C175      1.0  0.01331  0.16635  0.54167  1.0000
  C   C176      1.0  0.24157  0.02777  0.59560  1.0000
  H   H251      1.0  0.32083  0.03332  0.50707  1.0000
  H   H252      1.0  0.01281  0.31697  0.53174  1.0000
  C   C177      1.0  0.21816  0.04278  0.56245  1.0000
  H   H253      1.0  0.03003  0.14365  0.53432  1.0000
  C   C178      1.0  0.03881  0.14235  0.51148  1.0000
  H   H254      1.0  0.09349  0.27682  0.51197  1.0000
  H   H255      1.0  0.07630  0.29095  0.50468  1.0000
  C   C179      1.0  0.22452  0.01905  0.53620  1.0000
  H   H256      1.0  0.18469  0.04801  0.52694  1.0000
  C   C180      1.0  0.30784  0.03799  0.52210  1.0000
  H   H257      1.0  0.02746  0.25763  0.51887  1.0000
  N   N16       1.0  0.10203  0.19009  0.55493  1.0000
  C   C181      1.0  0.11098  0.19204  0.54384  1.0000
  C   C182      1.0  0.09752  0.20106  0.55948  1.0000
  C   C183      1.0  0.10744  0.18051  0.56371  1.0000
  C   C184      1.0  0.09217  0.18671  0.55270  1.0000
  H   H258      1.0  0.11855  0.19460  0.54521  1.0000
  H   H259      1.0  0.10718  0.19923  0.53703  1.0000
  H   H260      1.0  0.11447  0.18397  0.54011  1.0000
  H   H261      1.0  0.09349  0.20850  0.55303  1.0000
  H   H262      1.0  0.09057  0.19998  0.56768  1.0000
  H   H263      1.0  0.10463  0.20380  0.56151  1.0000
  H   H264      1.0  0.11097  0.17212  0.56054  1.0000
  H   H265      1.0  0.10086  0.17870  0.57209  1.0000
  H   H266      1.0  0.11479  0.18281  0.56581  1.0000
  H   H267      1.0  0.09519  0.17843  0.54932  1.0000
  H   H268      1.0  0.08784  0.19369  0.54612  1.0000
  H   H269      1.0  0.08526  0.18525  0.56088  1.0000
  N   N17       1.0  0.06962  0.12493  0.59398  1.0000
  C   C185      1.0  0.07196  0.11603  0.60469  1.0000
  C   C186      1.0  0.07284  0.13589  0.59384  1.0000
  C   C187      1.0  0.05694  0.12748  0.59395  1.0000
  C   C188      1.0  0.07674  0.12032  0.58344  1.0000
  H   H270      1.0  0.06673  0.11923  0.61281  1.0000
  H   H271      1.0  0.08145  0.11391  0.60500  1.0000
  H   H272      1.0  0.06961  0.10765  0.60504  1.0000
  H   H273      1.0  0.06762  0.13973  0.60159  1.0000
  H   H274      1.0  0.08235  0.13440  0.59378  1.0000
  H   H275      1.0  0.07118  0.14276  0.58586  1.0000
  H   H276      1.0  0.05127  0.13069  0.60191  1.0000
  H   H277      1.0  0.05427  0.11953  0.59354  1.0000
  H   H278      1.0  0.05481  0.13439  0.58615  1.0000
  H   H279      1.0  0.07544  0.12694  0.57521  1.0000
  H   H280      1.0  0.07420  0.11233  0.58295  1.0000
  H   H281      1.0  0.08634  0.11800  0.58331  1.0000
  C   C189      1.0  0.09596  0.21947  0.50715  1.0000
  Fe  Fe37      1.0  0.16138  0.01446  0.51469  1.0000
  H   H282      1.0  0.02784  0.30171  0.54156  1.0000
  H   H283      1.0  0.06508  0.28547  0.50218  1.0000
  C   C190      1.0  0.30488  0.03629  0.53435  1.0000
  H   H284      1.0  0.11274  0.01696  0.50585  1.0000
  Fe  Fe38      1.0  0.15096  0.99681  0.50935  1.0000
  H   H285      1.0  0.03351  0.31902  0.52647  1.0000
  H   H286      1.0  0.26681  0.02964  0.53191  1.0000
  H   H287      1.0  0.06637  0.26403  0.50648  1.0000
  H   H288      1.0  0.03875  0.29158  0.53345  1.0000
  C   C191      1.0  0.31887  0.03227  0.51647  1.0000
  C   C192      1.0  0.08800  0.27011  0.51515  1.0000
  N   N18       1.0  0.01452  0.25799  0.57038  1.0000
  C   C193      1.0  0.00282  0.29935  0.55495  1.0000
  C   C194      1.0  0.22732  0.02097  0.58985  1.0000
  Fe  Fe39      1.0  0.26951  0.02080  0.58048  1.0000
  H   H289      1.0  0.04445  0.13409  0.53255  1.0000
  H   H290      1.0  0.15318  0.05615  0.54204  1.0000
  H   H291      1.0  0.02870  0.30452  0.50539  1.0000
  S   S77       1.0  0.20362  0.03527  0.53976  1.0000
  C   C195      1.0  0.10983  0.04267  0.50578  1.0000
  H   H292      1.0  0.23160  0.05658  0.56328  1.0000
  H   H293      1.0  0.28960  0.03915  0.50586  1.0000
  Fe  Fe40      1.0  0.28513  0.02812  0.55681  1.0000
  H   H294      1.0  0.23299  0.03277  0.50290  1.0000
  C   C196      1.0  0.02066  0.18393  0.53850  1.0000
  C   C197      1.0  0.02666  0.24887  0.52389  1.0000
  H   H295      1.0  0.28803  0.01018  0.52597  1.0000
  H   H296      1.0  0.09179  0.16250  0.50054  1.0000
  H   H297      1.0  0.02127  0.19280  0.53368  1.0000
  S   S78       1.0  0.26615  0.02732  0.56232  1.0000
  H   H298      1.0  0.21725  0.03748  0.57162  1.0000
  H   H299      1.0  0.21361  0.03934  0.55773  1.0000
  C   C198      1.0  0.09187  0.04221  0.52105  1.0000
  Fe  Fe41      1.0  0.17888  0.01692  0.57642  1.0000
  N   N19       1.0  0.04217  0.14898  0.51816  1.0000
  C   C199      1.0  0.23695  0.02986  0.55634  1.0000
  C   C200      1.0  0.10391  0.03747  0.51684  1.0000
  C   C201      1.0  0.02341  0.22681  0.53754  1.0000
  H   H300      1.0  0.08926  0.10090  0.50219  1.0000
  H   H301      1.0  0.10736  0.24688  0.50566  1.0000
  C   C202      1.0  0.23557  0.01464  0.52950  1.0000
  C   C203      1.0  0.03537  0.16133  0.51630  1.0000
  H   H302      1.0  0.05796  0.15312  0.51920  1.0000
  H   H303      1.0  0.13695  0.01275  0.58598  1.0000
  C   C204      1.0  0.00566  0.20206  0.56449  1.0000
  H   H304      1.0  0.02361  0.29068  0.53729  1.0000
  H   H305      1.0  0.00979  0.18195  0.52818  1.0000
  H   H306      1.0  0.00907  0.30584  0.52714  1.0000
  H   H307      1.0  0.00214  0.22523  0.55492  1.0000
  H   H308      1.0  0.08927  0.12663  0.49536  1.0000
  H   H309      1.0  0.04069  0.14627  0.50187  1.0000
  H   H310      1.0  0.31785  0.00181  0.53499  1.0000
  H   H311      1.0  0.09406  0.26127  0.51546  1.0000
  H   H312      1.0  0.04225  0.14805  0.53615  1.0000
  H   H313      1.0  0.00726  0.19262  0.56413  1.0000
  H   H314      1.0  0.01160  0.24614  0.56163  1.0000
  S   S79       1.0  0.07234  0.08944  0.50057  1.0000
  H   H315      1.0  0.01011  0.19557  0.49275  1.0000
  S   S80       1.0  0.02190  0.32611  0.54947  1.0000
  H   H316      1.0  0.08703  0.06514  0.49802  1.0000
  H   H317      1.0  0.02436  0.08277  0.50186  1.0000
  S   S81       1.0  0.27445  0.00168  0.57969  1.0000
  S   S82       1.0  0.26310  0.00196  0.55151  1.0000
  H   H318      1.0  0.09870  0.10766  0.50581  1.0000
  C   C205      1.0  0.13633  0.00683  0.57097  1.0000
  Fe  Fe42      1.0  0.20274  0.99995  0.57389  1.0000
  C   C206      1.0  0.00845  0.08350  0.49673  1.0000
  H   H319      1.0  0.01333  0.27197  0.57876  1.0000
  C   C207      1.0  0.11082  0.00990  0.50288  1.0000
  C   C208      1.0  0.32453  0.02417  0.53521  1.0000
  H   H320      1.0  0.00633  0.21133  0.54151  1.0000
  H   H321      1.0  0.00054  0.26565  0.58338  1.0000
  H   H322      1.0  0.01096  0.13045  0.51844  1.0000
  H   H323      1.0  0.99894  0.11575  0.52872  1.0000
  S   S83       1.0  0.00435  0.15914  0.53839  1.0000
  S   S84       1.0  0.00145  0.28331  0.54383  1.0000
  H   H324      1.0  0.00549  0.13725  0.53096  1.0000
  C   C209      1.0  0.07146  0.28370  0.50786  1.0000
  H   H325      1.0  0.00414  0.14602  0.51662  1.0000
  H   H326      1.0  0.02055  0.26870  0.55351  1.0000
  C   C210      1.0  0.99990  0.31041  0.55780  1.0000
  S   S85       1.0  0.13264  0.00384  0.51901  1.0000
  C   C211      1.0  0.02410  0.26166  0.56055  1.0000
  H   H327      1.0  0.01637  0.27210  0.49700  1.0000
  H   H328      1.0  0.10490  0.09531  0.49868  1.0000
  H   H329      1.0  0.27982  0.04294  0.51903  1.0000
  C   C212      1.0  0.20851  0.02423  0.49316  1.0000
  H   H330      1.0  0.26264  0.99688  0.52969  1.0000
  C   C213      1.0  0.32180  0.99489  0.57427  1.0000
  H   H331      1.0  0.17219  0.99529  0.57889  1.0000
  C   C214      1.0  0.04238  0.41041  0.22517  1.0000
  C   C215      1.0  0.99864  0.52303  0.23392  1.0000
  H   H332      1.0  0.05215  0.44025  0.15514  1.0000
  Fe  Fe43      1.0  0.30478  0.46697  0.03222  1.0000
  S   S86       1.0  0.30515  0.48166  0.03993  1.0000
  S   S87       1.0  0.29219  0.46976  0.02073  1.0000
  S   S88       1.0  0.16088  0.58950  0.01102  1.0000
  N   N20       1.0  0.24009  0.56854  0.00378  1.0000
  Fe  Fe44      1.0  0.30887  0.46727  0.05554  1.0000
  S   S89       1.0  0.29956  0.46871  0.07414  1.0000
  H   H333      1.0  0.21583  0.46753  0.00301  1.0000
  S   S90       1.0  0.30710  0.45276  0.04829  1.0000
  C   C216      1.0  0.17406  0.50934  0.01171  1.0000
  Fe  Fe45      1.0  0.26137  0.54931  0.04168  1.0000
  S   S91       1.0  0.25164  0.53581  0.05389  1.0000
  S   S92       1.0  0.25324  0.56857  0.04013  1.0000
  Fe  Fe46      1.0  0.28334  0.53136  0.03426  1.0000
  S   S93       1.0  0.27549  0.51626  0.04562  1.0000
  S   S94       1.0  0.30133  0.52670  0.02284  1.0000
  Fe  Fe47      1.0  0.25908  0.52605  0.03930  1.0000
  S   S95       1.0  0.24912  0.51544  0.03492  1.0000
  Fe  Fe48      1.0  0.26887  0.52736  0.05918  1.0000
  S   S96       1.0  0.26920  0.51954  0.07812  1.0000
  S   S97       1.0  0.26747  0.54027  0.02649  1.0000
  S   S98       1.0  0.27805  0.54173  0.04837  1.0000
  Fe  Fe49      1.0  0.19134  0.57193  0.03517  1.0000
  H   H334      1.0  0.07209  0.53974  0.04818  1.0000
  S   S99       1.0  0.19815  0.58134  0.04455  1.0000
  Fe  Fe50      1.0  0.17962  0.55240  0.03682  1.0000
  H   H335      1.0  0.01149  0.49484  0.23117  1.0000
  S   S100      1.0  0.17344  0.53660  0.04883  1.0000
  C   C217      1.0  0.20977  0.45134  0.00796  1.0000
  H   H336      1.0  0.24122  0.47630  0.00003  1.0000
  H   H337      1.0  0.00781  0.45198  0.21301  1.0000
  N   N21       1.0  0.32149  0.57418  0.00206  1.0000
  S   S101      1.0  0.19850  0.55292  0.03444  1.0000
  S   S102      1.0  0.17233  0.57097  0.03925  1.0000
  Fe  Fe51      1.0  0.04499  0.50629  0.21408  1.0000
  S   S103      1.0  0.06398  0.50663  0.21116  1.0000
  H   H338      1.0  0.01636  0.48407  0.10733  1.0000
  H   H339      1.0  0.01139  0.46859  0.13666  1.0000
  S   S104      1.0  0.05751  0.53229  0.19289  1.0000
  Fe  Fe52      1.0  0.06302  0.51317  0.19220  1.0000
  S   S105      1.0  0.07624  0.50649  0.17713  1.0000
  Fe  Fe53      1.0  0.05664  0.52569  0.21225  1.0000
  S   S106      1.0  0.06226  0.53593  0.22181  1.0000
  H   H340      1.0  0.31056  0.51345  0.04769  1.0000
  H   H341      1.0  0.04217  0.47868  0.08264  1.0000
  Fe  Fe54      1.0  0.22366  0.48467  0.02243  1.0000
  S   S107      1.0  0.22363  0.48373  0.04107  1.0000
  H   H342      1.0  0.04262  0.49399  0.07695  1.0000
  Fe  Fe55      1.0  0.21251  0.46354  0.02877  1.0000
  S   S108      1.0  0.21184  0.46064  0.04804  1.0000
  S   S109      1.0  0.20559  0.45113  0.02307  1.0000
  Fe  Fe56      1.0  0.20556  0.48026  0.04498  1.0000
  S   S110      1.0  0.19042  0.48960  0.05699  1.0000
  Fe  Fe57      1.0  0.22996  0.46431  0.04220  1.0000
  S   S111      1.0  0.24517  0.45444  0.05071  1.0000
  S   S112      1.0  0.20488  0.48306  0.02607  1.0000
  S   S113      1.0  0.23125  0.46531  0.02321  1.0000
  Fe  Fe58      1.0  0.07185  0.48673  0.12044  1.0000
  C   C218      1.0  0.27112  0.48741  0.04720  1.0000
  S   S114      1.0  0.09023  0.47580  0.12106  1.0000
  Fe  Fe59      1.0  0.05747  0.50194  0.10279  1.0000
  C   C219      1.0  0.20841  0.50504  0.06239  1.0000
  S   S115      1.0  0.05490  0.50891  0.08425  1.0000
  H   H343      1.0  0.03229  0.56319  0.17298  1.0000
  N   N22       1.0  0.20645  0.51627  0.05367  1.0000
  N   N23       1.0  0.04463  0.56046  0.15678  1.0000
  S   S116      1.0  0.07033  0.50566  0.11072  1.0000
  S   S117      1.0  0.06013  0.48269  0.11126  1.0000
  Fe  Fe60      1.0  0.11347  0.49742  0.03882  1.0000
  S   S118      1.0  0.12949  0.48304  0.03486  1.0000
  S   S119      1.0  0.09495  0.49614  0.04040  1.0000
  Fe  Fe61      1.0  0.12746  0.51416  0.03927  1.0000
  S   S120      1.0  0.14476  0.50134  0.03579  1.0000
  S   S121      1.0  0.12565  0.53273  0.04059  1.0000
  Fe  Fe62      1.0  0.13770  0.49752  0.02231  1.0000
  H   H344      1.0  0.24352  0.51679  0.99616  1.0000
  Fe  Fe63      1.0  0.13523  0.48797  0.04853  1.0000
  S   S122      1.0  0.14406  0.47348  0.06129  1.0000
  S   S123      1.0  0.12107  0.51148  0.02476  1.0000
  S   S124      1.0  0.11859  0.50119  0.05355  1.0000
  H   H345      1.0  0.28993  0.49650  0.00808  1.0000
  C   C220      1.0  0.07694  0.53439  0.05515  1.0000
  C   C221      1.0  0.10775  0.47042  0.17846  1.0000
  C   C222      1.0  0.24488  0.54522  0.08446  1.0000
  H   H346      1.0  0.23667  0.54352  0.09097  1.0000
  Fe  Fe64      1.0  0.08266  0.43970  0.18190  1.0000
  S   S125      1.0  0.09885  0.44621  0.17112  1.0000
  C   C223      1.0  0.32047  0.50051  0.06593  1.0000
  H   H347      1.0  0.07544  0.52531  0.05724  1.0000
  C   C224      1.0  0.09251  0.46802  0.13515  1.0000
  C   C225      1.0  0.10396  0.46218  0.13659  1.0000
  C   C226      1.0  0.10591  0.45569  0.14769  1.0000
  C   C227      1.0  0.09641  0.45491  0.15739  1.0000
  C   C228      1.0  0.08502  0.46105  0.15604  1.0000
  C   C229      1.0  0.08307  0.46749  0.14494  1.0000
  H   H348      1.0  0.11134  0.46255  0.12913  1.0000
  H   H349      1.0  0.11474  0.45102  0.14869  1.0000
  H   H350      1.0  0.07769  0.46093  0.16355  1.0000
  H   H351      1.0  0.07422  0.47183  0.14396  1.0000
  C   C230      1.0  0.06636  0.50468  0.07259  1.0000
  C   C231      1.0  0.07806  0.50003  0.07380  1.0000
  C   C232      1.0  0.08702  0.49733  0.06397  1.0000
  C   C233      1.0  0.08420  0.49913  0.05304  1.0000
  C   C234      1.0  0.07247  0.50356  0.05199  1.0000
  C   C235      1.0  0.06362  0.50645  0.06167  1.0000
  H   H352      1.0  0.08019  0.49864  0.08226  1.0000
  H   H353      1.0  0.09603  0.49367  0.06487  1.0000
  H   H354      1.0  0.07024  0.50492  0.04358  1.0000
  H   H355      1.0  0.05462  0.51009  0.06066  1.0000
  C   C236      1.0  0.17764  0.48445  0.05925  1.0000
  C   C237      1.0  0.16664  0.49141  0.06330  1.0000
  C   C238      1.0  0.15626  0.48803  0.06402  1.0000
  C   C239      1.0  0.15692  0.47726  0.06143  1.0000
  C   C240      1.0  0.16793  0.46991  0.05810  1.0000
  C   C241      1.0  0.17829  0.47366  0.05667  1.0000
  H   H356      1.0  0.16617  0.49948  0.06575  1.0000
  H   H357      1.0  0.14777  0.49371  0.06666  1.0000
  H   H358      1.0  0.16845  0.46151  0.05624  1.0000
  H   H359      1.0  0.18675  0.46815  0.05369  1.0000
  C   C242      1.0  0.06805  0.52753  0.23408  1.0000
  C   C243      1.0  0.00791  0.50442  0.22813  1.0000
  C   C244      1.0  0.23469  0.52032  0.00061  1.0000
  H   H360      1.0  0.05107  0.40826  0.19856  1.0000
  H   H361      1.0  0.07138  0.51085  0.22929  1.0000
  C   C245      1.0  0.24057  0.56522  0.08704  1.0000
  H   H362      1.0  0.15423  0.46023  0.02678  1.0000
  H   H363      1.0  0.03190  0.54982  0.16077  1.0000
  C   C246      1.0  0.18011  0.46878  0.01348  1.0000
  S   S126      1.0  0.05390  0.42992  0.19880  1.0000
  H   H364      1.0  0.25220  0.54230  0.08923  1.0000
  C   C247      1.0  0.04929  0.47496  0.19711  1.0000
  C   C248      1.0  0.04839  0.48128  0.20555  1.0000
  C   C249      1.0  0.02684  0.51235  0.16552  1.0000
  C   C250      1.0  0.02738  0.49471  0.15951  1.0000
  H   H365      1.0  0.05738  0.47344  0.19054  1.0000
  H   H366      1.0  0.05584  0.48457  0.20552  1.0000
  C   C251      1.0  0.06938  0.51142  0.16516  1.0000
  H   H367      1.0  0.27011  0.45673  0.00537  1.0000
  H   H368      1.0  0.03401  0.45646  0.15678  1.0000
  H   H369      1.0  0.19774  0.52377  0.03921  1.0000
  C   C252      1.0  0.06828  0.51057  0.14572  1.0000
  C   C253      1.0  0.07418  0.50675  0.15503  1.0000
  H   H370      1.0  0.03224  0.40176  0.20736  1.0000
  H   H371      1.0  0.23879  0.55096  0.00460  1.0000
  H   H372      1.0  0.07200  0.50697  0.13788  1.0000
  H   H373      1.0  0.08238  0.50017  0.15438  1.0000
  C   C254      1.0  0.24287  0.57898  0.99470  1.0000
  C   C255      1.0  0.00665  0.45403  0.22147  1.0000
  H   H374      1.0  0.02586  0.42854  0.15806  1.0000
  H   H375      1.0  0.02152  0.49846  0.07569  1.0000
  C   C256      1.0  0.21640  0.51727  0.01424  1.0000
  H   H376      1.0  0.28926  0.51734  0.00716  1.0000
  H   H377      1.0  0.03012  0.56242  0.14888  1.0000
  H   H378      1.0  0.16805  0.56988  0.99934  1.0000
  H   H379      1.0  0.21095  0.51134  0.01995  1.0000
  H   H380      1.0  0.20350  0.53325  0.01750  1.0000
  C   C257      1.0  0.15958  0.53612  0.04741  1.0000
  C   C258      1.0  0.15585  0.52551  0.05177  1.0000
  C   C259      1.0  0.14537  0.52447  0.04980  1.0000
  C   C260      1.0  0.13841  0.53420  0.04367  1.0000
  C   C261      1.0  0.14190  0.54498  0.03964  1.0000
  C   C262      1.0  0.15257  0.54592  0.04139  1.0000
  H   H381      1.0  0.16125  0.51804  0.05646  1.0000
  H   H382      1.0  0.14265  0.51617  0.05308  1.0000
  H   H383      1.0  0.13654  0.55253  0.03488  1.0000
  H   H384      1.0  0.15539  0.55418  0.03801  1.0000
  H   H385      1.0  0.21673  0.52704  0.03965  1.0000
  H   H386      1.0  0.21385  0.50528  0.06830  1.0000
  H   H387      1.0  0.17170  0.47759  0.03307  1.0000
  C   C263      1.0  0.04624  0.43415  0.15664  1.0000
  S   S127      1.0  0.32855  0.46422  0.04929  1.0000
  H   H388      1.0  0.24759  0.56292  0.09211  1.0000
  S   S128      1.0  0.23321  0.49744  0.00867  1.0000
  C   C264      1.0  0.05367  0.40317  0.18223  1.0000
  H   H389      1.0  0.30656  0.58610  0.01012  1.0000
  C   C265      1.0  0.03269  0.39527  0.19240  1.0000
  S   S129      1.0  0.03096  0.47832  0.13531  1.0000
  C   C266      1.0  0.23799  0.57193  0.04112  1.0000
  C   C267      1.0  0.23142  0.58318  0.04251  1.0000
  C   C268      1.0  0.21917  0.58594  0.04367  1.0000
  C   C269      1.0  0.21348  0.57756  0.04317  1.0000
  C   C270      1.0  0.22007  0.56631  0.04173  1.0000
  C   C271      1.0  0.23232  0.56346  0.04078  1.0000
  H   H390      1.0  0.23577  0.58975  0.04278  1.0000
  H   H391      1.0  0.21408  0.59465  0.04481  1.0000
  H   H392      1.0  0.21571  0.55974  0.04155  1.0000
  H   H393      1.0  0.23734  0.55475  0.03970  1.0000
  H   H394      1.0  0.15786  0.47315  0.03726  1.0000
  C   C272      1.0  0.21792  0.51862  0.04633  1.0000
  C   C273      1.0  0.31557  0.56417  0.00639  1.0000
  H   H395      1.0  0.25123  0.53461  0.01508  1.0000
  H   H396      1.0  0.04483  0.48518  0.17117  1.0000
  C   C274      1.0  0.32058  0.54296  0.03328  1.0000
  C   C275      1.0  0.31104  0.53909  0.03230  1.0000
  C   C276      1.0  0.31271  0.53232  0.02405  1.0000
  S   S130      1.0  0.17998  0.55657  0.01754  1.0000
  H   H397      1.0  0.01055  0.49438  0.08859  1.0000
  H   H398      1.0  0.24808  0.57172  0.01606  1.0000
  H   H399      1.0  0.30248  0.54130  0.03796  1.0000
  H   H400      1.0  0.07282  0.53806  0.06321  1.0000
  H   H401      1.0  0.01274  0.49882  0.18033  1.0000
  C   C277      1.0  0.27941  0.46461  0.02843  1.0000
  C   C278      1.0  0.26872  0.47045  0.02512  1.0000
  C   C279      1.0  0.25818  0.46728  0.03190  1.0000
  C   C280      1.0  0.25837  0.45798  0.04178  1.0000
  C   C281      1.0  0.26911  0.45197  0.04494  1.0000
  C   C282      1.0  0.27961  0.45532  0.03831  1.0000
  H   H402      1.0  0.26854  0.47772  0.01756  1.0000
  H   H403      1.0  0.24988  0.47224  0.02962  1.0000
  H   H404      1.0  0.26928  0.44479  0.05261  1.0000
  H   H405      1.0  0.28785  0.45064  0.04081  1.0000
  C   C283      1.0  0.29214  0.48301  0.07597  1.0000
  C   C284      1.0  0.29453  0.49277  0.06713  1.0000
  C   C285      1.0  0.28810  0.50413  0.06832  1.0000
  C   C286      1.0  0.27895  0.50574  0.07817  1.0000
  C   C287      1.0  0.27683  0.49605  0.08727  1.0000
  C   C288      1.0  0.28348  0.48467  0.08619  1.0000
  H   H406      1.0  0.30133  0.49154  0.05938  1.0000
  H   H407      1.0  0.29006  0.51165  0.06148  1.0000
  H   H408      1.0  0.26977  0.49725  0.09493  1.0000
  H   H409      1.0  0.28166  0.47712  0.09310  1.0000
  S   S131      1.0  0.01666  0.43091  0.22885  1.0000
  H   H410      1.0  0.05679  0.56179  0.13996  1.0000
  C   C289      1.0  0.03905  0.39345  0.18123  1.0000
  C   C290      1.0  0.17564  0.45498  0.03194  1.0000
  C   C291      1.0  0.03744  0.56819  0.16500  1.0000
  C   C292      1.0  0.16516  0.47531  0.02966  1.0000
  Fe  Fe65      1.0  0.06741  0.42296  0.18400  1.0000
  H   H411      1.0  0.23213  0.56415  0.09348  1.0000
  N   N24       1.0  0.11555  0.47540  0.08986  1.0000
  C   C293      1.0  0.11574  0.46627  0.10085  1.0000
  C   C294      1.0  0.11632  0.46991  0.08009  1.0000
  C   C295      1.0  0.12571  0.48093  0.08717  1.0000
  C   C296      1.0  0.10445  0.48449  0.09136  1.0000
  H   H412      1.0  0.11534  0.47012  0.10834  1.0000
  H   H413      1.0  0.12390  0.45915  0.10000  1.0000
  H   H414      1.0  0.10801  0.46211  0.10337  1.0000
  H   H415      1.0  0.12462  0.46302  0.07871  1.0000
  H   H416      1.0  0.10877  0.46567  0.08182  1.0000
  H   H417      1.0  0.11632  0.47652  0.07162  1.0000
  H   H418      1.0  0.12605  0.48767  0.07878  1.0000
  H   H419      1.0  0.13424  0.47427  0.08617  1.0000
  H   H420      1.0  0.12533  0.48531  0.09428  1.0000
  H   H421      1.0  0.10400  0.49154  0.08326  1.0000
  H   H422      1.0  0.10353  0.48871  0.09877  1.0000
  H   H423      1.0  0.09659  0.48058  0.09351  1.0000
  H   H424      1.0  0.02789  0.44197  0.18153  1.0000
  H   H425      1.0  0.10048  0.46030  0.20127  1.0000
  N   N25       1.0  0.26287  0.48442  0.05857  1.0000
  C   C297      1.0  0.04233  0.49500  0.16902  1.0000
  C   C298      1.0  0.23397  0.56111  0.07185  1.0000
  H   H426      1.0  0.22546  0.56374  0.01746  1.0000
  N   N26       1.0  0.08967  0.53433  0.05130  1.0000
  C   C299      1.0  0.09473  0.52921  0.04071  1.0000
  H   H427      1.0  0.01792  0.49755  0.15907  1.0000
  C   C300      1.0  0.09136  0.54652  0.04846  1.0000
  C   C301      1.0  0.09570  0.52715  0.06085  1.0000
  H   H428      1.0  0.10425  0.52933  0.03739  1.0000
  H   H429      1.0  0.09021  0.53418  0.03341  1.0000
  H   H430      1.0  0.09397  0.51988  0.04257  1.0000
  N   N27       1.0  0.32665  0.50522  0.05388  1.0000
  H   H431      1.0  0.01735  0.51591  0.16530  1.0000
  C   C302      1.0  0.08749  0.43320  0.23813  1.0000
  C   C303      1.0  0.01523  0.53537  0.18644  1.0000
  H   H432      1.0  0.08764  0.55069  0.05623  1.0000
  H   H433      1.0  0.10092  0.54670  0.04559  1.0000
  H   H434      1.0  0.30976  0.56445  0.00060  1.0000
  H   H435      1.0  0.10534  0.52692  0.05823  1.0000
  H   H436      1.0  0.09466  0.51789  0.06316  1.0000
  S   S132      1.0  0.02599  0.54212  0.18719  1.0000
  S   S133      1.0  0.01854  0.39251  0.19796  1.0000
  H   H437      1.0  0.03561  0.38942  0.17635  1.0000
  H   H438      1.0  0.04306  0.57206  0.16808  1.0000
  C   C304      1.0  0.09519  0.48332  0.19125  1.0000
  C   C305      1.0  0.26049  0.49365  0.06530  1.0000
  Fe  Fe66      1.0  0.00723  0.42665  0.21764  1.0000
  H   H439      1.0  0.01851  0.43205  0.17213  1.0000
  H   H440      1.0  0.22536  0.55988  0.07784  1.0000
  H   H441      1.0  0.04530  0.43372  0.14791  1.0000
  H   H442      1.0  0.10953  0.47806  0.17114  1.0000
  C   C306      1.0  0.21915  0.53721  0.00493  1.0000
  C   C307      1.0  0.25493  0.51570  0.01989  1.0000
  H   H443      1.0  0.99823  0.47214  0.21605  1.0000
  H   H444      1.0  0.10168  0.48110  0.19688  1.0000
  H   H445      1.0  0.25776  0.56217  0.00663  1.0000
  H   H446      1.0  0.09697  0.49119  0.18424  1.0000
  H   H447      1.0  0.04524  0.57475  0.14159  1.0000
  S   S134      1.0  0.06714  0.42044  0.22515  1.0000
  H   H448      1.0  0.04823  0.54527  0.17053  1.0000
  C   C308      1.0  0.26633  0.50560  0.00412  1.0000
  C   C309      1.0  0.03642  0.43872  0.17565  1.0000
  C   C310      1.0  0.02733  0.42939  0.16642  1.0000
  H   H449      1.0  0.05857  0.44612  0.22448  1.0000
  C   C311      1.0  0.01415  0.49707  0.12705  1.0000
  H   H450      1.0  0.01067  0.54830  0.17122  1.0000
  S   S135      1.0  0.01545  0.42444  0.19923  1.0000
  H   H451      1.0  0.04443  0.49818  0.17582  1.0000
  C   C312      1.0  0.20015  0.52589  0.05999  1.0000
  H   H452      1.0  0.21295  0.49751  0.05805  1.0000
  H   H453      1.0  0.19820  0.53446  0.05379  1.0000
  H   H454      1.0  0.19145  0.52431  0.06555  1.0000
  H   H455      1.0  0.20537  0.52687  0.06575  1.0000
  H   H456      1.0  0.22372  0.51922  0.05172  1.0000
  H   H457      1.0  0.23594  0.55573  0.06512  1.0000
  H   H458      1.0  0.09462  0.45516  0.19207  1.0000
  C   C313      1.0  0.31250  0.58538  0.00135  1.0000
  S   S136      1.0  0.08286  0.42095  0.19169  1.0000
  C   C314      1.0  0.00918  0.47797  0.13303  1.0000
  N   N28       1.0  0.09591  0.47330  0.18612  1.0000
  C   C315      1.0  0.01996  0.49173  0.08400  1.0000
  H   H459      1.0  0.04815  0.49805  0.16043  1.0000
  H   H460      1.0  0.03445  0.39102  0.22760  1.0000
  H   H461      1.0  0.16546  0.45507  0.01487  1.0000
  H   H462      1.0  0.22283  0.51153  0.04138  1.0000
  H   H463      1.0  0.31929  0.54819  0.03968  1.0000
  S   S137      1.0  0.05730  0.49061  0.13600  1.0000
  H   H464      1.0  0.01777  0.52122  0.20147  1.0000
  H   H465      1.0  0.01994  0.45297  0.16412  1.0000
  C   C316      1.0  0.01712  0.48496  0.13173  1.0000
  C   C317      1.0  0.02231  0.49519  0.18016  1.0000
  C   C318      1.0  0.25546  0.52651  0.01205  1.0000
  C   C319      1.0  0.03712  0.40049  0.19869  1.0000
  C   C320      1.0  0.26339  0.47885  0.99348  1.0000
  C   C321      1.0  0.19923  0.51550  0.04601  1.0000
  H   H466      1.0  0.19988  0.50302  0.06796  1.0000
  H   H467      1.0  0.19038  0.51406  0.05119  1.0000
  H   H468      1.0  0.20350  0.50806  0.04143  1.0000
  C   C322      1.0  0.02568  0.48181  0.10244  1.0000
  H   H469      1.0  0.25400  0.56888  0.06501  1.0000
  H   H470      1.0  0.25770  0.45150  0.00493  1.0000
  S   S138      1.0  0.06841  0.44092  0.17291  1.0000
  H   H471      1.0  0.16345  0.53384  0.02330  1.0000
  H   H472      1.0  0.03154  0.42046  0.17093  1.0000
  H   H473      1.0  0.23956  0.57474  0.08267  1.0000
  N   N29       1.0  0.24352  0.55777  0.07834  1.0000
  H   H474      1.0  0.26216  0.55712  0.07449  1.0000
  H   H475      1.0  0.20414  0.43535  0.01008  1.0000
  H   H476      1.0  0.08622  0.48606  0.19673  1.0000
  H   H477      1.0  0.00227  0.51204  0.20020  1.0000
  H   H478      1.0  0.02777  0.46171  0.23475  1.0000
  H   H479      1.0  0.25718  0.55404  0.06330  1.0000
  H   H480      1.0  0.24702  0.53933  0.07817  1.0000
  C   C323      1.0  0.29684  0.51710  0.99941  1.0000
  H   H481      1.0  0.04066  0.42994  0.18038  1.0000
  C   C324      1.0  0.17636  0.51184  0.03000  1.0000
  H   H482      1.0  0.08851  0.48386  0.17135  1.0000
  H   H483      1.0  0.23277  0.57051  0.06706  1.0000
  C   C325      1.0  0.25471  0.55955  0.06996  1.0000
  C   C326      1.0  0.03795  0.48318  0.21411  1.0000
  H   H484      1.0  0.16142  0.53150  0.01009  1.0000
  H   H485      1.0  0.02434  0.49792  0.18731  1.0000
  C   C327      1.0  0.04765  0.40434  0.19365  1.0000
  H   H486      1.0  0.05874  0.54494  0.15675  1.0000
  H   H487      1.0  0.11482  0.46783  0.18348  1.0000
  H   H488      1.0  0.10860  0.46296  0.17435  1.0000
  S   S139      1.0  0.03692  0.49117  0.22454  1.0000
  C   C328      1.0  0.99978  0.46819  0.23406  1.0000
  C   C329      1.0  0.26137  0.52688  0.00028  1.0000
  S   S140      1.0  0.07069  0.44775  0.19691  1.0000
  H   H489      1.0  0.02170  0.46966  0.20539  1.0000
  S   S141      1.0  0.04466  0.51096  0.19503  1.0000
  H   H490      1.0  0.04214  0.44491  0.17436  1.0000
  S   S142      1.0  0.03754  0.52480  0.21671  1.0000
  H   H491      1.0  0.01992  0.50262  0.12646  1.0000
  S   S143      1.0  0.04997  0.52374  0.13527  1.0000
  H   H492      1.0  0.18050  0.44748  0.02754  1.0000
  H   H493      1.0  0.30687  0.58603  0.99521  1.0000
  C   C330      1.0  0.08683  0.47655  0.17908  1.0000
  H   H494      1.0  0.02712  0.44960  0.14995  1.0000
  H   H495      1.0  0.25452  0.49158  0.07405  1.0000
  H   H496      1.0  0.09286  0.43970  0.23516  1.0000
  C   C331      1.0  0.05878  0.51992  0.16591  1.0000
  H   H497      1.0  0.27675  0.47312  0.06704  1.0000
  H   H498      1.0  0.25312  0.47678  0.05149  1.0000
  N   N30       1.0  0.02972  0.49931  0.16855  1.0000
  H   H499      1.0  0.32516  0.52416  0.01050  1.0000
  H   H500      1.0  0.02073  0.51289  0.23725  1.0000
  C   C332      1.0  0.07495  0.42284  0.23420  1.0000
  Fe  Fe67      1.0  0.06941  0.42911  0.20589  1.0000
  C   C333      1.0  0.05128  0.56741  0.14632  1.0000
  Fe  Fe68      1.0  0.99790  0.43428  0.19525  1.0000
  C   C334      1.0  0.08196  0.43119  0.23028  1.0000
  H   H501      1.0  0.07784  0.47952  0.18436  1.0000
  C   C335      1.0  0.22792  0.57156  0.01076  1.0000
  H   H502      1.0  0.08308  0.43610  0.22126  1.0000
  C   C336      1.0  0.02832  0.47898  0.21406  1.0000
  H   H503      1.0  0.22136  0.57460  0.00508  1.0000
  H   H504      1.0  0.30231  0.50170  0.01852  1.0000
  C   C337      1.0  0.00413  0.51994  0.19389  1.0000
  C   C338      1.0  0.00896  0.54033  0.17749  1.0000
  H   H505      1.0  0.00076  0.50514  0.22374  1.0000
  H   H506      1.0  0.12911  0.48862  0.00738  1.0000
  H   H507      1.0  0.08666  0.46899  0.17566  1.0000
  S   S144      1.0  0.04175  0.50734  0.11679  1.0000
  H   H508      1.0  0.25964  0.49684  0.02193  1.0000
  H   H509      1.0  0.31509  0.50725  0.01024  1.0000
  H   H510      1.0  0.26726  0.49581  0.04164  1.0000
  H   H511      1.0  0.31712  0.49870  0.04541  1.0000
  N   N31       1.0  0.17448  0.51798  0.01807  1.0000
  C   C339      1.0  0.09389  0.46294  0.19568  1.0000
  C   C340      1.0  0.05291  0.52369  0.15667  1.0000
  H   H512      1.0  0.02020  0.48040  0.22059  1.0000
  Fe  Fe69      1.0  0.04534  0.48837  0.12601  1.0000
  Fe  Fe70      1.0  0.05482  0.50918  0.12558  1.0000
  H   H513      1.0  0.27338  0.48049  0.04204  1.0000
  H   H514      1.0  0.08493  0.46475  0.20145  1.0000
  C   C341      1.0  0.05767  0.51909  0.14655  1.0000
  C   C342      1.0  0.26011  0.50521  0.01587  1.0000
  H   H515      1.0  0.32381  0.43973  0.02094  1.0000
  S   S145      1.0  0.06584  0.40953  0.17522  1.0000
  H   H516      1.0  0.05510  0.52366  0.17360  1.0000
  H   H517      1.0  0.27950  0.48836  0.04852  1.0000
  C   C343      1.0  0.02913  0.47291  0.20545  1.0000
  C   C344      1.0  0.03679  0.55541  0.15309  1.0000
  C   C345      1.0  0.26722  0.51647  0.99637  1.0000
  C   C346      1.0  0.25168  0.48373  0.05642  1.0000
  H   H518      1.0  0.24521  0.48154  0.06480  1.0000
  H   H519      1.0  0.03100  0.57556  0.16083  1.0000
  H   H520      1.0  0.32049  0.54207  0.99503  1.0000
  H   H521      1.0  0.24755  0.49218  0.05108  1.0000
  C   C347      1.0  0.02868  0.44976  0.15852  1.0000
  H   H522      1.0  0.04189  0.54977  0.14663  1.0000
  C   C348      1.0  0.04043  0.48730  0.08514  1.0000
  H   H523      1.0  0.09210  0.53076  0.06898  1.0000
  C   C349      1.0  0.03964  0.47079  0.19708  1.0000
  H   H524      1.0  0.18701  0.47106  0.01636  1.0000
  Fe  Fe71      1.0  0.05644  0.44770  0.18846  1.0000
  C   C350      1.0  0.99789  0.52493  0.18488  1.0000
  C   C351      1.0  0.26824  0.47291  0.06533  1.0000
  S   S146      1.0  0.32390  0.46399  0.02381  1.0000
  H   H525      1.0  0.05886  0.55427  0.16595  1.0000
  C   C352      1.0  0.05299  0.55083  0.16274  1.0000
  H   H526      1.0  0.26231  0.47033  0.07399  1.0000
  S   S147      1.0  0.04080  0.46269  0.18675  1.0000
  H   H527      1.0  0.05916  0.39680  0.23641  1.0000
  H   H528      1.0  0.26879  0.49453  0.06687  1.0000
  H   H529      1.0  0.25634  0.50241  0.06046  1.0000
  H   H530      1.0  0.03209  0.51576  0.15670  1.0000
  C   C353      1.0  0.04953  0.39745  0.17612  1.0000
  H   H531      1.0  0.27014  0.46575  0.06048  1.0000
  Fe  Fe72      1.0  0.00762  0.40852  0.20472  1.0000
  N   N32       1.0  0.03466  0.43801  0.16430  1.0000
  C   C354      1.0  0.16162  0.46260  0.01938  1.0000
  Fe  Fe73      1.0  0.19819  0.55888  0.01541  1.0000
  N   N33       1.0  0.02807  0.49079  0.09151  1.0000
  H   H532      1.0  0.05731  0.57131  0.14878  1.0000
  C   C355      1.0  0.18427  0.52391  0.01157  1.0000
  C   C356      1.0  0.32387  0.52943  0.01684  1.0000
  H   H533      1.0  0.04454  0.52997  0.15751  1.0000
  H   H534      1.0  0.05426  0.39641  0.16732  1.0000
  Fe  Fe74      1.0  0.03912  0.52956  0.19720  1.0000
  H   H535      1.0  0.02976  0.48487  0.16136  1.0000
  H   H536      1.0  0.16864  0.45191  0.03943  1.0000
  H   H537      1.0  0.05015  0.38726  0.22621  1.0000
  H   H538      1.0  0.32103  0.52334  0.05553  1.0000
  H   H539      1.0  0.03204  0.50187  0.10032  1.0000
  H   H540      1.0  0.17689  0.51811  0.03496  1.0000
  Fe  Fe75      1.0  0.17428  0.57538  0.01964  1.0000
  C   C357      1.0  0.01066  0.44534  0.23065  1.0000
  H   H541      1.0  0.16902  0.50747  0.03530  1.0000
  N   N34       1.0  0.17064  0.46540  0.02361  1.0000
  H   H542      1.0  0.06594  0.54269  0.24121  1.0000
  C   C358      1.0  0.20787  0.44241  0.00388  1.0000
  H   H543      1.0  0.01505  0.50811  0.22139  1.0000
  H   H544      1.0  0.31824  0.44914  0.00843  1.0000
  H   H545      1.0  0.32581  0.49923  0.07249  1.0000
  H   H546      1.0  0.32341  0.57391  0.01929  1.0000
  H   H547      1.0  0.24659  0.55683  0.01855  1.0000
  H   H548      1.0  0.18472  0.50496  0.02966  1.0000
  C   C359      1.0  0.05073  0.45335  0.22638  1.0000
  H   H549      1.0  0.05087  0.42521  0.16066  1.0000
  C   C360      1.0  0.04155  0.38993  0.23228  1.0000
  H   H550      1.0  0.25810  0.48295  0.00107  1.0000
  C   C361      1.0  0.16324  0.52693  0.01895  1.0000
  C   C362      1.0  0.01292  0.52508  0.19457  1.0000
  C   C363      1.0  0.24850  0.56466  0.01160  1.0000
  H   H551      1.0  0.16143  0.48334  0.02362  1.0000
  H   H552      1.0  0.15770  0.47027  0.01302  1.0000
  H   H553      1.0  0.18463  0.46143  0.00881  1.0000
  H   H554      1.0  0.23594  0.53832  0.99310  1.0000
  H   H555      1.0  0.19286  0.51745  0.00994  1.0000
  H   H556      1.0  0.04519  0.45457  0.21999  1.0000
  H   H557      1.0  0.18203  0.45698  0.03576  1.0000
  S   S148      1.0  0.19268  0.57808  0.01576  1.0000
  H   H558      1.0  0.27286  0.47661  0.99393  1.0000
  H   H559      1.0  0.30184  0.52355  0.99940  1.0000
  H   H560      1.0  0.30277  0.48759  0.00056  1.0000
  H   H561      1.0  0.25548  0.46313  0.01229  1.0000
  N   N35       1.0  0.30442  0.50509  0.99979  1.0000
  H   H562      1.0  0.17658  0.47658  0.00699  1.0000
  H   H563      1.0  0.02872  0.51609  0.17206  1.0000
  C   C364      1.0  0.21454  0.46048  0.99993  1.0000
  H   H564      1.0  0.02376  0.48540  0.18241  1.0000
  C   C365      1.0  0.00117  0.46545  0.22321  1.0000
  H   H565      1.0  0.08705  0.55216  0.04119  1.0000
  C   C366      1.0  0.31910  0.50709  0.04554  1.0000
  S   S149      1.0  0.15066  0.49591  0.00501  1.0000
  S   S150      1.0  0.21403  0.55261  0.00213  1.0000
  C   C367      1.0  0.21218  0.52960  0.01280  1.0000
  N   N36       1.0  0.25937  0.46836  0.99352  1.0000
  H   H566      1.0  0.02824  0.50927  0.08650  1.0000
  H   H567      1.0  0.05113  0.40819  0.21916  1.0000
  C   C368      1.0  0.30941  0.50137  0.01040  1.0000
  C   C369      1.0  0.26075  0.45951  0.00449  1.0000
  H   H568      1.0  0.31718  0.43396  0.01291  1.0000
  C   C370      1.0  0.07158  0.51525  0.23582  1.0000
  H   H569      1.0  0.31488  0.49221  0.01121  1.0000
  Fe  Fe76      1.0  0.32645  0.45105  0.04054  1.0000
  H   H570      1.0  0.31666  0.59312  0.99812  1.0000
  C   C371      1.0  0.32927  0.51658  0.05344  1.0000
  H   H571      1.0  0.04186  0.41887  0.22746  1.0000
  H   H572      1.0  0.03263  0.49786  0.15059  1.0000
  C   C372      1.0  0.02620  0.50232  0.09451  1.0000
  H   H573      1.0  0.18520  0.53002  0.01647  1.0000
  H   H574      1.0  0.22683  0.57862  0.01550  1.0000
  H   H575      1.0  0.31864  0.49179  0.06661  1.0000
  H   H576      1.0  0.04675  0.48647  0.09063  1.0000
  H   H577      1.0  0.02108  0.48318  0.08159  1.0000
  C   C373      1.0  0.22765  0.51264  0.00798  1.0000
  C   C374      1.0  0.32295  0.44003  0.01193  1.0000
  H   H578      1.0  0.03543  0.41212  0.22016  1.0000
  H   H579      1.0  0.00144  0.51142  0.11936  1.0000
  H   H580      1.0  0.18269  0.52932  0.00287  1.0000
  C   C375      1.0  0.23043  0.53252  0.99898  1.0000
  C   C376      1.0  0.00359  0.50207  0.12315  1.0000
  H   H581      1.0  0.03144  0.48108  0.10848  1.0000
  H   H582      1.0  0.24215  0.58646  0.99872  1.0000
  C   C377      1.0  0.16148  0.58869  0.99663  1.0000
  C   C378      1.0  0.32880  0.57358  0.01024  1.0000
  H   H583      1.0  0.00538  0.52738  0.22719  1.0000
  H   H584      1.0  0.02721  0.47293  0.10058  1.0000
  C   C379      1.0  0.13473  0.48772  0.99883  1.0000
  H   H585      1.0  0.05387  0.46160  0.22458  1.0000
  H   H586      1.0  0.25015  0.55625  0.99281  1.0000
  N   N37       1.0  0.04082  0.40092  0.23580  1.0000
  H   H587      1.0  0.18255  0.50267  0.01052  1.0000
  S   S151      1.0  0.00091  0.40979  0.22363  1.0000
  H   H588      1.0  0.24327  0.46428  0.99309  1.0000
  H   H589      1.0  0.01692  0.50533  0.09917  1.0000
  H   H590      1.0  0.32212  0.55561  0.00666  1.0000
  C   C380      1.0  0.24109  0.55890  0.99804  1.0000
  H   H591      1.0  0.16686  0.50461  0.01645  1.0000
  H   H592      1.0  0.31185  0.50657  0.06863  1.0000
  H   H593      1.0  0.15562  0.52295  0.02414  1.0000
  H   H594      1.0  0.17235  0.51374  0.00279  1.0000
  C   C381      1.0  0.99859  0.48299  0.12912  1.0000
  H   H595      1.0  0.32354  0.51061  0.03638  1.0000
  H   H596      1.0  0.03505  0.54010  0.23489  1.0000
  Fe  Fe77      1.0  0.32473  0.47730  0.03298  1.0000
  H   H597      1.0  0.31003  0.56410  0.01543  1.0000
  C   C382      1.0  0.29736  0.49675  0.00020  1.0000
  H   H598      1.0  0.03525  0.44002  0.23382  1.0000
  C   C383      1.0  0.16590  0.57795  0.99302  1.0000
  N   N38       1.0  0.00359  0.51039  0.23814  1.0000
  H   H599      1.0  0.27065  0.49748  0.00111  1.0000
  H   H600      1.0  0.26118  0.53522  0.99422  1.0000
  H   H601      1.0  0.04056  0.38251  0.24006  1.0000
  H   H602      1.0  0.02184  0.40567  0.23917  1.0000
  N   N39       1.0  0.04405  0.45054  0.23866  1.0000
  H   H603      1.0  0.04759  0.43178  0.24026  1.0000
  H   H604      1.0  0.03629  0.46867  0.23963  1.0000
  C   C384      1.0  0.00045  0.53502  0.17661  1.0000
  C   C385      1.0  0.14576  0.49061  0.99551  1.0000
  C   C386      1.0  0.24683  0.47193  0.99277  1.0000
  C   C387      1.0  0.04006  0.43955  0.24059  1.0000
  H   H605      1.0  0.04529  0.54414  0.24039  1.0000
  H   H606      1.0  0.32746  0.43079  0.99297  1.0000
  C   C388      1.0  0.03365  0.46025  0.24085  1.0000
  C   C389      1.0  0.00939  0.44807  0.24149  1.0000
  H   H607      1.0  0.12233  0.48145  0.99363  1.0000
  C   C390      1.0  0.06851  0.53318  0.24258  1.0000
  C   C391      1.0  0.03597  0.54346  0.24219  1.0000
  H   H608      1.0  0.03051  0.55262  0.24172  1.0000
  C   C392      1.0  0.05023  0.39911  0.24212  1.0000
  S   S152      1.0  0.05617  0.43078  0.30674  1.0000
  C   C393      1.0  0.05174  0.44904  0.24679  1.0000
  S   S153      1.0  0.01270  0.41529  0.26963  1.0000
  C   C394      1.0  0.99955  0.47360  0.27343  1.0000
  H   H609      1.0  0.00795  0.49019  0.29729  1.0000
  C   C395      1.0  0.04662  0.40691  0.34343  1.0000
  H   H610      1.0  0.12383  0.65802  0.47452  1.0000
  Fe  Fe78      1.0  0.07254  0.43787  0.30027  1.0000
  S   S154      1.0  0.08486  0.42112  0.29609  1.0000
  S   S155      1.0  0.07607  0.44836  0.31100  1.0000
  Fe  Fe79      1.0  0.08049  0.42794  0.27814  1.0000
  C   C396      1.0  0.09640  0.45767  0.28448  1.0000
  Fe  Fe80      1.0  0.06814  0.41443  0.30143  1.0000
  S   S156      1.0  0.06594  0.39689  0.31312  1.0000
  S   S157      1.0  0.06975  0.44539  0.28195  1.0000
  Fe  Fe81      1.0  0.01439  0.53541  0.36066  1.0000
  H   H611      1.0  0.07847  0.59874  0.44647  1.0000
  S   S158      1.0  0.05377  0.51812  0.37177  1.0000
  H   H612      1.0  0.01264  0.39202  0.46414  1.0000
  S   S159      1.0  0.02191  0.52154  0.39135  1.0000
  Fe  Fe82      1.0  0.03703  0.58906  0.45080  1.0000
  S   S160      1.0  0.04634  0.59368  0.43179  1.0000
  S   S161      1.0  0.04745  0.58260  0.46512  1.0000
  Fe  Fe83      1.0  0.01285  0.59902  0.44512  1.0000
  S   S162      1.0  0.02009  0.60436  0.42579  1.0000
  N   N40       1.0  0.00283  0.61457  0.48404  1.0000
  Fe  Fe84      1.0  0.03266  0.58668  0.42792  1.0000
  S   S163      1.0  0.03853  0.57607  0.41354  1.0000
  Fe  Fe85      1.0  0.03301  0.61088  0.43118  1.0000
  S   S164      1.0  0.03522  0.62956  0.42311  1.0000
  S   S165      1.0  0.02439  0.58068  0.44708  1.0000
  S   S166      1.0  0.02480  0.60681  0.45038  1.0000
  Fe  Fe86      1.0  0.06967  0.51302  0.28337  1.0000
  S   S167      1.0  0.05012  0.51974  0.28567  1.0000
  S   S168      1.0  0.08022  0.50575  0.26749  1.0000
  Fe  Fe87      1.0  0.06938  0.51426  0.30821  1.0000
  S   S169      1.0  0.04973  0.52089  0.31269  1.0000
  S   S170      1.0  0.08118  0.51125  0.32061  1.0000
  Fe  Fe88      1.0  0.04919  0.50754  0.30337  1.0000
  S   S171      1.0  0.03700  0.49510  0.30997  1.0000
  Fe  Fe89      1.0  0.05263  0.53250  0.29470  1.0000
  S   S172      1.0  0.06864  0.49983  0.30044  1.0000
  S   S173      1.0  0.07237  0.52690  0.29076  1.0000
  H   H613      1.0  0.03958  0.39423  0.39131  1.0000
  H   H614      1.0  0.08601  0.41848  0.33983  1.0000
  H   H615      1.0  0.00538  0.43920  0.27159  1.0000
  C   C397      1.0  0.01473  0.54276  0.29003  1.0000
  H   H616      1.0  0.10546  0.45428  0.27958  1.0000
  C   C398      1.0  0.00236  0.42178  0.34297  1.0000
  H   H617      1.0  0.01369  0.53764  0.31915  1.0000
  C   C399      1.0  0.01255  0.46752  0.38527  1.0000
  C   C400      1.0  0.02742  0.64500  0.46891  1.0000
  C   C401      1.0  0.06259  0.39045  0.34827  1.0000
  C   C402      1.0  0.00801  0.53223  0.32547  1.0000
  C   C403      1.0  0.01454  0.43612  0.27210  1.0000
  S   S174      1.0  0.09228  0.42980  0.25996  1.0000
  S   S175      1.0  0.00374  0.51714  0.29141  1.0000
  H   H618      1.0  0.02842  0.57024  0.27866  1.0000
  C   C404      1.0  0.02048  0.41998  0.30689  1.0000
  H   H619      1.0  0.00494  0.59708  0.48153  1.0000
  C   C405      1.0  0.03957  0.64269  0.46452  1.0000
  N   N41       1.0  0.00512  0.64222  0.41048  1.0000
  H   H620      1.0  0.01891  0.61632  0.47116  1.0000
  H   H621      1.0  0.03950  0.47384  0.37959  1.0000
  S   S176      1.0  0.03396  0.45301  0.37777  1.0000
  H   H622      1.0  0.04339  0.63786  0.45756  1.0000
  S   S177      1.0  0.07980  0.64940  0.45917  1.0000
  H   H623      1.0  0.04501  0.53928  0.26139  1.0000
  C   C406      1.0  0.04694  0.63393  0.42540  1.0000
  C   C407      1.0  0.04463  0.64266  0.43187  1.0000
  H   H624      1.0  0.03367  0.50149  0.33195  1.0000
  H   H625      1.0  0.04317  0.40925  0.30628  1.0000
  H   H626      1.0  0.02605  0.46650  0.29678  1.0000
  C   C408      1.0  0.05856  0.62940  0.42004  1.0000
  H   H627      1.0  0.01096  0.45557  0.31915  1.0000
  H   H628      1.0  0.03275  0.53796  0.39694  1.0000
  C   C409      1.0  0.03441  0.48628  0.35234  1.0000
  H   H629      1.0  0.06039  0.62287  0.41481  1.0000
  H   H630      1.0  0.04690  0.44732  0.25612  1.0000
  H   H631      1.0  0.01466  0.40126  0.32388  1.0000
  H   H632      1.0  0.01556  0.45837  0.29732  1.0000
  C   C410      1.0  0.01350  0.50902  0.24363  1.0000
  S   S178      1.0  0.02127  0.34631  0.43921  1.0000
  H   H633      1.0  0.02137  0.42514  0.29765  1.0000
  H   H634      1.0  0.03402  0.37897  0.47483  1.0000
  H   H635      1.0  0.02085  0.40750  0.29150  1.0000
  H   H636      1.0  0.03257  0.53453  0.27181  1.0000
  H   H637      1.0  0.00818  0.37245  0.46894  1.0000
  C   C411      1.0  0.06146  0.51533  0.35784  1.0000
  C   C412      1.0  0.05570  0.51325  0.35034  1.0000
  C   C413      1.0  0.06183  0.51154  0.33905  1.0000
  C   C414      1.0  0.07370  0.51214  0.33512  1.0000
  C   C415      1.0  0.07955  0.51397  0.34270  1.0000
  C   C416      1.0  0.07345  0.51552  0.35406  1.0000
  H   H638      1.0  0.04657  0.51280  0.35324  1.0000
  H   H639      1.0  0.05740  0.50963  0.33345  1.0000
  H   H640      1.0  0.08876  0.51437  0.33972  1.0000
  H   H641      1.0  0.07799  0.51706  0.35984  1.0000
  C   C417      1.0  0.01488  0.56045  0.40096  1.0000
  C   C418      1.0  0.01058  0.56485  0.41134  1.0000
  C   C419      1.0  0.01753  0.57008  0.41510  1.0000
  C   C420      1.0  0.02886  0.57097  0.40848  1.0000
  C   C421      1.0  0.03300  0.56695  0.39789  1.0000
  C   C422      1.0  0.02600  0.56182  0.39408  1.0000
  H   H642      1.0  0.08830  0.48127  0.26314  1.0000
  H   H643      1.0  0.01423  0.57314  0.42326  1.0000
  H   H644      1.0  0.04170  0.56772  0.39266  1.0000
  H   H645      1.0  0.02927  0.55881  0.38590  1.0000
  C   C423      1.0  0.06412  0.46044  0.31237  1.0000
  C   C424      1.0  0.05496  0.46227  0.30670  1.0000
  C   C425      1.0  0.04618  0.47268  0.30652  1.0000
  C   C426      1.0  0.04656  0.48124  0.31203  1.0000
  C   C427      1.0  0.05537  0.47916  0.31824  1.0000
  C   C428      1.0  0.06418  0.46876  0.31839  1.0000
  H   H646      1.0  0.05489  0.45597  0.30193  1.0000
  H   H647      1.0  0.03960  0.47442  0.30145  1.0000
  H   H648      1.0  0.05569  0.48581  0.32251  1.0000
  H   H649      1.0  0.07132  0.46745  0.32269  1.0000
  C   C429      1.0  0.01106  0.40577  0.41655  1.0000
  C   C430      1.0  0.07556  0.50862  0.24600  1.0000
  Fe  Fe90      1.0  0.02524  0.43941  0.37640  1.0000
  H   H650      1.0  0.00381  0.48857  0.31300  1.0000
  C   C431      1.0  0.11272  0.65840  0.49188  1.0000
  C   C432      1.0  0.06060  0.39771  0.32798  1.0000
  C   C433      1.0  0.02333  0.48258  0.34051  1.0000
  C   C434      1.0  0.02918  0.40429  0.24360  1.0000
  H   H651      1.0  0.00041  0.37685  0.43280  1.0000
  Fe  Fe91      1.0  0.01311  0.43380  0.36052  1.0000
  C   C435      1.0  0.01982  0.40279  0.30089  1.0000
  Fe  Fe92      1.0  0.03414  0.52354  0.37355  1.0000
  H   H652      1.0  0.01593  0.48616  0.33583  1.0000
  H   H653      1.0  0.03528  0.51636  0.42489  1.0000
  H   H654      1.0  0.07982  0.47367  0.29564  1.0000
  H   H655      1.0  0.04681  0.54157  0.39426  1.0000
  H   H656      1.0  0.02822  0.41272  0.24621  1.0000
  H   H657      1.0  0.03082  0.54924  0.26297  1.0000
  S   S179      1.0  0.07764  0.64672  0.42908  1.0000
  H   H658      1.0  0.01781  0.62055  0.48450  1.0000
  C   C436      1.0  0.01161  0.46483  0.31808  1.0000
  H   H659      1.0  0.01469  0.63233  0.39707  1.0000
  S   S180      1.0  0.02599  0.54258  0.36732  1.0000
  C   C437      1.0  0.00396  0.45952  0.24320  1.0000
  Fe  Fe93      1.0  0.07578  0.65846  0.44143  1.0000
  H   H660      1.0  0.02897  0.37436  0.46457  1.0000
  H   H661      1.0  0.02479  0.42377  0.31153  1.0000
  N   N42       1.0  0.03582  0.37704  0.39878  1.0000
  H   H662      1.0  0.99834  0.63324  0.48339  1.0000
  C   C438      1.0  0.02753  0.58146  0.48294  1.0000
  C   C439      1.0  0.03938  0.58213  0.47977  1.0000
  C   C440      1.0  0.04487  0.58264  0.48837  1.0000
  H   H663      1.0  0.02349  0.39323  0.30105  1.0000
  Fe  Fe94      1.0  0.01317  0.34199  0.47342  1.0000
  H   H664      1.0  0.02333  0.58078  0.47643  1.0000
  H   H665      1.0  0.05410  0.58292  0.48604  1.0000
  S   S181      1.0  0.01842  0.64087  0.46260  1.0000
  C   C441      1.0  0.02483  0.46595  0.38212  1.0000
  H   H666      1.0  0.05604  0.64582  0.46490  1.0000
  H   H667      1.0  0.02082  0.60523  0.48418  1.0000
  C   C442      1.0  0.08596  0.42690  0.24988  1.0000
  S   S182      1.0  0.00484  0.44300  0.34490  1.0000
  C   C443      1.0  0.07565  0.51423  0.25464  1.0000
  C   C444      1.0  0.10610  0.65721  0.47516  1.0000
  H   H668      1.0  0.07848  0.41306  0.26242  1.0000
  S   S183      1.0  0.06508  0.41943  0.28319  1.0000
  N   N43       1.0  0.02404  0.49105  0.34693  1.0000
  S   S184      1.0  0.05033  0.66053  0.48151  1.0000
  H   H669      1.0  0.01477  0.65121  0.41631  1.0000
  H   H670      1.0  0.01047  0.36233  0.48247  1.0000
  H   H671      1.0  0.01214  0.48448  0.36269  1.0000
  N   N44       1.0  0.06908  0.42954  0.34544  1.0000
  C   C445      1.0  0.06674  0.42187  0.35727  1.0000
  H   H672      1.0  0.01090  0.42149  0.31104  1.0000
  C   C446      1.0  0.06358  0.42647  0.33755  1.0000
  H   H673      1.0  0.07837  0.49913  0.24725  1.0000
  H   H674      1.0  0.07019  0.41236  0.35695  1.0000
  H   H675      1.0  0.05711  0.42306  0.36119  1.0000
  H   H676      1.0  0.07086  0.42382  0.36345  1.0000
  H   H677      1.0  0.04002  0.41028  0.29239  1.0000
  H   H678      1.0  0.05433  0.44367  0.34986  1.0000
  C   C447      1.0  0.02482  0.54275  0.29346  1.0000
  H   H679      1.0  0.06801  0.44467  0.35210  1.0000
  H   H680      1.0  0.05388  0.42768  0.34086  1.0000
  H   H681      1.0  0.06725  0.41715  0.33665  1.0000
  S   S185      1.0  0.01174  0.54146  0.34201  1.0000
  H   H682      1.0  0.01056  0.63866  0.42680  1.0000
  C   C448      1.0  0.06404  0.44202  0.34624  1.0000
  N   N45       1.0  0.09192  0.47027  0.27956  1.0000
  C   C449      1.0  0.09163  0.47183  0.26709  1.0000
  H   H683      1.0  0.01981  0.62730  0.41049  1.0000
  H   H684      1.0  0.07222  0.53087  0.25960  1.0000
  C   C450      1.0  0.09977  0.47727  0.28040  1.0000
  C   C451      1.0  0.00339  0.38490  0.42830  1.0000
  H   H685      1.0  0.09066  0.45211  0.28409  1.0000
  S   S186      1.0  0.00617  0.44054  0.37725  1.0000
  H   H686      1.0  0.10007  0.47638  0.28972  1.0000
  C   C452      1.0  0.06785  0.63351  0.42118  1.0000
  S   S187      1.0  0.01519  0.41473  0.36970  1.0000
  H   H687      1.0  0.05949  0.44153  0.24570  1.0000
  H   H688      1.0  0.00775  0.41768  0.34934  1.0000
  C   C453      1.0  0.04154  0.65421  0.47704  1.0000
  C   C454      1.0  0.00761  0.64625  0.41982  1.0000
  H   H689      1.0  0.05516  0.52041  0.42111  1.0000
  H   H690      1.0  0.01802  0.50585  0.33376  1.0000
  H   H691      1.0  0.02788  0.54317  0.41668  1.0000
  C   C455      1.0  0.01183  0.38796  0.43207  1.0000
  H   H692      1.0  0.06509  0.43210  0.32856  1.0000
  H   H693      1.0  0.01756  0.39667  0.47447  1.0000
  H   H694      1.0  0.01400  0.41385  0.41212  1.0000
  H   H695      1.0  0.07682  0.63003  0.41692  1.0000
  H   H696      1.0  0.07404  0.38294  0.33373  1.0000
  C   C456      1.0  0.00264  0.40274  0.41275  1.0000
  S   S188      1.0  0.00630  0.55285  0.39726  1.0000
  C   C457      1.0  0.05064  0.40631  0.33150  1.0000
  H   H697      1.0  0.08400  0.43346  0.33170  1.0000
  H   H698      1.0  0.99901  0.62932  0.46997  1.0000
  H   H699      1.0  0.02869  0.37245  0.41742  1.0000
  H   H700      1.0  0.01101  0.53515  0.29325  1.0000
  H   H701      1.0  0.01831  0.37532  0.40836  1.0000
  C   C458      1.0  0.01443  0.56254  0.27840  1.0000
  C   C459      1.0  0.06640  0.38965  0.33642  1.0000
  N   N46       1.0  0.05162  0.54874  0.32604  1.0000
  C   C460      1.0  0.04141  0.54322  0.32913  1.0000
  C   C461      1.0  0.04794  0.56144  0.32093  1.0000
  C   C462      1.0  0.06117  0.54310  0.31733  1.0000
  C   C463      1.0  0.05593  0.54721  0.33677  1.0000
  H   H702      1.0  0.04379  0.53363  0.33306  1.0000
  H   H703      1.0  0.03786  0.54421  0.32126  1.0000
  H   H704      1.0  0.03408  0.54730  0.33569  1.0000
  H   H705      1.0  0.04069  0.56598  0.32724  1.0000
  H   H706      1.0  0.05542  0.56592  0.31846  1.0000
  H   H707      1.0  0.04466  0.56278  0.31280  1.0000
  H   H708      1.0  0.06911  0.54689  0.31495  1.0000
  H   H709      1.0  0.05830  0.54420  0.30906  1.0000
  H   H710      1.0  0.06403  0.53348  0.32079  1.0000
  H   H711      1.0  0.06357  0.55135  0.33484  1.0000
  H   H712      1.0  0.05890  0.53770  0.34071  1.0000
  H   H713      1.0  0.04888  0.55116  0.34365  1.0000
  C   C464      1.0  0.00030  0.60631  0.47855  1.0000
  H   H714      1.0  0.04016  0.37964  0.37990  1.0000
  H   H715      1.0  0.06010  0.53092  0.40819  1.0000
  H   H716      1.0  0.01319  0.49930  0.36120  1.0000
  Fe  Fe95      1.0  0.01295  0.54027  0.38466  1.0000
  H   H717      1.0  0.02202  0.40092  0.42919  1.0000
  Fe  Fe96      1.0  0.01064  0.51636  0.38264  1.0000
  N   N47       1.0  0.02576  0.40730  0.30731  1.0000
  H   H718      1.0  0.00675  0.65842  0.39788  1.0000
  C   C465      1.0  0.03721  0.53903  0.41730  1.0000
  H   H719      1.0  0.03759  0.41287  0.26773  1.0000
  C   C466      1.0  0.04814  0.37156  0.39985  1.0000
  C   C467      1.0  0.03273  0.42134  0.26972  1.0000
  Fe  Fe97      1.0  0.01647  0.35987  0.45025  1.0000
  C   C468      1.0  0.01565  0.61412  0.48086  1.0000
  Fe  Fe98      1.0  0.05463  0.43654  0.28792  1.0000
  H   H720      1.0  0.02427  0.39428  0.39738  1.0000
  H   H721      1.0  0.05449  0.37567  0.39231  1.0000
  C   C469      1.0  0.02290  0.48587  0.38432  1.0000
  C   C470      1.0  0.01316  0.49285  0.35620  1.0000
  H   H722      1.0  0.07378  0.46897  0.28620  1.0000
  S   S189      1.0  0.03187  0.43404  0.35901  1.0000
  S   S190      1.0  0.02372  0.51659  0.36548  1.0000
  C   C471      1.0  0.02000  0.44288  0.27564  1.0000
  C   C472      1.0  0.02989  0.55256  0.28919  1.0000
  C   C473      1.0  0.08195  0.42779  0.34064  1.0000
  H   H723      1.0  0.04760  0.42568  0.27238  1.0000
  H   H724      1.0  0.00192  0.56395  0.41665  1.0000
  C   C474      1.0  0.03336  0.38975  0.39862  1.0000
  S   S191      1.0  0.04873  0.40051  0.36648  1.0000
  H   H725      1.0  0.99845  0.37501  0.48265  1.0000
  N   N48       1.0  0.03259  0.53575  0.25379  1.0000
  H   H726      1.0  0.02855  0.39124  0.32035  1.0000
  H   H727      1.0  0.06837  0.40985  0.24890  1.0000
  C   C475      1.0  0.03178  0.43885  0.27638  1.0000
  C   C476      1.0  0.01555  0.39846  0.42625  1.0000
  H   H728      1.0  0.03421  0.39128  0.40697  1.0000
  H   H729      1.0  0.04974  0.37263  0.40809  1.0000
  H   H730      1.0  0.01015  0.40401  0.30475  1.0000
  C   C477      1.0  0.00592  0.53205  0.33750  1.0000
  C   C478      1.0  0.02938  0.65627  0.48166  1.0000
  S   S192      1.0  0.00060  0.35339  0.46214  1.0000
  H   H731      1.0  0.02492  0.37975  0.38655  1.0000
  S   S193      1.0  0.10840  0.65839  0.46000  1.0000
  H   H732      1.0  0.00517  0.49623  0.35241  1.0000
  C   C479      1.0  0.07987  0.47432  0.28628  1.0000
  C   C480      1.0  0.01663  0.46732  0.29694  1.0000
  H   H733      1.0  0.99962  0.40531  0.34187  1.0000
  H   H734      1.0  0.04885  0.52264  0.25226  1.0000
  H   H735      1.0  0.01680  0.53094  0.26534  1.0000
  N   N49       1.0  0.00861  0.47231  0.30694  1.0000
  C   C481      1.0  0.00036  0.65260  0.40196  1.0000
  H   H736      1.0  0.01228  0.44123  0.24864  1.0000
  S   S194      1.0  0.04353  0.55164  0.29202  1.0000
  H   H737      1.0  0.03416  0.47738  0.35808  1.0000
  H   H738      1.0  0.03731  0.53571  0.42681  1.0000
  H   H739      1.0  0.02694  0.49292  0.38396  1.0000
  S   S195      1.0  0.03772  0.44663  0.28264  1.0000
  H   H740      1.0  0.00887  0.47014  0.27044  1.0000
  C   C482      1.0  0.03833  0.42842  0.27273  1.0000
  S   S196      1.0  0.00155  0.50117  0.38979  1.0000
  C   C483      1.0  0.02450  0.56262  0.28196  1.0000
  C   C484      1.0  0.07917  0.41841  0.25361  1.0000
  C   C485      1.0  0.02418  0.40075  0.31969  1.0000
  C   C486      1.0  0.00782  0.37183  0.47838  1.0000
  H   H741      1.0  0.05214  0.65335  0.43819  1.0000
  C   C487      1.0  0.03849  0.40569  0.30180  1.0000
  C   C488      1.0  0.04666  0.64735  0.46855  1.0000
  H   H742      1.0  0.02800  0.40430  0.32498  1.0000
  H   H743      1.0  0.04280  0.48538  0.34555  1.0000
  H   H744      1.0  0.03562  0.64631  0.43592  1.0000
  H   H745      1.0  0.10895  0.47448  0.27542  1.0000
  H   H746      1.0  0.01056  0.51321  0.25138  1.0000
  C   C489      1.0  0.03920  0.52344  0.25372  1.0000
  C   C490      1.0  0.00546  0.47825  0.38798  1.0000
  C   C491      1.0  0.02999  0.47506  0.38189  1.0000
  H   H747      1.0  0.00277  0.46157  0.25167  1.0000
  C   C492      1.0  0.02769  0.37138  0.40892  1.0000
  H   H748      1.0  0.01055  0.57013  0.27240  1.0000
  S   S197      1.0  0.02837  0.42082  0.38705  1.0000
  H   H749      1.0  0.03576  0.36603  0.38755  1.0000
  Fe  Fe99      1.0  0.03335  0.41560  0.36968  1.0000
  C   C493      1.0  0.05278  0.39915  0.35177  1.0000
  H   H750      1.0  0.01494  0.45090  0.27842  1.0000
  H   H751      1.0  0.02931  0.36174  0.40940  1.0000
  H   H752      1.0  0.08574  0.46668  0.26618  1.0000
  H   H753      1.0  0.04288  0.39620  0.30221  1.0000
  H   H754      1.0  0.03892  0.41354  0.34612  1.0000
  C   C494      1.0  0.01061  0.48750  0.38732  1.0000
  C   C495      1.0  0.02069  0.42506  0.26989  1.0000
  H   H755      1.0  0.06561  0.44802  0.33743  1.0000
  H   H756      1.0  0.04599  0.41243  0.32506  1.0000
  C   C496      1.0  0.03409  0.37552  0.38772  1.0000
  C   C497      1.0  0.02793  0.37394  0.47412  1.0000
  S   S198      1.0  0.01807  0.37885  0.44389  1.0000
  H   H757      1.0  0.02882  0.53503  0.29923  1.0000
  N   N50       1.0  0.06452  0.61024  0.45615  1.0000
  C   C498      1.0  0.07076  0.62002  0.45216  1.0000
  C   C499      1.0  0.05639  0.61191  0.44843  1.0000
  C   C500      1.0  0.05770  0.61004  0.46838  1.0000
  C   C501      1.0  0.07323  0.59891  0.45561  1.0000
  H   H758      1.0  0.07690  0.61914  0.45783  1.0000
  H   H759      1.0  0.06448  0.62874  0.45226  1.0000
  H   H760      1.0  0.07605  0.62038  0.44297  1.0000
  H   H761      1.0  0.05140  0.60481  0.45129  1.0000
  H   H762      1.0  0.04979  0.62045  0.44842  1.0000
  H   H763      1.0  0.06126  0.61177  0.43919  1.0000
  H   H764      1.0  0.05283  0.60281  0.47155  1.0000
  H   H765      1.0  0.05106  0.61845  0.46910  1.0000
  H   H766      1.0  0.06355  0.60868  0.47450  1.0000
  H   H767      1.0  0.06881  0.59134  0.45854  1.0000
  H   H768      1.0  0.07952  0.59732  0.46134  1.0000
  H   H769      1.0  0.08642  0.43002  0.34635  1.0000
  H   H770      1.0  0.06733  0.38439  0.35469  1.0000
  H   H771      1.0  0.07606  0.48369  0.28258  1.0000
  H   H772      1.0  0.04221  0.54617  0.41386  1.0000
  H   H773      1.0  0.05032  0.36194  0.40004  1.0000
  H   H774      1.0  0.00260  0.39505  0.47757  1.0000
  S   S199      1.0  0.02867  0.34946  0.46236  1.0000
  Fe  Fe100     1.0  0.00666  0.33868  0.45235  1.0000
  C   C502      1.0  0.03536  0.53989  0.26289  1.0000
  C   C503      1.0  0.06559  0.64214  0.42773  1.0000
  H   H775      1.0  0.03655  0.51739  0.26227  1.0000
  C   C504      1.0  0.02523  0.50241  0.33865  1.0000
  H   H776      1.0  0.04946  0.39194  0.25015  1.0000
  N   N51       1.0  0.01556  0.37871  0.47964  1.0000
  H   H777      1.0  0.03483  0.49211  0.35784  1.0000
  Fe  Fe101     1.0  0.00989  0.42136  0.38639  1.0000
  H   H778      1.0  0.00850  0.46051  0.38560  1.0000
  C   C505      1.0  0.05396  0.64667  0.43314  1.0000
  H   H779      1.0  0.10057  0.46886  0.26172  1.0000
  H   H780      1.0  0.99964  0.65208  0.42412  1.0000
  C   C506      1.0  0.99990  0.43403  0.33901  1.0000
  H   H781      1.0  0.02196  0.47407  0.34659  1.0000
  H   H782      1.0  0.09667  0.48683  0.27679  1.0000
  H   H783      1.0  0.02079  0.46455  0.31839  1.0000
  H   H784      1.0  0.09668  0.45620  0.29390  1.0000
  C   C507      1.0  0.11511  0.65778  0.48001  1.0000
  C   C508      1.0  0.01980  0.53627  0.25643  1.0000
  H   H785      1.0  0.01496  0.47293  0.28835  1.0000
  C   C509      1.0  0.00273  0.52548  0.32157  1.0000
  C   C510      1.0  0.00976  0.55244  0.28218  1.0000
  C   C511      1.0  0.02232  0.65164  0.47757  1.0000
  H   H786      1.0  0.03158  0.48061  0.33380  1.0000
  C   C512      1.0  0.01614  0.63531  0.40435  1.0000
  C   C513      1.0  0.04197  0.53434  0.39812  1.0000
  H   H787      1.0  0.03395  0.43785  0.24928  1.0000
  H   H788      1.0  0.04604  0.52745  0.39279  1.0000
  Fe  Fe102     1.0  0.03216  0.33544  0.45227  1.0000
  C   C514      1.0  0.07204  0.52651  0.25298  1.0000
  H   H789      1.0  0.03781  0.52014  0.24661  1.0000
  H   H790      1.0  0.03859  0.51313  0.41050  1.0000
  H   H791      1.0  0.01458  0.54549  0.25629  1.0000
  C   C515      1.0  0.01193  0.39117  0.47372  1.0000
  H   H792      1.0  0.01746  0.53297  0.24987  1.0000
  C   C516      1.0  0.09491  0.65673  0.48230  1.0000
  C   C517      1.0  0.07362  0.41645  0.24585  1.0000
  H   H793      1.0  0.02499  0.50926  0.34329  1.0000
  C   C518      1.0  0.03519  0.52036  0.41547  1.0000
  H   H794      1.0  0.02831  0.45832  0.24999  1.0000
  H   H795      1.0  0.05866  0.51702  0.40678  1.0000
  H   H796      1.0  0.02774  0.39748  0.25184  1.0000
  H   H797      1.0  0.02313  0.64048  0.40065  1.0000
  H   H798      1.0  0.05515  0.45709  0.24528  1.0000
  H   H799      1.0  0.02578  0.52416  0.41486  1.0000
  S   S200      1.0  0.00564  0.49404  0.27273  1.0000
  H   H800      1.0  0.00557  0.46813  0.32586  1.0000
  H   H801      1.0  0.00319  0.60854  0.46881  1.0000
  H   H802      1.0  0.01290  0.65347  0.48087  1.0000
  H   H803      1.0  0.03017  0.34244  0.48730  1.0000
  H   H804      1.0  0.01904  0.48454  0.30579  1.0000
  N   N52       1.0  0.04224  0.52948  0.41067  1.0000
  C   C519      1.0  0.05459  0.52420  0.41176  1.0000
  H   H805      1.0  0.03101  0.36455  0.47837  1.0000
  C   C520      1.0  0.00991  0.48441  0.30573  1.0000
  H   H806      1.0  0.01740  0.49951  0.24682  1.0000
  H   H807      1.0  0.08802  0.65588  0.47874  1.0000
  C   C521      1.0  0.99871  0.39236  0.41873  1.0000
  H   H808      1.0  0.00450  0.52553  0.31233  1.0000
  Fe  Fe103     1.0  0.00498  0.65734  0.45845  1.0000
  H   H809      1.0  0.99785  0.49538  0.25025  1.0000
  H   H810      1.0  0.04982  0.40729  0.24489  1.0000
  H   H811      1.0  0.00324  0.62320  0.44967  1.0000
  S   S201      1.0  0.00042  0.53488  0.37737  1.0000
  C   C522      1.0  0.99782  0.41478  0.33865  1.0000
  H   H812      1.0  0.99839  0.64991  0.39476  1.0000
  H   H813      1.0  0.99963  0.62696  0.42247  1.0000
  C   C523      1.0  0.99869  0.52490  0.34563  1.0000
  C   C524      1.0  0.01457  0.37788  0.49228  1.0000
  S   S202      1.0  0.99824  0.55165  0.27651  1.0000
  H   H814      1.0  0.07941  0.52744  0.70136  1.0000
  Fe  Fe104     1.0  0.02610  0.39049  0.62380  1.0000
  S   S203      1.0  0.01957  0.40992  0.61684  1.0000
  S   S204      1.0  0.03164  0.37508  0.61460  1.0000
  Fe  Fe105     1.0  0.03041  0.39479  0.64592  1.0000
  S   S205      1.0  0.02495  0.41434  0.64044  1.0000
  S   S206      1.0  0.03505  0.38646  0.66349  1.0000
  C   C525      1.0  0.09253  0.65742  0.49411  1.0000
  C   C526      1.0  0.01096  0.51780  0.68173  1.0000
  Fe  Fe106     1.0  0.03488  0.41212  0.62242  1.0000
  S   S207      1.0  0.04744  0.42357  0.61158  1.0000
  S   S208      1.0  0.01504  0.39078  0.64216  1.0000
  S   S209      1.0  0.04201  0.39281  0.62835  1.0000
  Fe  Fe107     1.0  0.06207  0.41645  0.69394  1.0000
  S   S210      1.0  0.04504  0.42693  0.70275  1.0000
  S   S211      1.0  0.06444  0.41589  0.67496  1.0000
  S   S212      1.0  0.03621  0.34742  0.52384  1.0000
  C   C527      1.0  0.03840  0.58299  0.49995  1.0000
  S   S213      1.0  0.07353  0.42663  0.69681  1.0000
  Fe  Fe108     1.0  0.04445  0.58886  0.54070  1.0000
  S   S214      1.0  0.02625  0.59832  0.53794  1.0000
  H   H815      1.0  0.07197  0.47047  0.64952  1.0000
  Fe  Fe109     1.0  0.03807  0.56530  0.55186  1.0000
  S   S215      1.0  0.01928  0.57234  0.55001  1.0000
  S   S216      1.0  0.04693  0.54670  0.55953  1.0000
  Fe  Fe110     1.0  0.02661  0.58217  0.53193  1.0000
  Fe  Fe111     1.0  0.07414  0.41353  0.71392  1.0000
  Fe  Fe112     1.0  0.02025  0.58791  0.55607  1.0000
  C   C528      1.0  0.01533  0.51954  0.66951  1.0000
  S   S217      1.0  0.04538  0.57359  0.53311  1.0000
  S   S218      1.0  0.03837  0.58008  0.55945  1.0000
  Fe  Fe113     1.0  0.06220  0.48837  0.62671  1.0000
  S   S219      1.0  0.05318  0.50305  0.63616  1.0000
  S   S220      1.0  0.08185  0.48201  0.62371  1.0000
  Fe  Fe114     1.0  0.03929  0.48494  0.62401  1.0000
  S   S221      1.0  0.02845  0.49934  0.63349  1.0000
  S   S222      1.0  0.02834  0.47626  0.61821  1.0000
  Fe  Fe115     1.0  0.04218  0.50949  0.62258  1.0000
  S   S223      1.0  0.03640  0.52896  0.61511  1.0000
  Fe  Fe116     1.0  0.04053  0.49148  0.64595  1.0000
  S   S224      1.0  0.03518  0.48714  0.66558  1.0000
  S   S225      1.0  0.05222  0.49564  0.61216  1.0000
  S   S226      1.0  0.05031  0.47621  0.63745  1.0000
  C   C529      1.0  0.02281  0.41984  0.73500  1.0000
  C   C530      1.0  0.02977  0.54059  0.74187  1.0000
  S   S227      1.0  0.09027  0.40613  0.72168  1.0000
  H   H816      1.0  0.02026  0.65307  0.51163  1.0000
  H   H817      1.0  0.02041  0.38283  0.49360  1.0000
  S   S228      1.0  0.01047  0.36634  0.57582  1.0000
  H   H818      1.0  0.00993  0.41563  0.67607  1.0000
  S   S229      1.0  0.03501  0.34139  0.55873  1.0000
  H   H819      1.0  0.04178  0.45045  0.66074  1.0000
  H   H820      1.0  0.08347  0.49366  0.73981  1.0000
  H   H821      1.0  0.01375  0.54434  0.72906  1.0000
  S   S230      1.0  0.02292  0.50228  0.73355  1.0000
  H   H822      1.0  0.02466  0.45065  0.73634  1.0000
  C   C531      1.0  0.03179  0.43171  0.66757  1.0000
  S   S231      1.0  0.04453  0.64760  0.54587  1.0000
  H   H823      1.0  0.04535  0.36184  0.66626  1.0000
  C   C532      1.0  0.01631  0.50094  0.59154  1.0000
  Fe  Fe117     1.0  0.04825  0.41352  0.71923  1.0000
  C   C533      1.0  0.07771  0.46466  0.65557  1.0000
  C   C534      1.0  0.08765  0.40753  0.73630  1.0000
  C   C535      1.0  0.06123  0.45862  0.67041  1.0000
  C   C536      1.0  0.01849  0.42558  0.72488  1.0000
  H   H824      1.0  0.02910  0.65076  0.56740  1.0000
  Fe  Fe118     1.0  0.09939  0.51167  0.68932  1.0000
  S   S232      1.0  0.08565  0.50217  0.70112  1.0000
  S   S233      1.0  0.10461  0.52290  0.69811  1.0000
  Fe  Fe119     1.0  0.10166  0.50036  0.66916  1.0000
  S   S234      1.0  0.08826  0.48976  0.67932  1.0000
  S   S235      1.0  0.11022  0.49871  0.65052  1.0000
  Fe  Fe120     1.0  0.07804  0.50636  0.68529  1.0000
  S   S236      1.0  0.05887  0.51219  0.68509  1.0000
  Fe  Fe121     1.0  0.09704  0.48642  0.69428  1.0000
  S   S237      1.0  0.09858  0.46887  0.70690  1.0000
  S   S238      1.0  0.09071  0.51746  0.67390  1.0000
  S   S239      1.0  0.11163  0.49543  0.68364  1.0000
  C   C537      1.0  0.00965  0.34224  0.51306  1.0000
  Fe  Fe122     1.0  0.02744  0.34331  0.54307  1.0000
  C   C538      1.0  0.03325  0.50366  0.72011  1.0000
  C   C539      1.0  0.04535  0.50041  0.71972  1.0000
  C   C540      1.0  0.05338  0.50281  0.70895  1.0000
  C   C541      1.0  0.04929  0.50830  0.69860  1.0000
  C   C542      1.0  0.03723  0.51103  0.69898  1.0000
  C   C543      1.0  0.02927  0.50861  0.70969  1.0000
  H   H825      1.0  0.04854  0.49615  0.72767  1.0000
  H   H826      1.0  0.06266  0.50051  0.70873  1.0000
  H   H827      1.0  0.03401  0.51509  0.69099  1.0000
  H   H828      1.0  0.02003  0.51058  0.70981  1.0000
  H   H829      1.0  0.05140  0.38591  0.59537  1.0000
  S   S240      1.0  0.01771  0.58417  0.51711  1.0000
  H   H830      1.0  0.01355  0.52448  0.58517  1.0000
  H   H831      1.0  0.07479  0.48030  0.66863  1.0000
  H   H832      1.0  0.03988  0.42203  0.57889  1.0000
  C   C544      1.0  0.00492  0.44037  0.73512  1.0000
  N   N53       1.0  0.07148  0.46394  0.66805  1.0000
  C   C545      1.0  0.01431  0.50672  0.68883  1.0000
  H   H833      1.0  0.01742  0.49225  0.59789  1.0000
  H   H834      1.0  0.10777  0.50084  0.71454  1.0000
  C   C546      1.0  0.08928  0.48714  0.63124  1.0000
  C   C547      1.0  0.08336  0.49199  0.64116  1.0000
  C   C548      1.0  0.08970  0.49555  0.64721  1.0000
  C   C549      1.0  0.10194  0.49439  0.64325  1.0000
  C   C550      1.0  0.10777  0.48968  0.63328  1.0000
  C   C551      1.0  0.10149  0.48596  0.62738  1.0000
  H   H835      1.0  0.07401  0.49269  0.64439  1.0000
  H   H836      1.0  0.08514  0.49928  0.65484  1.0000
  H   H837      1.0  0.11721  0.48876  0.63018  1.0000
  H   H838      1.0  0.10613  0.48218  0.61977  1.0000
  C   C552      1.0  0.02614  0.49910  0.67163  1.0000
  C   C553      1.0  0.02284  0.51017  0.66444  1.0000
  H   H839      1.0  0.05493  0.46396  0.66475  1.0000
  H   H840      1.0  0.02590  0.51142  0.65500  1.0000
  H   H841      1.0  0.04540  0.66142  0.57521  1.0000
  C   C554      1.0  0.05699  0.61009  0.54016  1.0000
  H   H842      1.0  0.01720  0.55804  0.72802  1.0000
  H   H843      1.0  0.02726  0.40194  0.59294  1.0000
  C   C555      1.0  0.05023  0.63278  0.54487  1.0000
  H   H844      1.0  0.01969  0.44987  0.64497  1.0000
  H   H845      1.0  0.01264  0.44643  0.66030  1.0000
  H   H846      1.0  0.02855  0.52484  0.58375  1.0000
  C   C556      1.0  0.02526  0.45671  0.72752  1.0000
  C   C557      1.0  0.02459  0.47676  0.71653  1.0000
  H   H847      1.0  0.03485  0.37069  0.65000  1.0000
  H   H848      1.0  0.01270  0.51550  0.60631  1.0000
  N   N54       1.0  0.11028  0.43327  0.73555  1.0000
  S   S241      1.0  0.00005  0.43624  0.68546  1.0000
  H   H849      1.0  0.02198  0.42208  0.71697  1.0000
  S   S242      1.0  0.00980  0.35389  0.55039  1.0000
  C   C558      1.0  0.10554  0.49471  0.73797  1.0000
  H   H850      1.0  0.03483  0.47790  0.73333  1.0000
  H   H851      1.0  0.04170  0.34617  0.49943  1.0000
  C   C559      1.0  0.01463  0.34165  0.50126  1.0000
  H   H852      1.0  0.01694  0.61379  0.55789  1.0000
  C   C560      1.0  0.04413  0.54207  0.57499  1.0000
  C   C561      1.0  0.05042  0.53107  0.58008  1.0000
  C   C562      1.0  0.04823  0.52705  0.59238  1.0000
  C   C563      1.0  0.03972  0.53400  0.59967  1.0000
  C   C564      1.0  0.03357  0.54508  0.59457  1.0000
  C   C565      1.0  0.03575  0.54911  0.58226  1.0000
  H   H853      1.0  0.05700  0.52563  0.57450  1.0000
  H   H854      1.0  0.05324  0.51864  0.59621  1.0000
  H   H855      1.0  0.02700  0.55053  0.60015  1.0000
  H   H856      1.0  0.03084  0.55761  0.57843  1.0000
  H   H857      1.0  0.06284  0.40330  0.57496  1.0000
  H   H858      1.0  0.05113  0.41791  0.58726  1.0000
  H   H859      1.0  0.04412  0.34755  0.66579  1.0000
  C   C566      1.0  0.08533  0.46495  0.70820  1.0000
  C   C567      1.0  0.07549  0.47380  0.70573  1.0000
  C   C568      1.0  0.06528  0.47089  0.70526  1.0000
  N   N55       1.0  0.03186  0.54299  0.72889  1.0000
  C   C569      1.0  0.10133  0.65848  0.49889  1.0000
  H   H860      1.0  0.07582  0.48293  0.70384  1.0000
  H   H861      1.0  0.05789  0.47781  0.70288  1.0000
  H   H862      1.0  0.05624  0.45815  0.67972  1.0000
  H   H863      1.0  0.06402  0.44947  0.66887  1.0000
  C   C570      1.0  0.04226  0.43802  0.61402  1.0000
  C   C571      1.0  0.05022  0.44515  0.61226  1.0000
  C   C572      1.0  0.04607  0.45679  0.61397  1.0000
  C   C573      1.0  0.03393  0.46143  0.61708  1.0000
  C   C574      1.0  0.02600  0.45429  0.61886  1.0000
  C   C575      1.0  0.03015  0.44255  0.61755  1.0000
  H   H864      1.0  0.05960  0.44166  0.60958  1.0000
  H   H865      1.0  0.05225  0.46226  0.61254  1.0000
  H   H866      1.0  0.01660  0.45785  0.62124  1.0000
  H   H867      1.0  0.02394  0.43713  0.61891  1.0000
  C   C576      1.0  0.00315  0.42110  0.67143  1.0000
  C   C577      1.0  0.04319  0.39459  0.66677  1.0000
  C   C578      1.0  0.04965  0.40178  0.65768  1.0000
  C   C579      1.0  0.05637  0.40805  0.66031  1.0000
  C   C580      1.0  0.05640  0.40743  0.67203  1.0000
  C   C581      1.0  0.04980  0.40037  0.68114  1.0000
  C   C582      1.0  0.04332  0.39383  0.67849  1.0000
  N   N56       1.0  0.03590  0.64007  0.51506  1.0000
  C   C583      1.0  0.02194  0.49743  0.68382  1.0000
  H   H868      1.0  0.04978  0.39989  0.69020  1.0000
  H   H869      1.0  0.03831  0.38829  0.68554  1.0000
  H   H870      1.0  0.02461  0.43451  0.67497  1.0000
  N   N57       1.0  0.02471  0.46884  0.72825  1.0000
  H   H871      1.0  0.11510  0.49122  0.73788  1.0000
  H   H872      1.0  0.06335  0.52950  0.71894  1.0000
  C   C584      1.0  0.00132  0.41761  0.66211  1.0000
  C   C585      1.0  0.02280  0.51927  0.58338  1.0000
  H   H873      1.0  0.04825  0.53180  0.67020  1.0000
  C   C586      1.0  0.04971  0.35416  0.66198  1.0000
  C   C587      1.0  0.01565  0.38071  0.60019  1.0000
  H   H874      1.0  0.10595  0.48727  0.71275  1.0000
  H   H875      1.0  0.06584  0.51607  0.64579  1.0000
  H   H876      1.0  0.02450  0.48888  0.68938  1.0000
  H   H877      1.0  0.10169  0.44977  0.72613  1.0000
  H   H878      1.0  0.06692  0.63539  0.53349  1.0000
  Fe  Fe123     1.0  0.01006  0.41041  0.63571  1.0000
  H   H879      1.0  0.04348  0.46637  0.72581  1.0000
  C   C588      1.0  0.03078  0.36282  0.59897  1.0000
  H   H880      1.0  0.05464  0.51091  0.65797  1.0000
  H   H881      1.0  0.01697  0.47670  0.71315  1.0000
  H   H882      1.0  0.00360  0.38476  0.58869  1.0000
  C   C589      1.0  0.05714  0.34741  0.64370  1.0000
  H   H883      1.0  0.03384  0.35645  0.64922  1.0000
  C   C590      1.0  0.08645  0.52751  0.73069  1.0000
  C   C591      1.0  0.09559  0.52643  0.72062  1.0000
  C   C592      1.0  0.09309  0.52614  0.71011  1.0000
  C   C593      1.0  0.08140  0.52746  0.70953  1.0000
  H   H884      1.0  0.04865  0.64456  0.52128  1.0000
  H   H885      1.0  0.04063  0.63770  0.49730  1.0000
  H   H886      1.0  0.10462  0.52549  0.72108  1.0000
  H   H887      1.0  0.07297  0.61524  0.52940  1.0000
  H   H888      1.0  0.05269  0.64433  0.50595  1.0000
  H   H889      1.0  0.12901  0.42983  0.73398  1.0000
  H   H890      1.0  0.04022  0.42843  0.64537  1.0000
  H   H891      1.0  0.04965  0.40236  0.64861  1.0000
  C   C594      1.0  0.07966  0.45657  0.67566  1.0000
  H   H892      1.0  0.08066  0.45583  0.65327  1.0000
  C   C595      1.0  0.02009  0.44315  0.65332  1.0000
  H   H893      1.0  0.07417  0.44101  0.71209  1.0000
  H   H894      1.0  0.04047  0.60738  0.55187  1.0000
  H   H895      1.0  0.03293  0.45896  0.65025  1.0000
  H   H896      1.0  0.04028  0.42983  0.67033  1.0000
  H   H897      1.0  0.06279  0.47564  0.67998  1.0000
  H   H898      1.0  0.03046  0.35296  0.58664  1.0000
  H   H899      1.0  0.06093  0.48164  0.66516  1.0000
  H   H900      1.0  0.06602  0.34334  0.64572  1.0000
  C   C596      1.0  0.04301  0.62470  0.55040  1.0000
  H   H901      1.0  0.06155  0.41343  0.65325  1.0000
  C   C597      1.0  0.06678  0.55804  0.56930  1.0000
  H   H902      1.0  0.11242  0.47214  0.73611  1.0000
  H   H903      1.0  0.05718  0.56197  0.56996  1.0000
  H   H904      1.0  0.05834  0.35025  0.66461  1.0000
  H   H905      1.0  0.02252  0.50171  0.61065  1.0000
  C   C598      1.0  0.01380  0.47287  0.73671  1.0000
  H   H906      1.0  0.11825  0.48736  0.71820  1.0000
  C   C599      1.0  0.10025  0.44358  0.73480  1.0000
  H   H907      1.0  0.02610  0.45516  0.66560  1.0000
  H   H908      1.0  0.10415  0.50443  0.73475  1.0000
  C   C600      1.0  0.04120  0.43668  0.64702  1.0000
  N   N58       1.0  0.04530  0.40332  0.58550  1.0000
  C   C601      1.0  0.03036  0.63402  0.52683  1.0000
  C   C602      1.0  0.01649  0.36859  0.58660  1.0000
  H   H909      1.0  0.03624  0.41743  0.59463  1.0000
  H   H910      1.0  0.99938  0.62112  0.53499  1.0000
  Fe  Fe124     1.0  0.05667  0.43605  0.70674  1.0000
  N   N59       1.0  0.03156  0.44084  0.65657  1.0000
  H   H911      1.0  0.00258  0.64765  0.50191  1.0000
  S   S243      1.0  0.00694  0.66012  0.54915  1.0000
  C   C603      1.0  0.11138  0.42671  0.72649  1.0000
  H   H912      1.0  0.10047  0.47197  0.73013  1.0000
  C   C604      1.0  0.04824  0.63987  0.51475  1.0000
  H   H913      1.0  0.06889  0.55810  0.57765  1.0000
  C   C605      1.0  0.03272  0.34516  0.50321  1.0000
  C   C606      1.0  0.99900  0.61122  0.49698  1.0000
  C   C607      1.0  0.08033  0.41769  0.73998  1.0000
  S   S244      1.0  0.00680  0.53074  0.71692  1.0000
  H   H914      1.0  0.05832  0.34987  0.63394  1.0000
  H   H915      1.0  0.04602  0.66089  0.56044  1.0000
  H   H916      1.0  0.05444  0.37465  0.64828  1.0000
  C   C608      1.0  0.03610  0.53169  0.72492  1.0000
  C   C609      1.0  0.05974  0.51796  0.65417  1.0000
  H   H917      1.0  0.01713  0.36855  0.49700  1.0000
  H   H918      1.0  0.08846  0.52749  0.73885  1.0000
  H   H919      1.0  0.03391  0.65761  0.50435  1.0000
  H   H920      1.0  0.02657  0.63459  0.50553  1.0000
  N   N60       1.0  0.10158  0.48922  0.73069  1.0000
  H   H921      1.0  0.04924  0.54577  0.72654  1.0000
  S   S245      1.0  0.05812  0.42390  0.72406  1.0000
  H   H922      1.0  0.09185  0.44088  0.73598  1.0000
  H   H923      1.0  0.01202  0.58086  0.49703  1.0000
  C   C610      1.0  0.02178  0.51011  0.60393  1.0000
  C   C611      1.0  0.02631  0.36070  0.59036  1.0000
  C   C612      1.0  0.00963  0.43587  0.72491  1.0000
  N   N61       1.0  0.02440  0.50789  0.59196  1.0000
  S   S246      1.0  0.05296  0.45555  0.70465  1.0000
  S   S247      1.0  0.01013  0.33398  0.57495  1.0000
  H   H924      1.0  0.04308  0.50618  0.58922  1.0000
  H   H925      1.0  0.08931  0.55919  0.56642  1.0000
  H   H926      1.0  0.03805  0.53311  0.71514  1.0000
  C   C613      1.0  0.03428  0.40073  0.58488  1.0000
  C   C614      1.0  0.02930  0.65245  0.51258  1.0000
  H   H927      1.0  0.02398  0.48600  0.71686  1.0000
  H   H928      1.0  0.03824  0.49258  0.59546  1.0000
  Fe  Fe125     1.0  0.00578  0.51322  0.72916  1.0000
  H   H929      1.0  0.04042  0.36591  0.63631  1.0000
  H   H930      1.0  0.01144  0.38839  0.60398  1.0000
  C   C615      1.0  0.00895  0.62711  0.56827  1.0000
  H   H931      1.0  0.01233  0.34438  0.52911  1.0000
  H   H932      1.0  0.03569  0.39142  0.58414  1.0000
  H   H933      1.0  0.01096  0.50519  0.69818  1.0000
  S   S248      1.0  0.99813  0.64396  0.58149  1.0000
  H   H934      1.0  0.06746  0.36313  0.64666  1.0000
  H   H935      1.0  0.00071  0.34112  0.51694  1.0000
  H   H936      1.0  0.03005  0.63860  0.53377  1.0000
  H   H937      1.0  0.08758  0.50404  0.72647  1.0000
  H   H938      1.0  0.03899  0.49924  0.58012  1.0000
  H   H939      1.0  0.09868  0.39050  0.74158  1.0000
  H   H940      1.0  0.01265  0.52805  0.66393  1.0000
  H   H941      1.0  0.02113  0.63382  0.52725  1.0000
  C   C616      1.0  0.04633  0.61340  0.54796  1.0000
  C   C617      1.0  0.04303  0.41571  0.58657  1.0000
  H   H942      1.0  0.05186  0.34051  0.64701  1.0000
  H   H943      1.0  0.08571  0.46829  0.65357  1.0000
  C   C618      1.0  0.02548  0.37281  0.60393  1.0000
  H   H944      1.0  0.07651  0.42499  0.73371  1.0000
  H   H945      1.0  0.07517  0.45557  0.68511  1.0000
  S   S249      1.0  0.03427  0.40729  0.73450  1.0000
  H   H946      1.0  0.08558  0.49011  0.72578  1.0000
  H   H947      1.0  0.03777  0.55889  0.72632  1.0000
  H   H948      1.0  0.04261  0.58369  0.50644  1.0000
  C   C619      1.0  0.06733  0.47591  0.67056  1.0000
  H   H949      1.0  0.03458  0.62737  0.55613  1.0000
  Fe  Fe126     1.0  0.05564  0.66053  0.53490  1.0000
  H   H950      1.0  0.08730  0.46055  0.67439  1.0000
  H   H951      1.0  0.08317  0.44754  0.67385  1.0000
  H   H952      1.0  0.05152  0.40735  0.56671  1.0000
  H   H953      1.0  0.03065  0.42325  0.66654  1.0000
  C   C620      1.0  0.03317  0.45184  0.65836  1.0000
  H   H954      1.0  0.04998  0.43477  0.64922  1.0000
  H   H955      1.0  0.01798  0.49913  0.58262  1.0000
  H   H956      1.0  0.03839  0.35665  0.60180  1.0000
  C   C621      1.0  0.08898  0.49449  0.73069  1.0000
  H   H957      1.0  0.04285  0.55197  0.71386  1.0000
  H   H958      1.0  0.11295  0.43233  0.71746  1.0000
  H   H959      1.0  0.00379  0.60216  0.50050  1.0000
  N   N62       1.0  0.05127  0.35779  0.64904  1.0000
  S   S250      1.0  0.09810  0.66041  0.51339  1.0000
  C   C622      1.0  0.08474  0.45311  0.71077  1.0000
  H   H960      1.0  0.01848  0.43500  0.65209  1.0000
  H   H961      1.0  0.05762  0.39723  0.59689  1.0000
  H   H962      1.0  0.02504  0.51799  0.57419  1.0000
  H   H963      1.0  0.01322  0.63374  0.56198  1.0000
  C   C623      1.0  0.01623  0.34408  0.51997  1.0000
  H   H964      1.0  0.04270  0.39638  0.60407  1.0000
  C   C624      1.0  0.03960  0.36292  0.64600  1.0000
  H   H965      1.0  0.06429  0.53823  0.65457  1.0000
  H   H966      1.0  0.06534  0.51710  0.66038  1.0000
  H   H967      1.0  0.05998  0.36963  0.63472  1.0000
  H   H968      1.0  0.01574  0.65715  0.57647  1.0000
  H   H969      1.0  0.06816  0.54867  0.56880  1.0000
  C   C625      1.0  0.01103  0.61583  0.56596  1.0000
  S   S251      1.0  0.06440  0.40211  0.71015  1.0000
  H   H970      1.0  0.05339  0.54791  0.64669  1.0000
  C   C626      1.0  0.07478  0.52862  0.73013  1.0000
  C   C627      1.0  0.10309  0.47641  0.73561  1.0000
  C   C628      1.0  0.07228  0.52873  0.71949  1.0000
  C   C629      1.0  0.07446  0.45017  0.71040  1.0000
  H   H971      1.0  0.09231  0.56370  0.55063  1.0000
  H   H972      1.0  0.03916  0.53971  0.64178  1.0000
  C   C630      1.0  0.05862  0.36667  0.64446  1.0000
  H   H973      1.0  0.06142  0.56810  0.54828  1.0000
  H   H974      1.0  0.07599  0.56905  0.54007  1.0000
  C   C631      1.0  0.06488  0.45907  0.70730  1.0000
  Fe  Fe127     1.0  0.00478  0.33645  0.55803  1.0000
  C   C632      1.0  0.05440  0.40146  0.57472  1.0000
  H   H975      1.0  0.03531  0.62475  0.52917  1.0000
  H   H976      1.0  0.06223  0.58142  0.56019  1.0000
  H   H977      1.0  0.12064  0.44232  0.74026  1.0000
  N   N63       1.0  0.07400  0.56453  0.55892  1.0000
  C   C633      1.0  0.07089  0.56408  0.54811  1.0000
  H   H978      1.0  0.07686  0.58217  0.55202  1.0000
  H   H979      1.0  0.02800  0.51493  0.60473  1.0000
  H   H980      1.0  0.09235  0.44620  0.71245  1.0000
  C   C634      1.0  0.04354  0.53166  0.66358  1.0000
  H   H981      1.0  0.00692  0.50564  0.59385  1.0000
  C   C635      1.0  0.04950  0.39535  0.59588  1.0000
  H   H982      1.0  0.00663  0.44047  0.71690  1.0000
  H   H983      1.0  0.00580  0.47286  0.73389  1.0000
  C   C636      1.0  0.05903  0.53883  0.64811  1.0000
  H   H984      1.0  0.03865  0.52445  0.66753  1.0000
  H   H985      1.0  0.03690  0.54014  0.66240  1.0000
  C   C637      1.0  0.07169  0.57696  0.55982  1.0000
  C   C638      1.0  0.08664  0.55901  0.55839  1.0000
  C   C639      1.0  0.04512  0.53084  0.64349  1.0000
  N   N64       1.0  0.05185  0.52982  0.65234  1.0000
  H   H986      1.0  0.03950  0.52426  0.64647  1.0000
  C   C640      1.0  0.02778  0.34554  0.51508  1.0000
  C   C641      1.0  0.04081  0.55023  0.72365  1.0000
  H   H987      1.0  0.07242  0.55484  0.54713  1.0000
  S   S252      1.0  0.06034  0.59671  0.53566  1.0000
  H   H988      1.0  0.05106  0.52938  0.63490  1.0000
  H   H989      1.0  0.06539  0.53768  0.63963  1.0000
  C   C642      1.0  0.02115  0.58153  0.49458  1.0000
  H   H990      1.0  0.08867  0.54962  0.55769  1.0000
  C   C643      1.0  0.10870  0.49125  0.71852  1.0000
  H   H991      1.0  0.07397  0.57769  0.56783  1.0000
  H   H992      1.0  0.04134  0.44337  0.63860  1.0000
  C   C644      1.0  0.03672  0.50118  0.58906  1.0000
  H   H993      1.0  0.04431  0.52642  0.72787  1.0000
  C   C645      1.0  0.06125  0.62922  0.53768  1.0000
  H   H994      1.0  0.04009  0.62439  0.50826  1.0000
  Fe  Fe128     1.0  0.01672  0.35070  0.56675  1.0000
  H   H995      1.0  0.05632  0.39220  0.57367  1.0000
  C   C646      1.0  0.06465  0.61783  0.53536  1.0000
  H   H996      1.0  0.12299  0.44335  0.72471  1.0000
  H   H997      1.0  0.03078  0.40658  0.57718  1.0000
  S   S253      1.0  0.00047  0.52918  0.68782  1.0000
  C   C647      1.0  0.01121  0.37861  0.59154  1.0000
  C   C648      1.0  0.02618  0.34312  0.49632  1.0000
  C   C649      1.0  0.12123  0.43737  0.73351  1.0000
  H   H998      1.0  0.00645  0.40932  0.65986  1.0000
  H   H999      1.0  0.05352  0.63068  0.51670  1.0000
  H   H1000     1.0  0.01307  0.48197  0.73762  1.0000
  S   S254      1.0  0.00522  0.59434  0.57015  1.0000
  H   H1001     1.0  0.02190  0.55134  0.71543  1.0000
  C   C650      1.0  0.02073  0.54947  0.72516  1.0000
  H   H1002     1.0  0.11877  0.41877  0.72684  1.0000
  S   S255      1.0  0.00629  0.33878  0.49303  1.0000
  H   H1003     1.0  0.00079  0.61730  0.50137  1.0000
  H   H1004     1.0  0.03582  0.46273  0.74079  1.0000
  H   H1005     1.0  0.02941  0.52617  0.72847  1.0000
  C   C651      1.0  0.03575  0.63392  0.50614  1.0000
  H   H1006     1.0  0.99831  0.62817  0.54660  1.0000
  H   H1007     1.0  0.00537  0.38146  0.49673  1.0000
  H   H1008     1.0  0.01800  0.45647  0.72373  1.0000
  C   C652      1.0  0.02647  0.58257  0.50305  1.0000
  H   H1009     1.0  0.03363  0.45299  0.72184  1.0000
  H   H1010     1.0  0.02838  0.65688  0.51982  1.0000
  H   H1011     1.0  0.11962  0.65905  0.49559  1.0000
  H   H1012     1.0  0.10320  0.42361  0.72771  1.0000
  H   H1013     1.0  0.03278  0.47408  0.70996  1.0000
  C   C653      1.0  0.03515  0.46898  0.73223  1.0000
  H   H1014     1.0  0.00177  0.61234  0.54902  1.0000
  S   S256      1.0  0.99815  0.64865  0.52613  1.0000
  C   C654      1.0  0.02548  0.65618  0.57422  1.0000
  C   C655      1.0  0.00501  0.60747  0.57385  1.0000
  C   C656      1.0  0.00138  0.62976  0.57876  1.0000
  H   H1015     1.0  0.02887  0.65098  0.58218  1.0000
  H   H1016     1.0  0.08389  0.65703  0.49947  1.0000
  H   H1017     1.0  0.09899  0.44862  0.74164  1.0000
  H   H1018     1.0  0.03240  0.55310  0.81470  1.0000
  C   C657      1.0  0.03558  0.46319  0.79291  1.0000
  H   H1019     1.0  0.99944  0.53522  0.74909  1.0000
  H   H1020     1.0  0.03294  0.40058  0.76130  1.0000
  S   S257      1.0  0.29526  0.48289  0.97479  1.0000
  H   H1021     1.0  0.02624  0.49823  0.75789  1.0000
  N   N65       1.0  0.25021  0.52116  0.96402  1.0000
  H   H1022     1.0  0.03485  0.40599  0.77284  1.0000
  C   C658      1.0  0.09051  0.39905  0.75624  1.0000
  H   H1023     1.0  0.00370  0.39988  0.77909  1.0000
  C   C659      1.0  0.32394  0.52217  0.91768  1.0000
  S   S258      1.0  0.10601  0.45264  0.76085  1.0000
  Fe  Fe129     1.0  0.29126  0.54916  0.94972  1.0000
  S   S259      1.0  0.28594  0.56577  0.95665  1.0000
  S   S260      1.0  0.30165  0.54940  0.93119  1.0000
  Fe  Fe130     1.0  0.28047  0.53455  0.97287  1.0000
  S   S261      1.0  0.27494  0.54986  0.98164  1.0000
  C   C660      1.0  0.08078  0.46888  0.89841  1.0000
  Fe  Fe131     1.0  0.26880  0.56004  0.96518  1.0000
  S   S262      1.0  0.24977  0.56990  0.96777  1.0000
  Fe  Fe132     1.0  0.29261  0.55371  0.97231  1.0000
  H   H1024     1.0  0.99953  0.41967  0.76692  1.0000
  S   S263      1.0  0.27360  0.54452  0.95678  1.0000
  S   S264      1.0  0.29884  0.53738  0.96495  1.0000
  S   S265      1.0  0.01743  0.51327  0.82601  1.0000
  Fe  Fe133     1.0  0.18239  0.55311  0.93922  1.0000
  S   S266      1.0  0.16882  0.55728  0.95529  1.0000
  S   S267      1.0  0.18027  0.54884  0.92314  1.0000
  Fe  Fe134     1.0  0.20307  0.55335  0.94857  1.0000
  S   S268      1.0  0.19170  0.55755  0.96566  1.0000
  S   S269      1.0  0.22280  0.55051  0.94191  1.0000
  Fe  Fe135     1.0  0.18187  0.54451  0.96529  1.0000
  S   S270      1.0  0.17679  0.53012  0.98048  1.0000
  Fe  Fe136     1.0  0.17937  0.57012  0.95458  1.0000
  S   S271      1.0  0.17005  0.58818  0.95777  1.0000
  S   S272      1.0  0.19446  0.53897  0.94934  1.0000
  S   S273      1.0  0.19172  0.56727  0.93744  1.0000
  Fe  Fe137     1.0  0.08828  0.44888  0.77085  1.0000
  S   S274      1.0  0.08716  0.43410  0.78678  1.0000
  Fe  Fe138     1.0  0.00613  0.51835  0.81287  1.0000
  Fe  Fe139     1.0  0.06244  0.45246  0.77015  1.0000
  S   S275      1.0  0.05949  0.43807  0.78612  1.0000
  S   S276      1.0  0.04747  0.46150  0.76095  1.0000
  Fe  Fe140     1.0  0.06986  0.44588  0.79348  1.0000
  S   S277      1.0  0.06223  0.44920  0.81189  1.0000
  Fe  Fe141     1.0  0.07688  0.42808  0.77759  1.0000
  S   S278      1.0  0.07987  0.40967  0.77493  1.0000
  S   S279      1.0  0.07156  0.46113  0.77802  1.0000
  S   S280      1.0  0.07922  0.44206  0.76125  1.0000
  Fe  Fe142     1.0  0.06743  0.50320  0.78123  1.0000
  S   S281      1.0  0.05744  0.52190  0.77691  1.0000
  S   S282      1.0  0.05784  0.48878  0.79038  1.0000
  Fe  Fe143     1.0  0.09112  0.50934  0.77019  1.0000
  S   S283      1.0  0.08342  0.52865  0.76469  1.0000
  S   S284      1.0  0.11035  0.50063  0.76708  1.0000
  Fe  Fe144     1.0  0.07151  0.52615  0.78273  1.0000
  S   S285      1.0  0.06708  0.53951  0.79390  1.0000
  Fe  Fe145     1.0  0.07012  0.52262  0.75935  1.0000
  C   C661      1.0  0.11879  0.46879  0.75881  1.0000
  S   S286      1.0  0.08035  0.50734  0.78858  1.0000
  S   S287      1.0  0.07889  0.50349  0.76320  1.0000
  Fe  Fe146     1.0  0.13145  0.49067  0.92669  1.0000
  S   S288      1.0  0.14327  0.47548  0.93653  1.0000
  S   S289      1.0  0.11561  0.49189  0.91928  1.0000
  Fe  Fe147     1.0  0.13997  0.50890  0.93327  1.0000
  S   S290      1.0  0.15258  0.49564  0.94349  1.0000
  S   S291      1.0  0.13526  0.52840  0.93238  1.0000
  Fe  Fe148     1.0  0.15708  0.48637  0.92861  1.0000
  S   S292      1.0  0.17610  0.47733  0.92289  1.0000
  Fe  Fe149     1.0  0.13819  0.48568  0.95081  1.0000
  S   S293      1.0  0.13286  0.47786  0.97017  1.0000
  S   S294      1.0  0.14578  0.50067  0.91751  1.0000
  S   S295      1.0  0.12515  0.49977  0.94195  1.0000
  Fe  Fe150     1.0  0.09525  0.48443  0.86496  1.0000
  S   S296      1.0  0.07678  0.49348  0.87242  1.0000
  S   S297      1.0  0.11180  0.48115  0.87193  1.0000
  Fe  Fe151     1.0  0.08754  0.47882  0.84523  1.0000
  S   S298      1.0  0.06850  0.48727  0.85122  1.0000
  S   S299      1.0  0.09468  0.47141  0.82880  1.0000
  Fe  Fe152     1.0  0.07563  0.50150  0.85356  1.0000
  S   S300      1.0  0.06786  0.52080  0.84798  1.0000
  Fe  Fe153     1.0  0.07142  0.47840  0.86939  1.0000
  S   S301      1.0  0.05914  0.46789  0.88292  1.0000
  S   S302      1.0  0.09455  0.49377  0.84622  1.0000
  S   S303      1.0  0.08996  0.46870  0.86321  1.0000
  Fe  Fe154     1.0  0.23055  0.48856  0.96380  1.0000
  S   S304      1.0  0.23919  0.49548  0.94521  1.0000
  S   S305      1.0  0.22757  0.49808  0.97803  1.0000
  Fe  Fe155     1.0  0.22848  0.46642  0.95886  1.0000
  S   S306      1.0  0.23717  0.47085  0.93967  1.0000
  S   S307      1.0  0.22011  0.45121  0.96871  1.0000
  Fe  Fe156     1.0  0.24986  0.47693  0.94606  1.0000
  S   S308      1.0  0.26973  0.47302  0.94053  1.0000
  Fe  Fe157     1.0  0.22583  0.48900  0.94045  1.0000
  S   S309      1.0  0.21448  0.50079  0.92808  1.0000
  S   S310      1.0  0.24227  0.47057  0.96510  1.0000
  S   S311      1.0  0.21615  0.48402  0.95903  1.0000
  S   S312      1.0  0.01606  0.52026  0.79404  1.0000
  H   H1025     1.0  0.00664  0.44756  0.82935  1.0000
  H   H1026     1.0  0.19987  0.45145  0.95698  1.0000
  C   C662      1.0  0.31776  0.53358  0.91909  1.0000
  C   C663      1.0  0.15298  0.48934  0.98445  1.0000
  C   C664      1.0  0.16210  0.52690  0.95911  1.0000
  C   C665      1.0  0.00083  0.48032  0.77804  1.0000
  H   H1027     1.0  0.16163  0.53003  0.94968  1.0000
  H   H1028     1.0  0.31087  0.47046  0.92667  1.0000
  H   H1029     1.0  0.08387  0.47517  0.90141  1.0000
  H   H1030     1.0  0.16937  0.51888  0.95982  1.0000
  H   H1031     1.0  0.05018  0.39042  0.74837  1.0000
  C   C666      1.0  0.00946  0.43486  0.74520  1.0000
  H   H1032     1.0  0.04429  0.46239  0.79487  1.0000
  H   H1033     1.0  0.04510  0.55293  0.80280  1.0000
  C   C667      1.0  0.03591  0.53415  0.80582  1.0000
  C   C668      1.0  0.99886  0.49033  0.78252  1.0000
  C   C669      1.0  0.14753  0.51551  0.96275  1.0000
  N   N66       1.0  0.18649  0.46675  0.96094  1.0000
  H   H1034     1.0  0.26405  0.51252  0.95165  1.0000
  H   H1035     1.0  0.02205  0.42040  0.75288  1.0000
  S   S313      1.0  0.32995  0.47182  0.97606  1.0000
  C   C670      1.0  0.03834  0.39873  0.76795  1.0000
  C   C671      1.0  0.13790  0.48282  0.97981  1.0000
  H   H1036     1.0  0.33021  0.53585  0.96542  1.0000
  H   H1037     1.0  0.02591  0.54886  0.74526  1.0000
  H   H1038     1.0  0.15449  0.48474  0.96799  1.0000
  H   H1039     1.0  0.19427  0.46108  0.94458  1.0000
  C   C672      1.0  0.18678  0.48420  0.92373  1.0000
  C   C673      1.0  0.19834  0.47761  0.92379  1.0000
  C   C674      1.0  0.20679  0.48255  0.92546  1.0000
  C   C675      1.0  0.20385  0.49429  0.92657  1.0000
  C   C676      1.0  0.19237  0.50099  0.92625  1.0000
  C   C677      1.0  0.18380  0.49591  0.92499  1.0000
  H   H1040     1.0  0.20072  0.46859  0.92270  1.0000
  H   H1041     1.0  0.21567  0.47737  0.92556  1.0000
  H   H1042     1.0  0.19007  0.51006  0.92714  1.0000
  H   H1043     1.0  0.17493  0.50107  0.92489  1.0000
  C   C678      1.0  0.11487  0.48894  0.90598  1.0000
  C   C679      1.0  0.10379  0.49165  0.90308  1.0000
  C   C680      1.0  0.10272  0.48955  0.89258  1.0000
  C   C681      1.0  0.11273  0.48458  0.88493  1.0000
  C   C682      1.0  0.12381  0.48191  0.88781  1.0000
  C   C683      1.0  0.12490  0.48414  0.89825  1.0000
  H   H1044     1.0  0.09599  0.49544  0.90898  1.0000
  H   H1045     1.0  0.09417  0.49178  0.89040  1.0000
  H   H1046     1.0  0.13161  0.47805  0.88194  1.0000
  H   H1047     1.0  0.13348  0.48200  0.90036  1.0000
  H   H1048     1.0  0.22661  0.51951  0.92282  1.0000
  C   C684      1.0  0.06717  0.53396  0.80894  1.0000
  C   C685      1.0  0.06847  0.52189  0.81400  1.0000
  C   C686      1.0  0.06882  0.51771  0.82597  1.0000
  C   C687      1.0  0.06751  0.52566  0.83299  1.0000
  C   C688      1.0  0.06580  0.53775  0.82801  1.0000
  C   C689      1.0  0.06571  0.54188  0.81602  1.0000
  H   H1049     1.0  0.06911  0.51576  0.80877  1.0000
  H   H1050     1.0  0.06994  0.50837  0.82980  1.0000
  H   H1051     1.0  0.06475  0.54392  0.83342  1.0000
  H   H1052     1.0  0.06464  0.55122  0.81221  1.0000
  H   H1053     1.0  0.00607  0.43855  0.75300  1.0000
  H   H1054     1.0  0.13279  0.53403  0.97136  1.0000
  H   H1055     1.0  0.17594  0.48427  0.96152  1.0000
  H   H1056     1.0  0.26901  0.51907  0.96047  1.0000
  H   H1057     1.0  0.02989  0.50885  0.77057  1.0000
  H   H1058     1.0  0.23683  0.58200  0.98849  1.0000
  H   H1059     1.0  0.24559  0.47849  0.98452  1.0000
  H   H1060     1.0  0.23845  0.53310  0.97463  1.0000
  H   H1061     1.0  0.24840  0.53966  0.96227  1.0000
  H   H1062     1.0  0.29262  0.48926  0.93757  1.0000
  C   C690      1.0  0.10855  0.46457  0.76459  1.0000
  H   H1063     1.0  0.03924  0.51241  0.74885  1.0000
  H   H1064     1.0  0.25201  0.57693  0.98929  1.0000
  C   C691      1.0  0.11067  0.48597  0.76753  1.0000
  C   C692      1.0  0.10083  0.48133  0.77387  1.0000
  C   C693      1.0  0.09983  0.47060  0.77248  1.0000
  H   H1065     1.0  0.03180  0.47272  0.78985  1.0000
  C   C694      1.0  0.05354  0.48683  0.76381  1.0000
  H   H1066     1.0  0.09376  0.48614  0.77964  1.0000
  H   H1067     1.0  0.09213  0.46720  0.77731  1.0000
  C   C695      1.0  0.07118  0.45550  0.81653  1.0000
  C   C696      1.0  0.08155  0.45830  0.80897  1.0000
  C   C697      1.0  0.08869  0.46315  0.81283  1.0000
  C   C698      1.0  0.08543  0.46542  0.82420  1.0000
  C   C699      1.0  0.07503  0.46266  0.83177  1.0000
  C   C700      1.0  0.06799  0.45760  0.82797  1.0000
  H   H1068     1.0  0.08413  0.45665  0.80017  1.0000
  H   H1069     1.0  0.09679  0.46507  0.80696  1.0000
  H   H1070     1.0  0.07264  0.46411  0.84063  1.0000
  H   H1071     1.0  0.06023  0.45506  0.83395  1.0000
  S   S314      1.0  0.06327  0.52948  0.74271  1.0000
  C   C701      1.0  0.16007  0.59875  0.97656  1.0000
  H   H1072     1.0  0.16162  0.49135  0.98194  1.0000
  H   H1073     1.0  0.14614  0.51871  0.95358  1.0000
  H   H1074     1.0  0.15807  0.60685  0.97017  1.0000
  H   H1075     1.0  0.01184  0.46914  0.79803  1.0000
  C   C702      1.0  0.19040  0.52059  0.98183  1.0000
  C   C703      1.0  0.19968  0.52514  0.98216  1.0000
  C   C704      1.0  0.21096  0.51787  0.98197  1.0000
  C   C705      1.0  0.21306  0.50623  0.98082  1.0000
  C   C706      1.0  0.20368  0.50152  0.98101  1.0000
  C   C707      1.0  0.19227  0.50868  0.98167  1.0000
  C   C708      1.0  0.10824  0.42550  0.74737  1.0000
  H   H1076     1.0  0.15349  0.52715  0.98243  1.0000
  H   H1077     1.0  0.00151  0.51972  0.84726  1.0000
  H   H1078     1.0  0.01189  0.40290  0.75751  1.0000
  C   C709      1.0  0.16773  0.54325  0.92567  1.0000
  C   C710      1.0  0.15661  0.54943  0.93061  1.0000
  C   C711      1.0  0.14659  0.54501  0.93228  1.0000
  C   C712      1.0  0.14775  0.53417  0.92952  1.0000
  C   C713      1.0  0.15888  0.52793  0.92473  1.0000
  C   C714      1.0  0.16884  0.53259  0.92258  1.0000
  H   H1079     1.0  0.15572  0.55775  0.93286  1.0000
  H   H1080     1.0  0.13795  0.54993  0.93585  1.0000
  H   H1081     1.0  0.15979  0.51962  0.92245  1.0000
  H   H1082     1.0  0.17741  0.52790  0.91859  1.0000
  C   C715      1.0  0.02951  0.50377  0.81909  1.0000
  C   C716      1.0  0.04099  0.50522  0.81726  1.0000
  C   C717      1.0  0.05002  0.50007  0.80882  1.0000
  C   C718      1.0  0.04761  0.49312  0.80263  1.0000
  C   C719      1.0  0.03642  0.49077  0.80535  1.0000
  C   C720      1.0  0.02735  0.49618  0.81348  1.0000
  H   H1083     1.0  0.04277  0.51098  0.82169  1.0000
  H   H1084     1.0  0.05875  0.50174  0.80684  1.0000
  H   H1085     1.0  0.03457  0.48552  0.80048  1.0000
  H   H1086     1.0  0.01853  0.49494  0.81494  1.0000
  C   C721      1.0  0.02251  0.43641  0.77320  1.0000
  C   C722      1.0  0.01814  0.44849  0.76934  1.0000
  C   C723      1.0  0.02592  0.45618  0.76501  1.0000
  C   C724      1.0  0.03799  0.45180  0.76464  1.0000
  C   C725      1.0  0.04236  0.43969  0.76805  1.0000
  C   C726      1.0  0.03462  0.43205  0.77250  1.0000
  H   H1087     1.0  0.00880  0.45187  0.76970  1.0000
  H   H1088     1.0  0.02263  0.46552  0.76208  1.0000
  H   H1089     1.0  0.05172  0.43619  0.76731  1.0000
  H   H1090     1.0  0.03801  0.42280  0.77573  1.0000
  H   H1091     1.0  0.12064  0.51486  0.92075  1.0000
  C   C727      1.0  0.02396  0.47285  0.88578  1.0000
  C   C728      1.0  0.03572  0.46771  0.88676  1.0000
  C   C729      1.0  0.04428  0.47452  0.88254  1.0000
  C   C730      1.0  0.04101  0.48653  0.87758  1.0000
  C   C731      1.0  0.02922  0.49172  0.87694  1.0000
  H   H1092     1.0  0.22108  0.46774  0.98172  1.0000
  H   H1093     1.0  0.03822  0.45841  0.89058  1.0000
  H   H1094     1.0  0.04757  0.49185  0.87431  1.0000
  H   H1095     1.0  0.00974  0.47560  0.77518  1.0000
  C   C732      1.0  0.24222  0.56459  0.96057  1.0000
  H   H1096     1.0  0.16472  0.53375  0.96170  1.0000
  C   C733      1.0  0.24106  0.55877  0.94334  1.0000
  C   C734      1.0  0.23008  0.55607  0.94914  1.0000
  C   C735      1.0  0.22529  0.55739  0.96075  1.0000
  C   C736      1.0  0.23139  0.56157  0.96647  1.0000
  H   H1097     1.0  0.09452  0.39184  0.76249  1.0000
  H   H1098     1.0  0.29847  0.50166  0.92857  1.0000
  H   H1099     1.0  0.21708  0.55483  0.96543  1.0000
  H   H1100     1.0  0.22786  0.56211  0.97559  1.0000
  C   C737      1.0  0.32087  0.51236  0.92608  1.0000
  H   H1101     1.0  0.06462  0.38750  0.75113  1.0000
  H   H1102     1.0  0.00967  0.45545  0.80796  1.0000
  H   H1103     1.0  0.02675  0.44060  0.81445  1.0000
  H   H1104     1.0  0.02059  0.45903  0.82144  1.0000
  H   H1105     1.0  0.27609  0.46104  0.98320  1.0000
  N   N67       1.0  0.20086  0.58696  0.97541  1.0000
  H   H1106     1.0  0.26235  0.48575  0.98540  1.0000
  H   H1107     1.0  0.08933  0.43982  0.89745  1.0000
  H   H1108     1.0  0.17092  0.56931  0.97847  1.0000
  C   C738      1.0  0.05260  0.40921  0.75417  1.0000
  H   H1109     1.0  0.31964  0.48705  0.91341  1.0000
  C   C739      1.0  0.07781  0.41836  0.75186  1.0000
  H   H1110     1.0  0.20526  0.49240  0.98051  1.0000
  H   H1111     1.0  0.26222  0.52826  0.94866  1.0000
  C   C740      1.0  0.29004  0.49280  0.91544  1.0000
  C   C741      1.0  0.28807  0.48008  0.96539  1.0000
  C   C742      1.0  0.29263  0.47006  0.96052  1.0000
  C   C743      1.0  0.28682  0.46782  0.95310  1.0000
  C   C744      1.0  0.27638  0.47555  0.95054  1.0000
  C   C745      1.0  0.27169  0.48551  0.95553  1.0000
  C   C746      1.0  0.27758  0.48778  0.96291  1.0000
  H   H1112     1.0  0.30051  0.46386  0.96269  1.0000
  H   H1113     1.0  0.29039  0.45999  0.94944  1.0000
  H   H1114     1.0  0.26363  0.49150  0.95358  1.0000
  H   H1115     1.0  0.27411  0.49554  0.96665  1.0000
  C   C747      1.0  0.00259  0.54284  0.76169  1.0000
  H   H1116     1.0  0.18508  0.50516  0.98142  1.0000
  C   C748      1.0  0.03566  0.54838  0.78742  1.0000
  C   C749      1.0  0.30852  0.53516  0.92890  1.0000
  C   C750      1.0  0.30517  0.52535  0.93707  1.0000
  C   C751      1.0  0.31125  0.51396  0.93557  1.0000
  S   S315      1.0  0.30297  0.55762  0.98300  1.0000
  H   H1117     1.0  0.18959  0.59557  0.98929  1.0000
  H   H1118     1.0  0.29790  0.52653  0.94455  1.0000
  H   H1119     1.0  0.30845  0.50644  0.94179  1.0000
  H   H1120     1.0  0.24170  0.51114  0.98007  1.0000
  H   H1121     1.0  0.04548  0.54660  0.78496  1.0000
  H   H1122     1.0  0.19271  0.45621  0.97638  1.0000
  N   N68       1.0  0.04319  0.49635  0.76150  1.0000
  H   H1123     1.0  0.22947  0.52770  0.90156  1.0000
  N   N69       1.0  0.03130  0.54653  0.80033  1.0000
  C   C752      1.0  0.25025  0.51046  0.97352  1.0000
  H   H1124     1.0  0.12756  0.48303  0.75550  1.0000
  H   H1125     1.0  0.07458  0.44872  0.90067  1.0000
  N   N70       1.0  0.03342  0.47392  0.84763  1.0000
  C   C753      1.0  0.02400  0.46786  0.85515  1.0000
  C   C754      1.0  0.04408  0.46940  0.85261  1.0000
  C   C755      1.0  0.02929  0.48674  0.84714  1.0000
  C   C756      1.0  0.03628  0.47173  0.83562  1.0000
  H   H1126     1.0  0.01582  0.47109  0.85165  1.0000
  H   H1127     1.0  0.02160  0.46935  0.86428  1.0000
  H   H1128     1.0  0.02674  0.45816  0.85573  1.0000
  H   H1129     1.0  0.05135  0.47378  0.84713  1.0000
  H   H1130     1.0  0.04226  0.47101  0.86161  1.0000
  H   H1131     1.0  0.04741  0.45973  0.85324  1.0000
  H   H1132     1.0  0.02133  0.49048  0.84331  1.0000
  H   H1133     1.0  0.03624  0.49159  0.84172  1.0000
  H   H1134     1.0  0.02688  0.48870  0.85605  1.0000
  H   H1135     1.0  0.02844  0.47517  0.83160  1.0000
  H   H1136     1.0  0.03931  0.46213  0.83567  1.0000
  H   H1137     1.0  0.04345  0.47610  0.82973  1.0000
  C   C757      1.0  0.08390  0.44899  0.89610  1.0000
  C   C758      1.0  0.05795  0.39509  0.77133  1.0000
  C   C759      1.0  0.24106  0.52246  0.95755  1.0000
  H   H1138     1.0  0.21320  0.59791  0.97185  1.0000
  H   H1139     1.0  0.05104  0.48002  0.77178  1.0000
  C   C760      1.0  0.10061  0.45726  0.89381  1.0000
  H   H1140     1.0  0.20657  0.56802  0.97946  1.0000
  H   H1141     1.0  0.24083  0.53042  0.95028  1.0000
  H   H1142     1.0  0.24259  0.51465  0.95374  1.0000
  H   H1143     1.0  0.23211  0.52332  0.96345  1.0000
  H   H1144     1.0  0.32394  0.57376  0.98387  1.0000
  S   S316      1.0  0.27597  0.51694  0.98200  1.0000
  C   C761      1.0  0.21185  0.58897  0.97674  1.0000
  H   H1145     1.0  0.01686  0.45566  0.79279  1.0000
  H   H1146     1.0  0.21771  0.55211  0.91784  1.0000
  H   H1147     1.0  0.20077  0.52889  0.92267  1.0000
  H   H1148     1.0  0.20180  0.53633  0.90755  1.0000
  H   H1149     1.0  0.25725  0.50901  0.97840  1.0000
  H   H1150     1.0  0.30821  0.48823  0.93391  1.0000
  H   H1151     1.0  0.05760  0.48228  0.75633  1.0000
  H   H1152     1.0  0.18238  0.46988  0.97845  1.0000
  H   H1153     1.0  0.19822  0.53431  0.98244  1.0000
  H   H1154     1.0  0.21813  0.52143  0.98219  1.0000
  S   S317      1.0  0.01088  0.49493  0.78357  1.0000
  H   H1155     1.0  0.10661  0.44837  0.89498  1.0000
  H   H1156     1.0  0.05675  0.38673  0.77777  1.0000
  S   S318      1.0  0.00623  0.49167  0.87903  1.0000
  H   H1157     1.0  0.02677  0.50104  0.87315  1.0000
  H   H1158     1.0  0.03794  0.48743  0.75136  1.0000
  H   H1159     1.0  0.01741  0.46753  0.88892  1.0000
  C   C762      1.0  0.18304  0.47937  0.95542  1.0000
  H   H1160     1.0  0.07157  0.42591  0.75474  1.0000
  H   H1161     1.0  0.09758  0.47459  0.74469  1.0000
  H   H1162     1.0  0.10424  0.46319  0.89675  1.0000
  C   C763      1.0  0.02070  0.48488  0.88086  1.0000
  C   C764      1.0  0.31113  0.49128  0.91059  1.0000
  H   H1163     1.0  0.31187  0.48878  0.90219  1.0000
  C   C765      1.0  0.13087  0.48370  0.99104  1.0000
  C   C766      1.0  0.20707  0.53052  0.91402  1.0000
  C   C767      1.0  0.05507  0.38844  0.75548  1.0000
  H   H1164     1.0  0.19067  0.48372  0.95264  1.0000
  C   C768      1.0  0.21103  0.54783  0.91704  1.0000
  H   H1165     1.0  0.20425  0.54753  0.92537  1.0000
  H   H1166     1.0  0.21086  0.52189  0.91136  1.0000
  H   H1167     1.0  0.21561  0.52735  0.93298  1.0000
  N   N71       1.0  0.15072  0.52453  0.96663  1.0000
  H   H1168     1.0  0.30456  0.47110  0.91464  1.0000
  H   H1169     1.0  0.32888  0.44584  0.98810  1.0000
  N   N72       1.0  0.21637  0.53586  0.91475  1.0000
  H   H1170     1.0  0.20650  0.55365  0.90998  1.0000
  C   C769      1.0  0.24710  0.56307  0.94902  1.0000
  C   C770      1.0  0.14898  0.48561  0.97655  1.0000
  H   H1171     1.0  0.22110  0.54204  0.89604  1.0000
  C   C771      1.0  0.22214  0.52850  0.92443  1.0000
  H   H1172     1.0  0.11832  0.49744  0.81843  1.0000
  H   H1173     1.0  0.10889  0.51138  0.78996  1.0000
  C   C772      1.0  0.01842  0.42454  0.74515  1.0000
  H   H1174     1.0  0.20909  0.58079  0.95932  1.0000
  S   S319      1.0  0.01309  0.42656  0.77895  1.0000
  C   C773      1.0  0.30004  0.49188  0.93042  1.0000
  H   H1175     1.0  0.22882  0.53255  0.92561  1.0000
  H   H1176     1.0  0.15461  0.50733  0.96287  1.0000
  H   H1177     1.0  0.01503  0.54323  0.79976  1.0000
  C   C774      1.0  0.11991  0.47947  0.76038  1.0000
  C   C775      1.0  0.22523  0.53661  0.90351  1.0000
  H   H1178     1.0  0.23231  0.54068  0.90376  1.0000
  H   H1179     1.0  0.25163  0.50246  0.97005  1.0000
  H   H1180     1.0  0.12879  0.51044  0.90115  1.0000
  C   C776      1.0  0.20157  0.58758  0.96286  1.0000
  H   H1181     1.0  0.01464  0.54766  0.81284  1.0000
  H   H1182     1.0  0.07898  0.45217  0.91824  1.0000
  H   H1183     1.0  0.10606  0.51834  0.91837  1.0000
  C   C777      1.0  0.03256  0.44497  0.80659  1.0000
  H   H1184     1.0  0.20984  0.43534  0.98875  1.0000
  H   H1185     1.0  0.14373  0.54262  0.96813  1.0000
  H   H1186     1.0  0.09142  0.45833  0.91649  1.0000
  H   H1187     1.0  0.29314  0.52034  0.99139  1.0000
  H   H1188     1.0  0.12341  0.50313  0.79142  1.0000
  C   C778      1.0  0.12190  0.51793  0.89780  1.0000
  H   H1189     1.0  0.13225  0.53603  0.89435  1.0000
  H   H1190     1.0  0.11433  0.51413  0.89838  1.0000
  H   H1191     1.0  0.12551  0.52134  0.88833  1.0000
  H   H1192     1.0  0.03378  0.44049  0.79930  1.0000
  H   H1193     1.0  0.21169  0.58817  0.98616  1.0000
  H   H1194     1.0  0.11121  0.52880  0.92276  1.0000
  H   H1195     1.0  0.09323  0.49574  0.81819  1.0000
  N   N73       1.0  0.11831  0.52723  0.90468  1.0000
  C   C779      1.0  0.12858  0.53208  0.90365  1.0000
  C   C780      1.0  0.11380  0.52215  0.91718  1.0000
  H   H1196     1.0  0.12621  0.53898  0.90891  1.0000
  H   H1197     1.0  0.07142  0.46896  0.90308  1.0000
  H   H1198     1.0  0.24487  0.55766  0.93439  1.0000
  H   H1199     1.0  0.13582  0.52512  0.90704  1.0000
  H   H1200     1.0  0.03281  0.54246  0.78369  1.0000
  C   C781      1.0  0.10892  0.53677  0.90016  1.0000
  C   C782      1.0  0.26190  0.52021  0.95582  1.0000
  Fe  Fe158     1.0  0.31475  0.48067  0.96713  1.0000
  H   H1201     1.0  0.14015  0.53882  0.95643  1.0000
  H   H1202     1.0  0.11201  0.54079  0.89072  1.0000
  H   H1203     1.0  0.10599  0.54391  0.90519  1.0000
  H   H1204     1.0  0.25549  0.56531  0.94442  1.0000
  H   H1205     1.0  0.06045  0.49022  0.76543  1.0000
  H   H1206     1.0  0.09177  0.50788  0.80590  1.0000
  H   H1207     1.0  0.03225  0.55761  0.78297  1.0000
  H   H1208     1.0  0.21972  0.58251  0.97324  1.0000
  H   H1209     1.0  0.10104  0.53337  0.90086  1.0000
  C   C783      1.0  0.03437  0.49139  0.75928  1.0000
  C   C784      1.0  0.26649  0.46317  0.98335  1.0000
  H   H1210     1.0  0.09830  0.50864  0.81712  1.0000
  N   N74       1.0  0.02752  0.45776  0.80329  1.0000
  H   H1211     1.0  0.03477  0.46260  0.81508  1.0000
  C   C785      1.0  0.32423  0.55940  0.96758  1.0000
  H   H1212     1.0  0.17881  0.45154  0.96729  1.0000
  H   H1213     1.0  0.28228  0.49030  0.92226  1.0000
  H   H1214     1.0  0.09375  0.44347  0.91485  1.0000
  S   S320      1.0  0.00089  0.45583  0.85069  1.0000
  H   H1215     1.0  0.15932  0.51248  0.98006  1.0000
  H   H1216     1.0  0.03308  0.52789  0.80254  1.0000
  C   C786      1.0  0.09769  0.50263  0.81193  1.0000
  H   H1217     1.0  0.11692  0.48473  0.79424  1.0000
  H   H1218     1.0  0.11540  0.51354  0.80066  1.0000
  H   H1219     1.0  0.13923  0.51307  0.96849  1.0000
  C   C787      1.0  0.32502  0.54635  0.98660  1.0000
  C   C788      1.0  0.01595  0.45958  0.80041  1.0000
  C   C789      1.0  0.16519  0.58810  0.97285  1.0000
  H   H1220     1.0  0.26509  0.46934  0.97494  1.0000
  H   H1221     1.0  0.16863  0.46523  0.96945  1.0000
  C   C790      1.0  0.16755  0.57763  0.98117  1.0000
  H   H1222     1.0  0.17362  0.46196  0.95505  1.0000
  C   C791      1.0  0.19915  0.57519  0.98235  1.0000
  H   H1223     1.0  0.03164  0.48431  0.76684  1.0000
  H   H1224     1.0  0.31031  0.50100  0.90873  1.0000
  C   C792      1.0  0.10825  0.48879  0.79935  1.0000
  H   H1225     1.0  0.10240  0.49303  0.79305  1.0000
  H   H1226     1.0  0.31054  0.50794  0.98102  1.0000
  H   H1227     1.0  0.03187  0.56391  0.80110  1.0000
  H   H1228     1.0  0.28833  0.50260  0.91308  1.0000
  C   C793      1.0  0.08296  0.40908  0.76000  1.0000
  H   H1229     1.0  0.12565  0.46404  0.75280  1.0000
  H   H1230     1.0  0.19739  0.46983  0.97057  1.0000
  C   C794      1.0  0.15183  0.52024  0.97903  1.0000
  N   N75       1.0  0.10942  0.49737  0.80537  1.0000
  C   C795      1.0  0.11453  0.50678  0.79649  1.0000
  H   H1231     1.0  0.08077  0.47234  0.88893  1.0000
  H   H1232     1.0  0.03683  0.39042  0.77431  1.0000
  H   H1233     1.0  0.05544  0.40222  0.77634  1.0000
  H   H1234     1.0  0.01444  0.55830  0.79907  1.0000
  H   H1235     1.0  0.05146  0.41621  0.75896  1.0000
  C   C796      1.0  0.03794  0.50184  0.77183  1.0000
  C   C797      1.0  0.00360  0.40153  0.75638  1.0000
  C   C798      1.0  0.11722  0.49126  0.81371  1.0000
  H   H1236     1.0  0.11351  0.48414  0.82052  1.0000
  H   H1237     1.0  0.10445  0.48155  0.80571  1.0000
  H   H1238     1.0  0.12612  0.48707  0.80912  1.0000
  H   H1239     1.0  0.17966  0.48050  0.94745  1.0000
  H   H1240     1.0  0.18244  0.59501  0.97850  1.0000
  H   H1241     1.0  0.31916  0.56539  0.96138  1.0000
  H   H1242     1.0  0.08397  0.45209  0.88653  1.0000
  C   C799      1.0  0.08811  0.45250  0.91305  1.0000
  C   C800      1.0  0.19665  0.46086  0.95289  1.0000
  C   C801      1.0  0.31842  0.55387  0.97853  1.0000
  H   H1243     1.0  0.32031  0.54119  0.91273  1.0000
  H   H1244     1.0  0.02359  0.53459  0.74608  1.0000
  H   H1245     1.0  0.05386  0.37975  0.76122  1.0000
  C   C802      1.0  0.02604  0.46330  0.81322  1.0000
  Fe  Fe159     1.0  0.00403  0.51016  0.79238  1.0000
  C   C803      1.0  0.24760  0.53157  0.96920  1.0000
  H   H1246     1.0  0.19094  0.57342  0.98151  1.0000
  H   H1247     1.0  0.04571  0.53185  0.80388  1.0000
  S   S321      1.0  0.00560  0.55255  0.77824  1.0000
  S   S322      1.0  0.32205  0.49676  0.95828  1.0000
  H   H1248     1.0  0.25376  0.53052  0.97493  1.0000
  N   N76       1.0  0.08836  0.45689  0.90035  1.0000
  H   H1249     1.0  0.14369  0.51758  0.98489  1.0000
  H   H1250     1.0  0.03729  0.45887  0.78543  1.0000
  H   H1251     1.0  0.04429  0.50581  0.77367  1.0000
  H   H1252     1.0  0.29040  0.48963  0.90752  1.0000
  H   H1253     1.0  0.20426  0.46516  0.95051  1.0000
  C   C804      1.0  0.01827  0.54907  0.80317  1.0000
  C   C805      1.0  0.03530  0.55449  0.80494  1.0000
  C   C806      1.0  0.14143  0.53549  0.96561  1.0000
  H   H1254     1.0  0.03536  0.49520  0.77989  1.0000
  C   C807      1.0  0.17645  0.46112  0.96332  1.0000
  S   S323      1.0  0.32218  0.47198  0.95173  1.0000
  C   C808      1.0  0.30307  0.47464  0.92262  1.0000
  H   H1255     1.0  0.02165  0.47281  0.81128  1.0000
  H   H1256     1.0  0.10113  0.46066  0.88419  1.0000
  H   H1257     1.0  0.19178  0.60513  0.97487  1.0000
  H   H1258     1.0  0.06754  0.39407  0.76731  1.0000
  H   H1259     1.0  0.03278  0.53239  0.81557  1.0000
  H   H1260     1.0  0.29531  0.47163  0.92893  1.0000
  H   H1261     1.0  0.00678  0.53446  0.76645  1.0000
  N   N77       1.0  0.30107  0.48765  0.91976  1.0000
  H   H1262     1.0  0.31968  0.54082  0.94489  1.0000
  C   C809      1.0  0.18984  0.46564  0.97210  1.0000
  C   C810      1.0  0.19077  0.59609  0.97971  1.0000
  H   H1263     1.0  0.04134  0.44330  0.80875  1.0000
  H   H1264     1.0  0.26401  0.45495  0.98346  1.0000
  N   N78       1.0  0.05098  0.39787  0.76225  1.0000
  H   H1265     1.0  0.19338  0.58606  0.96160  1.0000
  H   H1266     1.0  0.32356  0.52540  0.96309  1.0000
  C   C811      1.0  0.32911  0.57355  0.99024  1.0000
  H   H1267     1.0  0.05144  0.50144  0.74330  1.0000
  Fe  Fe160     1.0  0.33033  0.48754  0.94334  1.0000
  C   C812      1.0  0.21757  0.46056  0.98785  1.0000
  H   H1268     1.0  0.20271  0.59637  0.95733  1.0000
  C   C813      1.0  0.15813  0.59903  0.98847  1.0000
  Fe  Fe161     1.0  0.00155  0.53605  0.79076  1.0000
  H   H1269     1.0  0.01351  0.46700  0.74560  1.0000
  C   C814      1.0  0.21605  0.45141  0.98379  1.0000
  C   C815      1.0  0.31409  0.50515  0.98915  1.0000
  H   H1270     1.0  0.15455  0.60733  0.99127  1.0000
  C   C816      1.0  0.09291  0.39832  0.74441  1.0000
  H   H1271     1.0  0.10737  0.43018  0.75442  1.0000
  H   H1272     1.0  0.31965  0.51129  0.98860  1.0000
  H   H1273     1.0  0.00086  0.50630  0.85805  1.0000
  C   C817      1.0  0.04692  0.50536  0.75112  1.0000
  H   H1274     1.0  0.31994  0.49621  0.98915  1.0000
  H   H1275     1.0  0.99845  0.51747  0.87336  1.0000
  S   S324      1.0  0.32956  0.49820  0.92511  1.0000
  H   H1276     1.0  0.10066  0.49301  0.74731  1.0000
  H   H1277     1.0  0.00507  0.39208  0.75619  1.0000
  C   C818      1.0  0.99800  0.44617  0.83404  1.0000
  C   C819      1.0  0.99845  0.54326  0.75184  1.0000
  H   H1278     1.0  0.03812  0.53632  0.74497  1.0000
  H   H1279     1.0  0.00225  0.40687  0.74755  1.0000
  H   H1280     1.0  0.05324  0.50955  0.75274  1.0000
  H   H1281     1.0  0.04621  0.41253  0.74833  1.0000
  H   H1282     1.0  0.32813  0.54992  0.94675  1.0000
  C   C820      1.0  0.32877  0.54220  0.94311  1.0000
  H   H1283     1.0  0.06154  0.40828  0.74835  1.0000
  H   H1284     1.0  0.32878  0.51990  0.94409  1.0000
  C   C821      1.0  0.00143  0.55323  0.76529  1.0000
  H   H1285     1.0  0.10000  0.42236  0.74924  1.0000
  H   H1286     1.0  0.99870  0.53083  0.86231  1.0000
  H   H1287     1.0  0.11558  0.41757  0.74824  1.0000
  H   H1288     1.0  0.29352  0.49918  0.99227  1.0000
  H   H1289     1.0  0.19842  0.57438  0.99186  1.0000
  H   H1290     1.0  0.23507  0.56159  0.99188  1.0000
  C   C822      1.0  0.21107  0.44241  0.99183  1.0000
  Fe  Fe162     1.0  0.06794  0.77878  0.46040  1.0000
  S   S325      1.0  0.07794  0.76451  0.47256  1.0000
  S   S326      1.0  0.05556  0.79591  0.46354  1.0000
  Fe  Fe163     1.0  0.08108  0.76842  0.43897  1.0000
  S   S327      1.0  0.09304  0.75378  0.44892  1.0000
  S   S328      1.0  0.08090  0.77151  0.41976  1.0000
  Fe  Fe164     1.0  0.07642  0.75205  0.46251  1.0000
  S   S329      1.0  0.07383  0.73360  0.47088  1.0000
  Fe  Fe165     1.0  0.09366  0.76738  0.45811  1.0000
  S   S330      1.0  0.10970  0.76829  0.46337  1.0000
  S   S331      1.0  0.06435  0.76606  0.45222  1.0000
  S   S332      1.0  0.08384  0.78223  0.44640  1.0000
  H   H1291     1.0  0.05245  0.70531  0.42455  1.0000
  H   H1292     1.0  0.02373  0.84863  0.47680  1.0000
  C   C823      1.0  0.24746  0.88586  0.48787  1.0000
  S   S333      1.0  0.00325  0.67428  0.46359  1.0000
  S   S334      1.0  0.00900  0.69738  0.43501  1.0000
  C   C824      1.0  0.29881  0.93294  0.41635  1.0000
  C   C825      1.0  0.01004  0.71847  0.43831  1.0000
  H   H1293     1.0  0.27732  0.92344  0.44560  1.0000
  H   H1294     1.0  0.30012  0.88058  0.46019  1.0000
  H   H1295     1.0  0.30167  0.91463  0.46264  1.0000
  S   S335      1.0  0.06518  0.85048  0.46835  1.0000
  H   H1296     1.0  0.01660  0.88968  0.47167  1.0000
  S   S336      1.0  0.09791  0.84487  0.47128  1.0000
  Fe  Fe166     1.0  0.25395  0.92312  0.44431  1.0000
  S   S337      1.0  0.25567  0.93208  0.45741  1.0000
  H   H1297     1.0  0.03037  0.79568  0.44354  1.0000
  Fe  Fe167     1.0  0.23542  0.91080  0.46206  1.0000
  C   C826      1.0  0.03755  0.70298  0.45486  1.0000
  S   S338      1.0  0.22503  0.89669  0.46962  1.0000
  Fe  Fe168     1.0  0.23594  0.93569  0.46233  1.0000
  H   H1298     1.0  0.20483  0.99101  0.48157  1.0000
  S   S339      1.0  0.23402  0.92779  0.44840  1.0000
  H   H1299     1.0  0.28463  0.97724  0.48233  1.0000
  Fe  Fe169     1.0  0.02367  0.76281  0.45691  1.0000
  C   C827      1.0  0.31054  0.98535  0.47211  1.0000
  S   S340      1.0  0.03526  0.76283  0.46829  1.0000
  Fe  Fe170     1.0  0.02257  0.76144  0.43295  1.0000
  H   H1300     1.0  0.08626  0.69181  0.47011  1.0000
  S   S341      1.0  0.03465  0.76058  0.41524  1.0000
  C   C828      1.0  0.11394  0.87331  0.48929  1.0000
  H   H1301     1.0  0.16392  0.89156  0.45671  1.0000
  H   H1302     1.0  0.03075  0.70735  0.44953  1.0000
  H   H1303     1.0  0.04161  0.70986  0.45561  1.0000
  S   S342      1.0  0.02225  0.77650  0.44046  1.0000
  S   S343      1.0  0.02555  0.74749  0.44910  1.0000
  Fe  Fe171     1.0  0.07235  0.68316  0.44580  1.0000
  H   H1304     1.0  0.06495  0.69941  0.46401  1.0000
  H   H1305     1.0  0.29300  0.90604  0.47439  1.0000
  S   S344      1.0  0.00281  0.76378  0.43746  1.0000
  H   H1306     1.0  0.17260  0.88851  0.47403  1.0000
  N   N79       1.0  0.99791  0.89275  0.47921  1.0000
  S   S345      1.0  0.07843  0.85620  0.49241  1.0000
  N   N80       1.0  0.15744  0.88240  0.47425  1.0000
  H   H1307     1.0  0.31275  0.90710  0.44486  1.0000
  C   C829      1.0  0.25118  0.95873  0.47658  1.0000
  H   H1308     1.0  0.28561  0.93218  0.40788  1.0000
  H   H1309     1.0  0.04835  0.72228  0.43416  1.0000
  Fe  Fe172     1.0  0.07862  0.84617  0.47936  1.0000
  S   S346      1.0  0.05981  0.67164  0.44818  1.0000
  H   H1310     1.0  0.20499  0.89165  0.48775  1.0000
  H   H1311     1.0  0.15174  0.88511  0.45823  1.0000
  H   H1312     1.0  0.04252  0.73683  0.42673  1.0000
  H   H1313     1.0  0.27323  0.98144  0.42855  1.0000
  C   C830      1.0  0.28304  0.92650  0.43744  1.0000
  C   C831      1.0  0.99926  0.72625  0.45570  1.0000
  C   C832      1.0  0.33020  0.98114  0.47575  1.0000
  H   H1314     1.0  0.09337  0.76360  0.48832  1.0000
  H   H1315     1.0  0.20945  0.94111  0.46483  1.0000
  C   C833      1.0  0.28788  0.93115  0.41619  1.0000
  C   C834      1.0  0.14913  0.89312  0.47758  1.0000
  H   H1316     1.0  0.17516  0.87284  0.47538  1.0000
  H   H1317     1.0  0.12173  0.89728  0.49230  1.0000
  H   H1318     1.0  0.01060  0.87677  0.47616  1.0000
  H   H1319     1.0  0.09463  0.71285  0.47054  1.0000
  Fe  Fe173     1.0  0.31351  0.92655  0.47079  1.0000
  H   H1320     1.0  0.26726  0.96995  0.42719  1.0000
  H   H1321     1.0  0.02635  0.71200  0.47393  1.0000
  H   H1322     1.0  0.03921  0.74026  0.40650  1.0000
  H   H1323     1.0  0.01572  0.70897  0.46805  1.0000
  S   S347      1.0  0.26616  0.92596  0.42648  1.0000
  S   S348      1.0  0.00415  0.76540  0.46373  1.0000
  H   H1324     1.0  0.02072  0.69100  0.45966  1.0000
  C   C835      1.0  0.30173  0.93179  0.42707  1.0000
  H   H1325     1.0  0.15026  0.87075  0.48989  1.0000
  Fe  Fe174     1.0  0.00278  0.77779  0.44641  1.0000
  C   C836      1.0  0.31392  0.97565  0.46677  1.0000
  S   S349      1.0  0.00355  0.66563  0.43985  1.0000
  C   C837      1.0  0.11133  0.69319  0.47648  1.0000
  C   C838      1.0  0.19358  0.91354  0.46115  1.0000
  H   H1326     1.0  0.01269  0.88291  0.48703  1.0000
  H   H1327     1.0  0.21927  0.99172  0.48223  1.0000
  H   H1328     1.0  0.21016  0.92695  0.49003  1.0000
  H   H1329     1.0  0.01129  0.80076  0.43939  1.0000
  S   S350      1.0  0.25507  0.90529  0.45634  1.0000
  C   C839      1.0  0.25806  0.92393  0.49044  1.0000
  H   H1330     1.0  0.06247  0.72264  0.40270  1.0000
  C   C840      1.0  0.10917  0.68864  0.45910  1.0000
  C   C841      1.0  0.09964  0.70776  0.46361  1.0000
  Fe  Fe175     1.0  0.06483  0.66352  0.46563  1.0000
  H   H1331     1.0  0.20880  0.92601  0.47093  1.0000
  C   C842      1.0  0.02294  0.70479  0.47288  1.0000
  C   C843      1.0  0.02747  0.68723  0.46513  1.0000
  C   C844      1.0  0.06927  0.71168  0.44772  1.0000
  H   H1332     1.0  0.03989  0.80102  0.44870  1.0000
  H   H1333     1.0  0.10714  0.69803  0.48374  1.0000
  H   H1334     1.0  0.05406  0.85966  0.48943  1.0000
  H   H1335     1.0  0.11954  0.69627  0.47151  1.0000
  H   H1336     1.0  0.11269  0.67916  0.46260  1.0000
  H   H1337     1.0  0.04917  0.68505  0.46875  1.0000
  Fe  Fe176     1.0  0.00580  0.75123  0.45442  1.0000
  C   C845      1.0  0.16854  0.88069  0.47800  1.0000
  C   C846      1.0  0.29620  0.90804  0.46468  1.0000
  H   H1338     1.0  0.14354  0.87321  0.47774  1.0000
  H   H1339     1.0  0.03447  0.68058  0.46078  1.0000
  H   H1340     1.0  0.00855  0.77166  0.48538  1.0000
  C   C847      1.0  0.02725  0.85559  0.48974  1.0000
  H   H1341     1.0  0.14688  0.89224  0.48729  1.0000
  H   H1342     1.0  0.16056  0.96267  0.48891  1.0000
  S   S351      1.0  0.08097  0.82845  0.49164  1.0000
  C   C848      1.0  0.31317  0.89195  0.46608  1.0000
  C   C849      1.0  0.20183  0.89779  0.48033  1.0000
  C   C850      1.0  0.20576  0.90970  0.46060  1.0000
  H   H1343     1.0  0.27812  0.94777  0.45209  1.0000
  H   H1344     1.0  0.29308  0.96794  0.42678  1.0000
  C   C851      1.0  0.20481  0.93616  0.48886  1.0000
  H   H1345     1.0  0.19239  0.92117  0.48793  1.0000
  C   C852      1.0  0.99995  0.79412  0.47616  1.0000
  C   C853      1.0  0.32554  0.96904  0.46552  1.0000
  Fe  Fe177     1.0  0.31205  0.95263  0.46013  1.0000
  H   H1346     1.0  0.01984  0.74680  0.47596  1.0000
  C   C854      1.0  0.29533  0.88885  0.46332  1.0000
  H   H1347     1.0  0.31908  0.89817  0.46405  1.0000
  H   H1348     1.0  0.23835  0.98758  0.46769  1.0000
  H   H1349     1.0  0.31854  0.88374  0.46314  1.0000
  C   C855      1.0  0.18795  0.93068  0.48667  1.0000
  H   H1350     1.0  0.19040  0.91956  0.45367  1.0000
  N   N81       1.0  0.30302  0.89728  0.46036  1.0000
  C   C856      1.0  0.03224  0.75683  0.49219  1.0000
  H   H1351     1.0  0.01866  0.81598  0.44375  1.0000
  C   C857      1.0  0.11503  0.88502  0.48725  1.0000
  C   C858      1.0  0.23402  0.96049  0.46916  1.0000
  C   C859      1.0  0.23198  0.97281  0.46706  1.0000
  C   C860      1.0  0.23969  0.97808  0.46961  1.0000
  H   H1352     1.0  0.27013  0.95044  0.44082  1.0000
  S   S352      1.0  0.30789  0.91199  0.48551  1.0000
  S   S353      1.0  0.30356  0.97104  0.46246  1.0000
  H   H1353     1.0  0.22468  0.97824  0.46315  1.0000
  H   H1354     1.0  0.21118  0.94201  0.48517  1.0000
  C   C861      1.0  0.04666  0.71100  0.41851  1.0000
  H   H1355     1.0  0.30157  0.99055  0.47302  1.0000
  H   H1356     1.0  0.07188  0.71800  0.49197  1.0000
  C   C862      1.0  0.24347  0.95351  0.47412  1.0000
  C   C863      1.0  0.05056  0.85274  0.47649  1.0000
  H   H1357     1.0  0.04463  0.69693  0.44982  1.0000
  H   H1358     1.0  0.28709  0.95635  0.42570  1.0000
  C   C864      1.0  0.04194  0.84980  0.47286  1.0000
  H   H1359     1.0  0.05935  0.73469  0.40993  1.0000
  C   C865      1.0  0.00540  0.80683  0.44465  1.0000
  H   H1360     1.0  0.30231  0.95924  0.48580  1.0000
  H   H1361     1.0  0.04427  0.84632  0.46497  1.0000
  C   C866      1.0  0.20988  0.90178  0.47018  1.0000
  H   H1362     1.0  0.24609  0.89448  0.48159  1.0000
  S   S354      1.0  0.26856  0.90485  0.48093  1.0000
  H   H1363     1.0  0.18518  0.95332  0.48755  1.0000
  H   H1364     1.0  0.24482  0.94406  0.47608  1.0000
  H   H1365     1.0  0.09389  0.70934  0.45733  1.0000
  C   C867      1.0  0.04167  0.69103  0.47341  1.0000
  H   H1366     1.0  0.15803  0.86382  0.47769  1.0000
  Fe  Fe178     1.0  0.00036  0.85255  0.49053  1.0000
  S   S355      1.0  0.00777  0.83347  0.45717  1.0000
  Fe  Fe179     1.0  0.09071  0.66269  0.45552  1.0000
  C   C868      1.0  0.06737  0.70775  0.45993  1.0000
  N   N82       1.0  0.04680  0.72359  0.41657  1.0000
  C   C869      1.0  0.07154  0.72561  0.46185  1.0000
  C   C870      1.0  0.07326  0.72965  0.44964  1.0000
  C   C871      1.0  0.07200  0.72277  0.44260  1.0000
  H   H1367     1.0  0.03761  0.70942  0.42243  1.0000
  S   S356      1.0  0.30230  0.93987  0.45911  1.0000
  C   C872      1.0  0.06850  0.71467  0.46697  1.0000
  H   H1368     1.0  0.07583  0.73797  0.44562  1.0000
  H   H1369     1.0  0.07345  0.72593  0.43315  1.0000
  H   H1370     1.0  0.06715  0.71141  0.47638  1.0000
  C   C873      1.0  0.06933  0.76669  0.41769  1.0000
  C   C874      1.0  0.06544  0.77109  0.40712  1.0000
  C   C875      1.0  0.05508  0.76870  0.40613  1.0000
  C   C876      1.0  0.04850  0.76208  0.41577  1.0000
  C   C877      1.0  0.05274  0.75719  0.42608  1.0000
  C   C878      1.0  0.06326  0.75927  0.42691  1.0000
  H   H1371     1.0  0.07019  0.77670  0.39987  1.0000
  H   H1372     1.0  0.05188  0.77244  0.39809  1.0000
  H   H1373     1.0  0.04790  0.75188  0.43352  1.0000
  H   H1374     1.0  0.06657  0.75525  0.43477  1.0000
  C   C879      1.0  0.04747  0.79541  0.47803  1.0000
  C   C880      1.0  0.02964  0.75522  0.48227  1.0000
  S   S357      1.0  0.32685  0.94933  0.44469  1.0000
  H   H1375     1.0  0.15292  0.90108  0.47353  1.0000
  C   C881      1.0  0.18553  0.90967  0.47135  1.0000
  C   C882      1.0  0.28874  0.96058  0.43200  1.0000
  C   C883      1.0  0.03872  0.80526  0.48077  1.0000
  H   H1376     1.0  0.03341  0.72628  0.43218  1.0000
  S   S358      1.0  0.22523  0.95367  0.46512  1.0000
  H   H1377     1.0  0.03703  0.81308  0.47396  1.0000
  C   C884      1.0  0.11006  0.78078  0.46797  1.0000
  C   C885      1.0  0.12106  0.78216  0.46818  1.0000
  C   C886      1.0  0.12196  0.79168  0.47204  1.0000
  C   C887      1.0  0.11188  0.79994  0.47586  1.0000
  C   C888      1.0  0.10073  0.79848  0.47601  1.0000
  C   C889      1.0  0.09981  0.78892  0.47196  1.0000
  H   H1378     1.0  0.12899  0.77587  0.46524  1.0000
  H   H1379     1.0  0.13059  0.79268  0.47201  1.0000
  S   S359      1.0  0.32148  0.93980  0.47353  1.0000
  H   H1380     1.0  0.09125  0.78771  0.47210  1.0000
  H   H1381     1.0  0.25112  0.92498  0.48606  1.0000
  H   H1382     1.0  0.28495  0.97739  0.44393  1.0000
  N   N83       1.0  0.03240  0.69650  0.46657  1.0000
  C   C890      1.0  0.05896  0.72529  0.41134  1.0000
  H   H1383     1.0  0.29524  0.95393  0.43675  1.0000
  C   C891      1.0  0.09262  0.69051  0.47566  1.0000
  H   H1384     1.0  0.01601  0.71933  0.42978  1.0000
  H   H1385     1.0  0.04991  0.70784  0.41012  1.0000
  H   H1386     1.0  0.11675  0.69229  0.45320  1.0000
  H   H1387     1.0  0.21197  0.91270  0.45271  1.0000
  C   C892      1.0  0.30734  0.90033  0.44745  1.0000
  H   H1388     1.0  0.01905  0.70020  0.48184  1.0000
  Fe  Fe180     1.0  0.09806  0.85355  0.48550  1.0000
  S   S360      1.0  0.08799  0.67081  0.43722  1.0000
  N   N84       1.0  0.27770  0.96474  0.44025  1.0000
  H   H1389     1.0  0.26380  0.95753  0.45310  1.0000
  H   H1390     1.0  0.18352  0.89882  0.48886  1.0000
  S   S361      1.0  0.17035  0.91476  0.47195  1.0000
  H   H1391     1.0  0.27217  0.97371  0.45460  1.0000
  C   C893      1.0  0.15995  0.88378  0.46134  1.0000
  C   C894      1.0  0.26943  0.97367  0.43357  1.0000
  C   C895      1.0  0.24933  0.97098  0.47429  1.0000
  H   H1392     1.0  0.03825  0.68566  0.48216  1.0000
  C   C896      1.0  0.04256  0.72737  0.42793  1.0000
  S   S362      1.0  0.31539  0.93409  0.42720  1.0000
  H   H1393     1.0  0.04176  0.72792  0.39994  1.0000
  N   N85       1.0  0.10319  0.69503  0.46871  1.0000
  C   C897      1.0  0.03975  0.79510  0.44318  1.0000
  C   C898      1.0  0.03030  0.85114  0.47953  1.0000
  Fe  Fe181     1.0  0.25534  0.91452  0.46977  1.0000
  H   H1394     1.0  0.14070  0.89482  0.47474  1.0000
  H   H1395     1.0  0.04346  0.78589  0.44749  1.0000
  N   N86       1.0  0.04639  0.79836  0.43095  1.0000
  C   C899      1.0  0.04169  0.81087  0.42593  1.0000
  C   C900      1.0  0.04516  0.79086  0.42377  1.0000
  C   C901      1.0  0.05899  0.79656  0.43089  1.0000
  H   H1396     1.0  0.04226  0.81678  0.43127  1.0000
  H   H1397     1.0  0.04663  0.81363  0.41676  1.0000
  H   H1398     1.0  0.03224  0.81246  0.42564  1.0000
  H   H1399     1.0  0.05084  0.79235  0.41475  1.0000
  H   H1400     1.0  0.03592  0.79256  0.42283  1.0000
  H   H1401     1.0  0.04778  0.78135  0.42786  1.0000
  H   H1402     1.0  0.06285  0.78713  0.43420  1.0000
  H   H1403     1.0  0.06025  0.80170  0.43660  1.0000
  H   H1404     1.0  0.06431  0.79907  0.42184  1.0000
  C   C902      1.0  0.31873  0.98814  0.47658  1.0000
  Fe  Fe182     1.0  0.10028  0.82784  0.48470  1.0000
  H   H1405     1.0  0.26097  0.97691  0.43957  1.0000
  H   H1406     1.0  0.31290  0.89248  0.44393  1.0000
  H   H1407     1.0  0.28613  0.96349  0.45417  1.0000
  C   C903      1.0  0.28035  0.97006  0.44857  1.0000
  H   H1408     1.0  0.02967  0.73009  0.41234  1.0000
  N   N87       1.0  0.07785  0.82166  0.45410  1.0000
  C   C904      1.0  0.07068  0.81850  0.46610  1.0000
  C   C905      1.0  0.08233  0.81114  0.44883  1.0000
  C   C906      1.0  0.08792  0.82599  0.45464  1.0000
  C   C907      1.0  0.07043  0.83098  0.44678  1.0000
  H   H1409     1.0  0.07576  0.81104  0.47169  1.0000
  H   H1410     1.0  0.06270  0.81577  0.46593  1.0000
  H   H1411     1.0  0.06760  0.82607  0.47056  1.0000
  H   H1412     1.0  0.08766  0.81319  0.43971  1.0000
  H   H1413     1.0  0.08810  0.80397  0.45402  1.0000
  H   H1414     1.0  0.07495  0.80754  0.44850  1.0000
  H   H1415     1.0  0.09372  0.81922  0.46009  1.0000
  H   H1416     1.0  0.08488  0.83395  0.45854  1.0000
  H   H1417     1.0  0.09351  0.82844  0.44573  1.0000
  H   H1418     1.0  0.07554  0.83362  0.43767  1.0000
  H   H1419     1.0  0.06688  0.83906  0.45051  1.0000
  H   H1420     1.0  0.06274  0.82801  0.44624  1.0000
  H   H1421     1.0  0.29186  0.88648  0.47301  1.0000
  S   S363      1.0  0.07606  0.67598  0.46378  1.0000
  H   H1422     1.0  0.06510  0.71994  0.41718  1.0000
  H   H1423     1.0  0.11397  0.68367  0.48062  1.0000
  C   C908      1.0  0.27220  0.95468  0.44686  1.0000
  H   H1424     1.0  0.29595  0.92787  0.44582  1.0000
  C   C909      1.0  0.03901  0.73076  0.40849  1.0000
  H   H1425     1.0  0.25863  0.95324  0.48021  1.0000
  C   C910      1.0  0.29374  0.92875  0.43759  1.0000
  H   H1426     1.0  0.04528  0.69778  0.47507  1.0000
  H   H1427     1.0  0.05256  0.72958  0.48441  1.0000
  H   H1428     1.0  0.02324  0.68235  0.47378  1.0000
  H   H1429     1.0  0.08793  0.69503  0.48307  1.0000
  S   S364      1.0  0.23571  0.91915  0.47627  1.0000
  C   C911      1.0  0.27994  0.92795  0.42676  1.0000
  S   S365      1.0  0.06812  0.70292  0.43877  1.0000
  C   C912      1.0  0.00951  0.81551  0.44697  1.0000
  S   S366      1.0  0.11392  0.81167  0.48052  1.0000
  H   H1430     1.0  0.30497  0.93528  0.40815  1.0000
  C   C913      1.0  0.18966  0.90184  0.48097  1.0000
  C   C914      1.0  0.03185  0.80488  0.49224  1.0000
  S   S367      1.0  0.10548  0.86997  0.48136  1.0000
  H   H1431     1.0  0.00349  0.78907  0.46903  1.0000
  H   H1432     1.0  0.11088  0.89172  0.48073  1.0000
  H   H1433     1.0  0.09498  0.68090  0.47949  1.0000
  N   N88       1.0  0.19661  0.93819  0.48110  1.0000
  H   H1434     1.0  0.10741  0.71159  0.45867  1.0000
  C   C915      1.0  0.20334  0.93517  0.46969  1.0000
  H   H1435     1.0  0.27138  0.95724  0.49212  1.0000
  H   H1436     1.0  0.09292  0.80462  0.47937  1.0000
  H   H1437     1.0  0.16623  0.87587  0.45848  1.0000
  C   C916      1.0  0.02166  0.74829  0.48360  1.0000
  Fe  Fe183     1.0  0.15915  0.91253  0.49028  1.0000
  H   H1438     1.0  0.18148  0.93212  0.48114  1.0000
  C   C917      1.0  0.00506  0.70857  0.44287  1.0000
  C   C918      1.0  0.00566  0.77775  0.49155  1.0000
  N   N89       1.0  0.00700  0.78978  0.48526  1.0000
  H   H1439     1.0  0.05614  0.77759  0.48471  1.0000
  H   H1440     1.0  0.28460  0.95777  0.48087  1.0000
  H   H1441     1.0  0.28826  0.91219  0.46087  1.0000
  C   C919      1.0  0.28117  0.95542  0.49056  1.0000
  H   H1442     1.0  0.02528  0.78562  0.48595  1.0000
  H   H1443     1.0  0.28749  0.89273  0.45926  1.0000
  S   S368      1.0  0.25951  0.97708  0.47700  1.0000
  H   H1444     1.0  0.32835  0.96178  0.46111  1.0000
  H   H1445     1.0  0.00067  0.90032  0.46061  1.0000
  H   H1446     1.0  0.29989  0.90399  0.44285  1.0000
  C   C920      1.0  0.15211  0.87208  0.48012  1.0000
  H   H1447     1.0  0.31020  0.88978  0.47585  1.0000
  C   C921      1.0  0.04953  0.78527  0.48682  1.0000
  H   H1448     1.0  0.24468  0.87963  0.48449  1.0000
  H   H1449     1.0  0.10302  0.68902  0.45359  1.0000
  H   H1450     1.0  0.00348  0.80690  0.48922  1.0000
  S   S369      1.0  0.99977  0.83438  0.49004  1.0000
  H   H1451     1.0  0.99988  0.80353  0.47206  1.0000
  H   H1452     1.0  0.01098  0.73497  0.44118  1.0000
  H   H1453     1.0  0.16698  0.87937  0.48773  1.0000
  C   C922      1.0  0.04748  0.85725  0.48666  1.0000
  H   H1454     1.0  0.00374  0.90884  0.47571  1.0000
  H   H1455     1.0  0.19738  0.93587  0.46387  1.0000
  H   H1456     1.0  0.02084  0.79871  0.47521  1.0000
  H   H1457     1.0  0.02534  0.66177  0.48804  1.0000
  H   H1458     1.0  0.99982  0.90209  0.49105  1.0000
  C   C923      1.0  0.00998  0.88525  0.47846  1.0000
  H   H1459     1.0  0.03835  0.76227  0.49114  1.0000
  H   H1460     1.0  0.18412  0.95258  0.47326  1.0000
  C   C924      1.0  0.19036  0.95073  0.47912  1.0000
  H   H1461     1.0  0.04693  0.71680  0.49236  1.0000
  H   H1462     1.0  0.25711  0.88289  0.48749  1.0000
  H   H1463     1.0  0.19670  0.95661  0.47486  1.0000
  H   H1464     1.0  0.11156  0.76659  0.49125  1.0000
  C   C925      1.0  0.01951  0.78965  0.47953  1.0000
  H   H1465     1.0  0.02270  0.78443  0.47258  1.0000
  S   S370      1.0  0.32833  0.92113  0.45609  1.0000
  C   C926      1.0  0.28117  0.97496  0.49202  1.0000
  C   C927      1.0  0.26784  0.91457  0.48952  1.0000
  C   C928      1.0  0.00717  0.72730  0.44475  1.0000
  S   S371      1.0  0.99905  0.86016  0.47180  1.0000
  C   C929      1.0  0.20985  0.99296  0.48696  1.0000
  C   C930      1.0  0.00188  0.82350  0.45367  1.0000
  Fe  Fe184     1.0  1.00000  0.68270  0.44551  1.0000
  H   H1466     1.0  0.14904  0.94759  0.49239  1.0000
  Fe  Fe185     1.0  0.31781  0.93554  0.44447  1.0000
  H   H1467     1.0  0.08105  0.72103  0.51938  1.0000
  H   H1468     1.0  0.28121  0.95868  0.60406  1.0000
  H   H1469     1.0  0.30097  0.89791  0.53598  1.0000
  Fe  Fe186     1.0  0.30401  0.95417  0.53326  1.0000
  Fe  Fe187     1.0  0.23157  0.92616  0.54539  1.0000
  S   S372      1.0  0.23474  0.94437  0.53823  1.0000
  S   S373      1.0  0.23650  0.91711  0.56266  1.0000
  Fe  Fe188     1.0  0.22444  0.92540  0.52344  1.0000
  S   S374      1.0  0.22779  0.94338  0.51425  1.0000
  S   S375      1.0  0.21895  0.91602  0.51274  1.0000
  Fe  Fe189     1.0  0.24393  0.93773  0.52190  1.0000
  S   S376      1.0  0.26271  0.93889  0.51374  1.0000
  Fe  Fe190     1.0  0.21832  0.94809  0.53158  1.0000
  S   S377      1.0  0.20558  0.96535  0.53231  1.0000
  S   S378      1.0  0.24164  0.91920  0.52929  1.0000
  S   S379      1.0  0.21394  0.93054  0.54051  1.0000
  Fe  Fe191     1.0  0.03454  0.76324  0.55045  1.0000
  S   S380      1.0  0.05397  0.75872  0.54968  1.0000
  S   S381      1.0  0.02154  0.75560  0.56584  1.0000
  Fe  Fe192     1.0  0.14115  0.89956  0.50742  1.0000
  S   S382      1.0  0.05636  0.77798  0.52417  1.0000
  Fe  Fe193     1.0  0.05581  0.75881  0.53075  1.0000
  S   S383      1.0  0.06923  0.74462  0.52252  1.0000
  Fe  Fe194     1.0  0.05292  0.77815  0.54328  1.0000
  S   S384      1.0  0.06182  0.78725  0.55092  1.0000
  H   H1470     1.0  0.27779  0.98513  0.51634  1.0000
  S   S385      1.0  0.03324  0.78274  0.54593  1.0000
  Fe  Fe195     1.0  0.15854  0.90733  0.51634  1.0000
  H   H1471     1.0  0.21445  0.98293  0.51474  1.0000
  S   S386      1.0  0.16810  0.90479  0.53064  1.0000
  S   S387      1.0  0.30826  0.99058  0.57814  1.0000
  C   C931      1.0  0.05432  0.71888  0.54586  1.0000
  S   S388      1.0  0.01166  0.73838  0.51866  1.0000
  H   H1472     1.0  0.07836  0.86912  0.53909  1.0000
  H   H1473     1.0  0.26983  0.93673  0.54850  1.0000
  C   C932      1.0  0.12543  0.86789  0.50429  1.0000
  H   H1474     1.0  0.01293  0.73156  0.56717  1.0000
  C   C933      1.0  0.02667  0.75164  0.50347  1.0000
  S   S389      1.0  0.13886  0.90987  0.52115  1.0000
  H   H1475     1.0  0.30329  0.95442  0.60035  1.0000
  H   H1476     1.0  0.28296  0.91960  0.54162  1.0000
  C   C934      1.0  0.04805  0.72530  0.49320  1.0000
  H   H1477     1.0  0.26322  0.90700  0.54385  1.0000
  C   C935      1.0  0.27676  0.91317  0.49539  1.0000
  H   H1478     1.0  0.10732  0.74759  0.51366  1.0000
  S   S390      1.0  0.30895  0.92740  0.55892  1.0000
  C   C936      1.0  0.31733  0.91211  0.51933  1.0000
  C   C937      1.0  0.24452  0.89540  0.50390  1.0000
  H   H1479     1.0  0.11892  0.85560  0.49909  1.0000
  C   C938      1.0  0.01895  0.68469  0.52465  1.0000
  H   H1480     1.0  0.00991  0.79136  0.53905  1.0000
  H   H1481     1.0  0.17601  0.97427  0.56007  1.0000
  H   H1482     1.0  0.20474  0.90927  0.50141  1.0000
  H   H1483     1.0  0.02519  0.83429  0.51199  1.0000
  H   H1484     1.0  0.04699  0.71830  0.55335  1.0000
  H   H1485     1.0  0.11252  0.76723  0.50559  1.0000
  C   C939      1.0  0.31571  0.90150  0.50573  1.0000
  N   N90       1.0  0.02870  0.66779  0.57002  1.0000
  C   C940      1.0  0.01004  0.71099  0.56456  1.0000
  H   H1486     1.0  0.05175  0.81403  0.49905  1.0000
  H   H1487     1.0  0.03434  0.81197  0.52964  1.0000
  H   H1488     1.0  0.30207  0.97811  0.53865  1.0000
  H   H1489     1.0  0.25953  0.97792  0.56282  1.0000
  H   H1490     1.0  0.31828  0.98968  0.52884  1.0000
  H   H1491     1.0  0.29366  0.94268  0.59379  1.0000
  H   H1492     1.0  0.31561  0.98827  0.55421  1.0000
  Fe  Fe196     1.0  0.05625  0.68127  0.51372  1.0000
  S   S391      1.0  0.04627  0.67952  0.53247  1.0000
  S   S392      1.0  0.02586  0.79454  0.51548  1.0000
  H   H1493     1.0  0.18613  0.98547  0.58037  1.0000
  C   C941      1.0  0.04169  0.66615  0.56732  1.0000
  H   H1494     1.0  0.01355  0.67629  0.58139  1.0000
  C   C942      1.0  0.25848  0.96572  0.54784  1.0000
  H   H1495     1.0  0.02666  0.72078  0.56607  1.0000
  H   H1496     1.0  0.30228  0.94633  0.57918  1.0000
  C   C943      1.0  0.04832  0.83229  0.50956  1.0000
  C   C944      1.0  0.01398  0.69528  0.52846  1.0000
  C   C945      1.0  0.02606  0.70536  0.51129  1.0000
  N   N91       1.0  0.24065  0.88689  0.49990  1.0000
  S   S393      1.0  0.32086  0.91168  0.53254  1.0000
  C   C946      1.0  0.31139  0.91216  0.49853  1.0000
  H   H1497     1.0  0.01668  0.70463  0.56931  1.0000
  S   S394      1.0  0.30069  0.97023  0.51912  1.0000
  C   C947      1.0  0.32246  0.98111  0.55050  1.0000
  H   H1498     1.0  0.28672  0.98911  0.55239  1.0000
  H   H1499     1.0  0.28197  0.88970  0.53004  1.0000
  H   H1500     1.0  0.00270  0.71501  0.57118  1.0000
  H   H1501     1.0  0.31787  0.97530  0.54861  1.0000
  H   H1502     1.0  0.23729  0.95991  0.55591  1.0000
  H   H1503     1.0  0.15603  0.98768  0.57679  1.0000
  C   C948      1.0  0.17780  0.98048  0.56429  1.0000
  H   H1504     1.0  0.20655  0.98793  0.53510  1.0000
  H   H1505     1.0  0.99857  0.73245  0.55558  1.0000
  H   H1506     1.0  0.09248  0.85892  0.53846  1.0000
  H   H1507     1.0  0.29026  0.91772  0.52696  1.0000
  H   H1508     1.0  0.27403  0.96515  0.59189  1.0000
  H   H1509     1.0  0.05168  0.71900  0.52122  1.0000
  C   C949      1.0  0.26506  0.93222  0.56743  1.0000
  H   H1510     1.0  0.07049  0.71259  0.50746  1.0000
  Fe  Fe197     1.0  0.08251  0.83835  0.50409  1.0000
  C   C950      1.0  0.00100  0.79176  0.54499  1.0000
  H   H1511     1.0  0.24649  0.95245  0.56627  1.0000
  S   S395      1.0  0.15867  0.92379  0.50235  1.0000
  C   C951      1.0  0.29332  0.96974  0.57562  1.0000
  H   H1512     1.0  0.12241  0.96453  0.51807  1.0000
  H   H1513     1.0  0.03299  0.67589  0.51248  1.0000
  S   S396      1.0  0.16099  0.89570  0.50389  1.0000
  C   C952      1.0  0.27584  0.92133  0.50210  1.0000
  H   H1514     1.0  0.21133  0.96700  0.50704  1.0000
  S   S397      1.0  0.32470  0.94960  0.56460  1.0000
  H   H1515     1.0  0.32857  0.95950  0.49361  1.0000
  H   H1516     1.0  0.00075  0.78266  0.55027  1.0000
  C   C953      1.0  0.07031  0.82272  0.53046  1.0000
  N   N92       1.0  0.05462  0.72363  0.50236  1.0000
  H   H1517     1.0  0.03217  0.70829  0.55106  1.0000
  H   H1518     1.0  0.18949  0.96466  0.58001  1.0000
  H   H1519     1.0  0.30088  0.94982  0.50018  1.0000
  C   C954      1.0  0.20986  0.98475  0.55241  1.0000
  H   H1520     1.0  0.06133  0.73916  0.49297  1.0000
  H   H1521     1.0  0.25218  0.87185  0.50821  1.0000
  H   H1522     1.0  0.31161  0.95879  0.58569  1.0000
  H   H1523     1.0  0.07621  0.70156  0.52949  1.0000
  C   C955      1.0  0.08441  0.86195  0.53478  1.0000
  S   S398      1.0  0.05678  0.69521  0.54850  1.0000
  C   C956      1.0  0.13722  0.97278  0.50966  1.0000
  H   H1524     1.0  0.99798  0.76283  0.57903  1.0000
  Fe  Fe198     1.0  0.07870  0.66647  0.52068  1.0000
  H   H1525     1.0  0.29212  0.97886  0.57667  1.0000
  C   C957      1.0  0.24132  0.96120  0.56254  1.0000
  H   H1526     1.0  0.24287  0.90437  0.49817  1.0000
  H   H1527     1.0  0.01316  0.71388  0.52443  1.0000
  H   H1528     1.0  0.23982  0.86862  0.50521  1.0000
  H   H1529     1.0  0.24696  0.98817  0.54836  1.0000
  H   H1530     1.0  0.32244  0.89322  0.52142  1.0000
  C   C958      1.0  0.25697  0.93177  0.49738  1.0000
  H   H1531     1.0  0.01649  0.67663  0.52992  1.0000
  H   H1532     1.0  0.05144  0.73774  0.54299  1.0000
  C   C959      1.0  0.00775  0.75813  0.56253  1.0000
  C   C960      1.0  0.00700  0.75650  0.55181  1.0000
  C   C961      1.0  0.30990  0.92282  0.50179  1.0000
  C   C962      1.0  0.10634  0.76925  0.49965  1.0000
  Fe  Fe199     1.0  0.13911  0.92579  0.50625  1.0000
  H   H1533     1.0  0.28652  0.94917  0.58163  1.0000
  H   H1534     1.0  0.01493  0.75367  0.54553  1.0000
  H   H1535     1.0  0.04446  0.77712  0.50512  1.0000
  C   C963      1.0  0.28245  0.91619  0.53418  1.0000
  H   H1536     1.0  0.03853  0.72543  0.51568  1.0000
  C   C964      1.0  0.06491  0.80086  0.54277  1.0000
  C   C965      1.0  0.06223  0.81013  0.54856  1.0000
  C   C966      1.0  0.06476  0.82107  0.54239  1.0000
  C   C967      1.0  0.07040  0.80247  0.53078  1.0000
  H   H1537     1.0  0.05812  0.80885  0.55785  1.0000
  H   H1538     1.0  0.06249  0.82822  0.54694  1.0000
  C   C968      1.0  0.20779  0.96967  0.54398  1.0000
  C   C969      1.0  0.20987  0.96123  0.55414  1.0000
  C   C970      1.0  0.21152  0.96463  0.56361  1.0000
  C   C971      1.0  0.21124  0.97644  0.56283  1.0000
  H   H1539     1.0  0.02895  0.71334  0.50640  1.0000
  C   C972      1.0  0.20788  0.98142  0.54305  1.0000
  H   H1540     1.0  0.20996  0.95209  0.55481  1.0000
  H   H1541     1.0  0.21277  0.95814  0.57160  1.0000
  H   H1542     1.0  0.07195  0.86233  0.51931  1.0000
  H   H1543     1.0  0.02906  0.72112  0.53968  1.0000
  C   C973      1.0  0.02007  0.72672  0.56100  1.0000
  H   H1544     1.0  0.02666  0.68287  0.55567  1.0000
  C   C974      1.0  0.01717  0.70568  0.52155  1.0000
  H   H1545     1.0  0.20005  0.93773  0.49778  1.0000
  H   H1546     1.0  0.19447  0.98228  0.51415  1.0000
  C   C975      1.0  0.31278  0.92281  0.51226  1.0000
  S   S399      1.0  0.07295  0.83673  0.52301  1.0000
  C   C976      1.0  0.03207  0.69451  0.50831  1.0000
  H   H1547     1.0  0.09405  0.74536  0.51160  1.0000
  C   C977      1.0  0.06107  0.70867  0.54189  1.0000
  C   C978      1.0  0.20485  0.91282  0.51788  1.0000
  C   C979      1.0  0.19862  0.91303  0.52946  1.0000
  C   C980      1.0  0.18745  0.91031  0.53338  1.0000
  C   C981      1.0  0.18230  0.90770  0.52565  1.0000
  C   C982      1.0  0.18848  0.90754  0.51405  1.0000
  C   C983      1.0  0.19984  0.90985  0.51026  1.0000
  H   H1548     1.0  0.20253  0.91498  0.53549  1.0000
  H   H1549     1.0  0.18282  0.91018  0.54244  1.0000
  H   H1550     1.0  0.18463  0.90533  0.50810  1.0000
  N   N93       1.0  0.09650  0.76314  0.50506  1.0000
  H   H1551     1.0  0.05833  0.80948  0.51165  1.0000
  C   C984      1.0  0.25736  0.92711  0.57722  1.0000
  C   C985      1.0  0.24879  0.92226  0.57570  1.0000
  C   C986      1.0  0.24763  0.92280  0.56439  1.0000
  C   C987      1.0  0.25532  0.92796  0.55457  1.0000
  C   C988      1.0  0.26408  0.93259  0.55609  1.0000
  H   H1552     1.0  0.31155  0.93103  0.51482  1.0000
  H   H1553     1.0  0.24287  0.91830  0.58331  1.0000
  H   H1554     1.0  0.25460  0.92827  0.54580  1.0000
  C   C989      1.0  0.17976  0.96554  0.58199  1.0000
  H   H1555     1.0  0.28431  0.94574  0.49359  1.0000
  Fe  Fe200     1.0  0.29184  0.93951  0.55571  1.0000
  H   H1556     1.0  0.01093  0.77412  0.49845  1.0000
  C   C990      1.0  0.19588  0.98789  0.50510  1.0000
  C   C991      1.0  0.01855  0.74489  0.50474  1.0000
  Fe  Fe201     1.0  0.31622  0.94367  0.55364  1.0000
  S   S400      1.0  0.07130  0.68602  0.51723  1.0000
  H   H1557     1.0  0.09722  0.85870  0.50679  1.0000
  C   C992      1.0  0.30299  0.96103  0.59192  1.0000
  H   H1558     1.0  0.04269  0.84035  0.51266  1.0000
  N   N94       1.0  0.28490  0.96218  0.49681  1.0000
  C   C993      1.0  0.24158  0.98139  0.55238  1.0000
  H   H1559     1.0  0.22606  0.89992  0.49407  1.0000
  S   S401      1.0  0.21178  0.98088  0.57518  1.0000
  C   C994      1.0  0.27137  0.90202  0.54711  1.0000
  C   C995      1.0  0.06649  0.73073  0.53041  1.0000
  H   H1560     1.0  0.00829  0.79474  0.50051  1.0000
  N   N95       1.0  0.28214  0.90356  0.53789  1.0000
  C   C996      1.0  0.28486  0.98861  0.54436  1.0000
  H   H1561     1.0  0.07273  0.79522  0.52637  1.0000
  H   H1562     1.0  0.02455  0.73338  0.55432  1.0000
  N   N96       1.0  0.17369  0.97766  0.57723  1.0000
  C   C997      1.0  0.07355  0.72046  0.52673  1.0000
  H   H1563     1.0  0.29301  0.89998  0.55037  1.0000
  H   H1564     1.0  0.32323  0.94780  0.50477  1.0000
  H   H1565     1.0  0.02181  0.70925  0.54257  1.0000
  S   S402      1.0  0.13389  0.88314  0.51108  1.0000
  H   H1566     1.0  0.29003  0.90042  0.52044  1.0000
  C   C998      1.0  0.14582  0.95444  0.49739  1.0000
  C   C999      1.0  0.03116  0.82637  0.50884  1.0000
  C   C1000     1.0  0.27986  0.98622  0.52405  1.0000
  H   H1567     1.0  0.02583  0.68341  0.57652  1.0000
  H   H1568     1.0  0.25504  0.96424  0.54088  1.0000
  H   H1569     1.0  0.26424  0.95727  0.55135  1.0000
  H   H1570     1.0  0.28082  0.97384  0.59675  1.0000
  C   C1001     1.0  0.07078  0.70945  0.53240  1.0000
  C   C1002     1.0  0.07327  0.81337  0.52467  1.0000
  H   H1571     1.0  0.29282  0.88726  0.54552  1.0000
  C   C1003     1.0  0.13072  0.96415  0.51167  1.0000
  H   H1572     1.0  0.27082  0.89260  0.55015  1.0000
  H   H1573     1.0  0.08604  0.77651  0.51469  1.0000
  H   H1574     1.0  0.30196  0.96765  0.56940  1.0000
  H   H1575     1.0  0.10626  0.74714  0.49927  1.0000
  H   H1576     1.0  0.07837  0.87296  0.50754  1.0000
  C   C1004     1.0  0.28176  0.96487  0.59531  1.0000
  H   H1577     1.0  0.01442  0.67576  0.56107  1.0000
  S   S403      1.0  0.29539  0.93908  0.53663  1.0000
  N   N97       1.0  0.04205  0.82256  0.51342  1.0000
  S   S404      1.0  0.07072  0.66353  0.54016  1.0000
  H   H1578     1.0  0.00984  0.73551  0.54269  1.0000
  H   H1579     1.0  0.27443  0.92161  0.53094  1.0000
  C   C1005     1.0  0.02503  0.71444  0.54682  1.0000
  Fe  Fe202     1.0  0.06195  0.68275  0.53620  1.0000
  S   S405      1.0  0.00461  0.69536  0.54231  1.0000
  H   H1580     1.0  0.23966  0.89629  0.51300  1.0000
  C   C1006     1.0  0.28208  0.89923  0.52763  1.0000
  H   H1581     1.0  0.05644  0.82988  0.51305  1.0000
  S   S406      1.0  0.27517  0.93889  0.56964  1.0000
  S   S407      1.0  0.29870  0.95567  0.55205  1.0000
  H   H1582     1.0  0.30240  0.96978  0.59365  1.0000
  H   H1583     1.0  0.03309  0.82701  0.53019  1.0000
  H   H1584     1.0  0.27417  0.90412  0.52392  1.0000
  C   C1007     1.0  0.09322  0.87597  0.51865  1.0000
  C   C1008     1.0  0.24267  0.87523  0.50797  1.0000
  H   H1585     1.0  0.07777  0.81450  0.51552  1.0000
  S   S408      1.0  0.04646  0.69292  0.49993  1.0000
  N   N98       1.0  0.24878  0.96994  0.55731  1.0000
  H   H1586     1.0  0.21033  0.99374  0.55152  1.0000
  C   C1009     1.0  0.25376  0.97145  0.56650  1.0000
  H   H1587     1.0  0.00284  0.72366  0.54462  1.0000
  Fe  Fe203     1.0  0.03665  0.78089  0.52735  1.0000
  H   H1588     1.0  0.27110  0.90527  0.55497  1.0000
  H   H1589     1.0  0.04443  0.67475  0.56396  1.0000
  C   C1010     1.0  0.27933  0.95947  0.50948  1.0000
  H   H1590     1.0  0.03917  0.73100  0.49518  1.0000
  H   H1591     1.0  0.00096  0.80842  0.52492  1.0000
  C   C1011     1.0  0.09537  0.85616  0.51657  1.0000
  H   H1592     1.0  0.28189  0.96440  0.51449  1.0000
  N   N99       1.0  0.15293  0.93897  0.53540  1.0000
  C   C1012     1.0  0.16153  0.93938  0.52397  1.0000
  C   C1013     1.0  0.15900  0.93199  0.54498  1.0000
  C   C1014     1.0  0.14353  0.93341  0.53535  1.0000
  C   C1015     1.0  0.14768  0.95111  0.53727  1.0000
  H   H1593     1.0  0.16569  0.93036  0.52231  1.0000
  H   H1594     1.0  0.16873  0.94357  0.52364  1.0000
  H   H1595     1.0  0.15719  0.94448  0.51656  1.0000
  H   H1596     1.0  0.15283  0.93173  0.55375  1.0000
  H   H1597     1.0  0.16271  0.92268  0.54400  1.0000
  H   H1598     1.0  0.16644  0.93565  0.54502  1.0000
  H   H1599     1.0  0.13691  0.93285  0.54385  1.0000
  H   H1600     1.0  0.14722  0.92427  0.53384  1.0000
  H   H1601     1.0  0.13873  0.93845  0.52827  1.0000
  H   H1602     1.0  0.15453  0.95561  0.53729  1.0000
  H   H1603     1.0  0.14110  0.95118  0.54579  1.0000
  H   H1604     1.0  0.14303  0.95658  0.53019  1.0000
  C   C1016     1.0  0.29268  0.89685  0.54265  1.0000
  Fe  Fe204     1.0  0.31313  0.92821  0.53946  1.0000
  C   C1017     1.0  0.16080  0.97861  0.58026  1.0000
  H   H1605     1.0  0.26952  0.96183  0.51093  1.0000
  C   C1018     1.0  0.29389  0.94934  0.58535  1.0000
  S   S409      1.0  0.12749  0.94347  0.50915  1.0000
  H   H1606     1.0  0.15735  0.97664  0.58996  1.0000
  H   H1607     1.0  0.08111  0.76154  0.50059  1.0000
  S   S410      1.0  0.03639  0.76171  0.53195  1.0000
  C   C1019     1.0  0.29349  0.98223  0.53667  1.0000
  H   H1608     1.0  0.10164  0.87338  0.52171  1.0000
  H   H1609     1.0  0.22479  0.88503  0.49652  1.0000
  C   C1020     1.0  0.17646  0.98604  0.58238  1.0000
  C   C1021     1.0  0.04742  0.71944  0.51407  1.0000
  N   N100      1.0  0.08735  0.86598  0.52184  1.0000
  C   C1022     1.0  0.13514  0.95482  0.50572  1.0000
  N   N101      1.0  0.29299  0.96123  0.58705  1.0000
  C   C1023     1.0  0.31887  0.90149  0.51600  1.0000
  H   H1610     1.0  0.13391  0.97977  0.51449  1.0000
  C   C1024     1.0  0.06578  0.71476  0.50020  1.0000
  H   H1611     1.0  0.05105  0.83462  0.49980  1.0000
  H   H1612     1.0  0.10395  0.85340  0.51932  1.0000
  H   H1613     1.0  0.07006  0.87705  0.52120  1.0000
  C   C1025     1.0  0.29090  0.98072  0.52673  1.0000
  H   H1614     1.0  0.02852  0.75299  0.51118  1.0000
  H   H1615     1.0  0.28622  0.96976  0.57142  1.0000
  C   C1026     1.0  0.05691  0.72990  0.54003  1.0000
  H   H1616     1.0  0.25802  0.92689  0.58601  1.0000
  H   H1617     1.0  0.23402  0.96401  0.56985  1.0000
  C   C1027     1.0  0.02815  0.68429  0.51465  1.0000
  H   H1618     1.0  0.17335  0.98433  0.59213  1.0000
  H   H1619     1.0  0.30120  0.96498  0.49819  1.0000
  S   S411      1.0  0.01285  0.85708  0.49838  1.0000
  C   C1028     1.0  0.04979  0.81220  0.50884  1.0000
  C   C1029     1.0  0.03400  0.79479  0.50104  1.0000
  H   H1620     1.0  0.22251  0.89167  0.50883  1.0000
  H   H1621     1.0  0.28268  0.92031  0.50667  1.0000
  C   C1030     1.0  0.29789  0.95888  0.49520  1.0000
  H   H1622     1.0  0.04696  0.81659  0.53020  1.0000
  C   C1031     1.0  0.07644  0.86976  0.51729  1.0000
  H   H1623     1.0  0.09147  0.84826  0.51924  1.0000
  C   C1032     1.0  0.05726  0.73495  0.50203  1.0000
  H   H1624     1.0  0.25915  0.96295  0.57049  1.0000
  H   H1625     1.0  0.07996  0.85440  0.53739  1.0000
  H   H1626     1.0  0.04616  0.71044  0.51495  1.0000
  H   H1627     1.0  0.17811  0.95896  0.57812  1.0000
  H   H1628     1.0  0.00214  0.78775  0.52412  1.0000
  H   H1629     1.0  0.08750  0.88353  0.52257  1.0000
  H   H1630     1.0  0.18290  0.93243  0.49546  1.0000
  H   H1631     1.0  0.28189  0.94990  0.51338  1.0000
  H   H1632     1.0  0.31690  0.89325  0.50320  1.0000
  H   H1633     1.0  0.12950  0.86120  0.51086  1.0000
  H   H1634     1.0  0.28437  0.98032  0.49609  1.0000
  H   H1635     1.0  0.26420  0.97216  0.54361  1.0000
  N   N102      1.0  0.01536  0.72010  0.55544  1.0000
  C   C1033     1.0  0.32380  0.99416  0.53134  1.0000
  H   H1636     1.0  0.06354  0.73370  0.50761  1.0000
  H   H1637     1.0  0.23763  0.87572  0.51712  1.0000
  H   H1638     1.0  0.09544  0.87925  0.50893  1.0000
  C   C1034     1.0  0.27123  0.99276  0.53168  1.0000
  H   H1639     1.0  0.23757  0.98059  0.54548  1.0000
  C   C1035     1.0  0.14809  0.97215  0.50157  1.0000
  H   H1640     1.0  0.00973  0.73798  0.49585  1.0000
  H   H1641     1.0  0.03314  0.82873  0.49904  1.0000
  H   H1642     1.0  0.03345  0.86226  0.50111  1.0000
  C   C1036     1.0  0.02337  0.67471  0.57929  1.0000
  H   H1643     1.0  0.09559  0.76471  0.52260  1.0000
  C   C1037     1.0  0.26576  0.93046  0.50328  1.0000
  H   H1644     1.0  0.24924  0.93887  0.49819  1.0000
  C   C1038     1.0  0.01597  0.74327  0.49484  1.0000
  H   H1645     1.0  0.25413  0.89277  0.50373  1.0000
  H   H1646     1.0  0.02611  0.81930  0.51170  1.0000
  C   C1039     1.0  0.03896  0.81940  0.52643  1.0000
  H   H1647     1.0  0.00631  0.70593  0.56062  1.0000
  S   S412      1.0  0.32212  0.94336  0.53443  1.0000
  C   C1040     1.0  0.02420  0.67417  0.55930  1.0000
  C   C1041     1.0  0.22795  0.89102  0.49986  1.0000
  C   C1042     1.0  0.08986  0.76685  0.51620  1.0000
  H   H1648     1.0  0.17678  0.96307  0.59173  1.0000
  H   H1649     1.0  0.04563  0.80447  0.51214  1.0000
  H   H1650     1.0  0.22191  0.97072  0.49368  1.0000
  S   S413      1.0  0.15680  0.98240  0.49907  1.0000
  H   H1651     1.0  0.18743  0.98001  0.56172  1.0000
  H   H1652     1.0  0.04921  0.74134  0.50525  1.0000
  H   H1653     1.0  0.08243  0.76230  0.52053  1.0000
  H   H1654     1.0  0.30633  0.93099  0.49631  1.0000
  C   C1043     1.0  0.00624  0.72827  0.54934  1.0000
  C   C1044     1.0  0.21240  0.97289  0.49813  1.0000
  C   C1045     1.0  0.04288  0.78501  0.49836  1.0000
  H   H1655     1.0  0.02783  0.66903  0.55223  1.0000
  H   H1656     1.0  0.00510  0.70168  0.50389  1.0000
  H   H1657     1.0  0.17342  0.98955  0.56038  1.0000
  H   H1658     1.0  0.28433  0.90586  0.49478  1.0000
  C   C1046     1.0  0.12634  0.87964  0.50238  1.0000
  H   H1659     1.0  0.27139  0.97787  0.49366  1.0000
  C   C1047     1.0  0.11937  0.86471  0.49769  1.0000
  H   H1660     1.0  0.23423  0.98486  0.55932  1.0000
  H   H1661     1.0  0.24664  0.97476  0.57371  1.0000
  S   S414      1.0  0.10213  0.83635  0.49828  1.0000
  C   C1048     1.0  0.27373  0.99387  0.54189  1.0000
  H   H1662     1.0  0.15836  0.97248  0.57646  1.0000
  C   C1049     1.0  0.10127  0.75024  0.50750  1.0000
  H   H1663     1.0  0.32717  0.97576  0.55757  1.0000
  H   H1664     1.0  0.02638  0.67000  0.58759  1.0000
  H   H1665     1.0  0.00011  0.79739  0.55121  1.0000
  H   H1666     1.0  0.19011  0.98622  0.50030  1.0000
  H   H1667     1.0  0.06417  0.70644  0.49939  1.0000
  N   N103      1.0  0.20844  0.98544  0.49893  1.0000
  H   H1668     1.0  0.02490  0.81241  0.49424  1.0000
  H   H1669     1.0  0.08466  0.77580  0.49489  1.0000
  H   H1670     1.0  0.10307  0.77901  0.49756  1.0000
  C   C1050     1.0  0.08854  0.76616  0.49687  1.0000
  H   H1671     1.0  0.33019  0.95728  0.50833  1.0000
  C   C1051     1.0  0.21566  0.98806  0.50551  1.0000
  C   C1052     1.0  0.00288  0.79765  0.49372  1.0000
  C   C1053     1.0  0.15228  0.96306  0.49534  1.0000
  H   H1672     1.0  0.22523  0.98573  0.50144  1.0000
  N   N104      1.0  0.33064  0.98599  0.53988  1.0000
  C   C1054     1.0  0.33052  0.95258  0.50148  1.0000
  S   S415      1.0  0.06414  0.66191  0.51576  1.0000
  C   C1055     1.0  0.03581  0.85875  0.49324  1.0000
  H   H1673     1.0  0.11756  0.99118  0.49269  1.0000
  H   H1674     1.0  0.20728  0.97063  0.49307  1.0000
  S   S416      1.0  0.13946  0.91584  0.49291  1.0000
  C   C1056     1.0  0.12119  0.88819  0.49377  1.0000
  Fe  Fe205     1.0  0.57789  0.24928  0.00836  1.0000
  S   S417      1.0  0.57338  0.25078  0.02713  1.0000
  H   H1675     1.0  0.58330  0.11886  0.00004  1.0000
  Fe  Fe206     1.0  0.60389  0.24639  0.00578  1.0000
  S   S418      1.0  0.60196  0.24716  0.02452  1.0000
  C   C1057     1.0  0.47114  0.27759  0.02947  1.0000
  Fe  Fe207     1.0  0.58902  0.23561  0.02859  1.0000
  S   S419      1.0  0.58804  0.21924  0.04287  1.0000
  Fe  Fe208     1.0  0.58654  0.26222  0.02114  1.0000
  S   S420      1.0  0.58245  0.28012  0.02528  1.0000
  S   S421      1.0  0.59253  0.23345  0.01013  1.0000
  S   S422      1.0  0.58945  0.26224  0.00208  1.0000
  Fe  Fe209     1.0  0.48904  0.28585  0.04007  1.0000
  S   S423      1.0  0.49254  0.28361  0.05781  1.0000
  S   S424      1.0  0.47073  0.28609  0.03921  1.0000
  Fe  Fe210     1.0  0.51353  0.28940  0.02749  1.0000
  S   S425      1.0  0.51924  0.28762  0.04408  1.0000
  S   S426      1.0  0.52472  0.29409  0.00962  1.0000
  Fe  Fe211     1.0  0.51006  0.27250  0.05087  1.0000
  S   S427      1.0  0.51734  0.25536  0.06231  1.0000
  Fe  Fe212     1.0  0.50124  0.29885  0.04933  1.0000
  S   S428      1.0  0.50582  0.27336  0.03372  1.0000
  S   S429      1.0  0.49640  0.30190  0.03208  1.0000
  H   H1676     1.0  0.52259  0.23524  0.02420  1.0000
  S   S430      1.0  0.52614  0.99806  0.12916  1.0000
  H   H1677     1.0  0.53076  0.14357  0.00067  1.0000
  N   N105      1.0  0.52261  0.24655  0.00706  1.0000
  H   H1678     1.0  0.56306  0.30116  0.02816  1.0000
  H   H1679     1.0  0.48993  0.26512  0.00731  1.0000
  C   C1058     1.0  0.48991  0.00465  0.18295  1.0000
  H   H1680     1.0  0.56912  0.00188  0.13640  1.0000
  S   S431      1.0  0.53660  0.99851  0.10086  1.0000
  C   C1059     1.0  0.43862  0.01737  0.21927  1.0000
  S   S432      1.0  0.56410  0.24944  0.99955  1.0000
  C   C1060     1.0  0.49569  0.19346  0.00524  1.0000
  S   S433      1.0  0.56453  0.15662  0.01223  1.0000
  Fe  Fe213     1.0  0.59953  0.17280  0.00632  1.0000
  H   H1681     1.0  0.62732  0.20558  0.01285  1.0000
  S   S434      1.0  0.60630  0.17341  0.02156  1.0000
  H   H1682     1.0  0.50819  0.31943  0.03325  1.0000
  C   C1061     1.0  0.57535  0.13546  0.00547  1.0000
  H   H1683     1.0  0.55503  0.32492  0.01182  1.0000
  S   S435      1.0  0.58056  0.18059  0.00655  1.0000
  H   H1684     1.0  0.53288  0.30612  0.02362  1.0000
  Fe  Fe214     1.0  0.51880  0.18185  0.04323  1.0000
  S   S436      1.0  0.52622  0.18969  0.02451  1.0000
  S   S437      1.0  0.52694  0.16291  0.04995  1.0000
  Fe  Fe215     1.0  0.50389  0.20531  0.04820  1.0000
  S   S438      1.0  0.50991  0.21509  0.02990  1.0000
  S   S439      1.0  0.49338  0.21545  0.06209  1.0000
  Fe  Fe216     1.0  0.50770  0.19985  0.02429  1.0000
  H   H1685     1.0  0.46233  0.99991  0.20769  1.0000
  Fe  Fe217     1.0  0.52779  0.20420  0.03171  1.0000
  S   S440      1.0  0.54256  0.21346  0.02720  1.0000
  S   S441      1.0  0.49990  0.19081  0.04259  1.0000
  S   S442      1.0  0.52204  0.19551  0.05044  1.0000
  Fe  Fe218     1.0  0.51418  0.01542  0.12381  1.0000
  S   S443      1.0  0.52826  0.02355  0.11048  1.0000
  H   H1686     1.0  0.54379  0.15709  0.99391  1.0000
  H   H1687     1.0  0.47688  0.12477  0.00574  1.0000
  H   H1688     1.0  0.51831  0.17732  0.00989  1.0000
  C   C1062     1.0  0.46540  0.31773  0.02733  1.0000
  C   C1063     1.0  0.48199  0.26724  0.01381  1.0000
  Fe  Fe219     1.0  0.52387  0.01612  0.09758  1.0000
  S   S444      1.0  0.52308  0.02524  0.07865  1.0000
  H   H1689     1.0  0.59584  0.31649  0.00477  1.0000
  S   S445      1.0  0.50854  0.00964  0.11060  1.0000
  Fe  Fe220     1.0  0.52275  0.11199  0.02765  1.0000
  S   S446      1.0  0.53160  0.11098  0.00902  1.0000
  S   S447      1.0  0.50941  0.12855  0.03123  1.0000
  Fe  Fe221     1.0  0.53377  0.08620  0.03743  1.0000
  S   S448      1.0  0.54357  0.08300  0.01934  1.0000
  S   S449      1.0  0.53512  0.07557  0.05587  1.0000
  Fe  Fe222     1.0  0.54758  0.10088  0.01614  1.0000
  C   C1064     1.0  0.49664  0.32756  0.04731  1.0000
  H   H1690     1.0  0.58327  0.13887  0.00192  1.0000
  S   S450      1.0  0.53914  0.10330  0.03451  1.0000
  S   S451      1.0  0.51659  0.09522  0.03201  1.0000
  Fe  Fe223     1.0  0.48676  0.02451  0.21008  1.0000
  S   S452      1.0  0.49447  0.03943  0.19773  1.0000
  C   C1065     1.0  0.50691  0.06760  0.23096  1.0000
  Fe  Fe224     1.0  0.50716  0.01532  0.22225  1.0000
  S   S453      1.0  0.51710  0.02889  0.21090  1.0000
  H   H1691     1.0  0.50289  0.07606  0.22615  1.0000
  Fe  Fe225     1.0  0.49933  0.04120  0.21371  1.0000
  S   S454      1.0  0.49708  0.05813  0.21907  1.0000
  Fe  Fe226     1.0  0.51150  0.02575  0.19600  1.0000
  S   S455      1.0  0.52441  0.02279  0.17904  1.0000
  S   S456      1.0  0.48980  0.02773  0.22614  1.0000
  S   S457      1.0  0.50347  0.01071  0.20728  1.0000
  H   H1692     1.0  0.47688  0.31624  0.04412  1.0000
  H   H1693     1.0  0.53853  0.17214  0.99525  1.0000
  C   C1066     1.0  0.52013  0.16611  0.99321  1.0000
  S   S458      1.0  0.47866  0.16692  0.99943  1.0000
  C   C1067     1.0  0.55166  0.03072  0.15572  1.0000
  N   N106      1.0  0.46619  0.22520  0.99425  1.0000
  H   H1694     1.0  0.52995  0.14474  0.01529  1.0000
  H   H1695     1.0  0.53501  0.32084  0.02094  1.0000
  S   S459      1.0  0.47341  0.25211  0.00698  1.0000
  C   C1068     1.0  0.54669  0.00547  0.23081  1.0000
  H   H1696     1.0  0.49127  0.03167  0.15978  1.0000
  H   H1697     1.0  0.55632  0.00395  0.22684  1.0000
  C   C1069     1.0  0.63498  0.32455  0.99834  1.0000
  S   S460      1.0  0.59911  0.15557  0.00298  1.0000
  H   H1698     1.0  0.56012  0.19474  0.99347  1.0000
  H   H1699     1.0  0.48385  0.04332  0.24232  1.0000
  C   C1070     1.0  0.50766  0.02411  0.14908  1.0000
  C   C1071     1.0  0.51984  0.01996  0.14814  1.0000
  C   C1072     1.0  0.52495  0.01977  0.15728  1.0000
  C   C1073     1.0  0.51791  0.02372  0.16741  1.0000
  C   C1074     1.0  0.50581  0.02820  0.16817  1.0000
  C   C1075     1.0  0.50068  0.02834  0.15906  1.0000
  H   H1700     1.0  0.52534  0.01693  0.14036  1.0000
  H   H1701     1.0  0.53432  0.01637  0.15653  1.0000
  H   H1702     1.0  0.50039  0.03161  0.17574  1.0000
  C   C1076     1.0  0.55552  0.02697  0.17507  1.0000
  C   C1077     1.0  0.52539  0.03969  0.07266  1.0000
  C   C1078     1.0  0.52778  0.04608  0.07940  1.0000
  C   C1079     1.0  0.53068  0.05710  0.07412  1.0000
  C   C1080     1.0  0.53100  0.06192  0.06211  1.0000
  C   C1081     1.0  0.52835  0.05568  0.05540  1.0000
  C   C1082     1.0  0.52561  0.04457  0.06066  1.0000
  H   H1703     1.0  0.52747  0.04252  0.08867  1.0000
  H   H1704     1.0  0.53267  0.06190  0.07937  1.0000
  H   H1705     1.0  0.52858  0.05931  0.04613  1.0000
  H   H1706     1.0  0.52376  0.03968  0.05538  1.0000
  C   C1083     1.0  0.52172  0.15314  0.04543  1.0000
  C   C1084     1.0  0.51051  0.15635  0.04290  1.0000
  C   C1085     1.0  0.50667  0.14862  0.03879  1.0000
  C   C1086     1.0  0.51409  0.13774  0.03708  1.0000
  C   C1087     1.0  0.52527  0.13453  0.03967  1.0000
  C   C1088     1.0  0.52903  0.14216  0.04396  1.0000
  H   H1707     1.0  0.50479  0.16479  0.04410  1.0000
  H   H1708     1.0  0.49802  0.15116  0.03678  1.0000
  H   H1709     1.0  0.53116  0.12632  0.03810  1.0000
  H   H1710     1.0  0.53777  0.13972  0.04576  1.0000
  H   H1711     1.0  0.54200  0.16084  0.00764  1.0000
  C   C1089     1.0  0.54736  0.02209  0.23785  1.0000
  C   C1090     1.0  0.55197  0.20323  0.00813  1.0000
  C   C1091     1.0  0.55215  0.21187  0.01364  1.0000
  C   C1092     1.0  0.55992  0.21942  0.00823  1.0000
  H   H1712     1.0  0.46864  0.00335  0.14800  1.0000
  H   H1713     1.0  0.49253  0.10947  0.01467  1.0000
  H   H1714     1.0  0.54627  0.19720  0.01234  1.0000
  H   H1715     1.0  0.56013  0.22611  0.01246  1.0000
  C   C1093     1.0  0.47297  0.22278  0.00342  1.0000
  C   C1094     1.0  0.56513  0.14223  0.01128  1.0000
  C   C1095     1.0  0.48529  0.17750  0.01318  1.0000
  C   C1096     1.0  0.60887  0.30120  0.00020  1.0000
  C   C1097     1.0  0.56507  0.11977  0.00890  1.0000
  C   C1098     1.0  0.55492  0.12652  0.01484  1.0000
  C   C1099     1.0  0.55505  0.13759  0.01626  1.0000
  H   H1716     1.0  0.51086  0.16503  0.99569  1.0000
  H   H1717     1.0  0.54338  0.02347  0.08686  1.0000
  H   H1718     1.0  0.54696  0.12322  0.01834  1.0000
  H   H1719     1.0  0.54732  0.14260  0.02119  1.0000
  H   H1720     1.0  0.51667  0.14714  0.01039  1.0000
  C   C1100     1.0  0.57552  0.01397  0.20363  1.0000
  C   C1101     1.0  0.57626  0.01578  0.21433  1.0000
  C   C1102     1.0  0.58042  0.00624  0.22286  1.0000
  H   H1721     1.0  0.50995  0.16610  0.01620  1.0000
  H   H1722     1.0  0.50999  0.03821  0.23375  1.0000
  H   H1723     1.0  0.57229  0.02141  0.19711  1.0000
  H   H1724     1.0  0.57363  0.02461  0.21598  1.0000
  H   H1725     1.0  0.56722  0.00482  0.06887  1.0000
  C   C1103     1.0  0.56101  0.00823  0.07651  1.0000
  H   H1726     1.0  0.52606  0.19457  0.99349  1.0000
  H   H1727     1.0  0.46342  0.32097  0.01839  1.0000
  H   H1728     1.0  0.52777  0.26304  0.00309  1.0000
  H   H1729     1.0  0.42777  0.00581  0.21131  1.0000
  S   S461      1.0  0.47971  0.32650  0.99529  1.0000
  H   H1730     1.0  0.56710  0.31328  0.00747  1.0000
  C   C1104     1.0  0.48495  0.01243  0.19063  1.0000
  C   C1105     1.0  0.52579  0.14865  0.00761  1.0000
  C   C1106     1.0  0.49517  0.19334  0.99389  1.0000
  H   H1731     1.0  0.54744  0.02620  0.06482  1.0000
  H   H1732     1.0  0.56422  0.29305  0.01122  1.0000
  C   C1107     1.0  0.50565  0.05720  0.22901  1.0000
  H   H1733     1.0  0.55538  0.01984  0.09407  1.0000
  S   S462      1.0  0.56497  0.10588  0.00706  1.0000
  H   H1734     1.0  0.48899  0.00600  0.13759  1.0000
  C   C1108     1.0  0.47508  0.01068  0.19966  1.0000
  C   C1109     1.0  0.55658  0.01067  0.16664  1.0000
  H   H1735     1.0  0.57708  0.01614  0.16484  1.0000
  C   C1110     1.0  0.50182  0.13480  0.00046  1.0000
  H   H1736     1.0  0.47701  0.00015  0.12764  1.0000
  H   H1737     1.0  0.46135  0.31846  0.05017  1.0000
  H   H1738     1.0  0.44004  0.02201  0.22535  1.0000
  H   H1739     1.0  0.51448  0.07524  0.24039  1.0000
  C   C1111     1.0  0.51139  0.24382  0.06212  1.0000
  C   C1112     1.0  0.50954  0.24278  0.05161  1.0000
  C   C1113     1.0  0.50458  0.23367  0.05148  1.0000
  C   C1114     1.0  0.50114  0.22576  0.06195  1.0000
  C   C1115     1.0  0.50319  0.22666  0.07245  1.0000
  C   C1116     1.0  0.50848  0.23558  0.07250  1.0000
  H   H1740     1.0  0.51203  0.24898  0.04360  1.0000
  H   H1741     1.0  0.50289  0.23312  0.04338  1.0000
  H   H1742     1.0  0.50059  0.22053  0.08057  1.0000
  H   H1743     1.0  0.50998  0.23632  0.08065  1.0000
  H   H1744     1.0  0.43205  0.02356  0.21431  1.0000
  H   H1745     1.0  0.45850  0.31299  0.03312  1.0000
  C   C1117     1.0  0.50278  0.32755  0.03566  1.0000
  H   H1746     1.0  0.48873  0.27880  0.01965  1.0000
  C   C1118     1.0  0.59219  0.20638  0.03720  1.0000
  C   C1119     1.0  0.59947  0.19636  0.04257  1.0000
  C   C1120     1.0  0.60357  0.18626  0.03778  1.0000
  C   C1121     1.0  0.60030  0.18603  0.02766  1.0000
  C   C1122     1.0  0.59265  0.19590  0.02247  1.0000
  C   C1123     1.0  0.58856  0.20606  0.02728  1.0000
  H   H1747     1.0  0.60224  0.19653  0.05027  1.0000
  H   H1748     1.0  0.60946  0.17865  0.04183  1.0000
  H   H1749     1.0  0.59007  0.19585  0.01464  1.0000
  H   H1750     1.0  0.58261  0.21362  0.02328  1.0000
  C   C1124     1.0  0.55315  0.26171  0.00251  1.0000
  H   H1751     1.0  0.57578  0.01746  0.08244  1.0000
  H   H1752     1.0  0.45713  0.24258  0.99723  1.0000
  C   C1125     1.0  0.53580  0.28171  0.00701  1.0000
  C   C1126     1.0  0.53776  0.27195  0.01623  1.0000
  C   C1127     1.0  0.54655  0.26194  0.01398  1.0000
  C   C1128     1.0  0.53807  0.31255  0.01756  1.0000
  H   H1753     1.0  0.53206  0.20475  0.99707  1.0000
  H   H1754     1.0  0.53260  0.27213  0.02507  1.0000
  H   H1755     1.0  0.54819  0.25440  0.02106  1.0000
  C   C1129     1.0  0.59806  0.30698  0.00618  1.0000
  C   C1130     1.0  0.59018  0.30044  0.01421  1.0000
  C   C1131     1.0  0.59282  0.28813  0.01591  1.0000
  C   C1132     1.0  0.60361  0.28234  0.00987  1.0000
  C   C1133     1.0  0.51091  0.04627  0.23526  1.0000
  H   H1756     1.0  0.58203  0.30495  0.01906  1.0000
  H   H1757     1.0  0.60579  0.27283  0.01125  1.0000
  H   H1758     1.0  0.49767  0.00594  0.17610  1.0000
  H   H1759     1.0  0.50680  0.11235  0.01199  1.0000
  C   C1134     1.0  0.53462  0.24033  0.00213  1.0000
  H   H1760     1.0  0.48441  0.32666  0.02371  1.0000
  H   H1761     1.0  0.53572  0.31456  0.00885  1.0000
  N   N107      1.0  0.55004  0.22841  0.05047  1.0000
  C   C1135     1.0  0.54684  0.24109  0.05073  1.0000
  C   C1136     1.0  0.53919  0.22400  0.05303  1.0000
  C   C1137     1.0  0.55703  0.22181  0.05942  1.0000
  C   C1138     1.0  0.55713  0.22675  0.03870  1.0000
  H   H1762     1.0  0.55481  0.24477  0.04864  1.0000
  H   H1763     1.0  0.54168  0.24261  0.05957  1.0000
  H   H1764     1.0  0.54131  0.24635  0.04429  1.0000
  H   H1765     1.0  0.53352  0.22525  0.06178  1.0000
  H   H1766     1.0  0.53381  0.22870  0.04632  1.0000
  H   H1767     1.0  0.54126  0.21444  0.05296  1.0000
  H   H1768     1.0  0.56008  0.21229  0.05913  1.0000
  H   H1769     1.0  0.55184  0.22254  0.06846  1.0000
  H   H1770     1.0  0.56508  0.22524  0.05795  1.0000
  H   H1771     1.0  0.55231  0.23190  0.03165  1.0000
  H   H1772     1.0  0.55947  0.21732  0.03809  1.0000
  H   H1773     1.0  0.56559  0.22953  0.03665  1.0000
  C   C1139     1.0  0.46142  0.27291  0.03072  1.0000
  H   H1774     1.0  0.55348  0.02748  0.14749  1.0000
  C   C1140     1.0  0.51382  0.24179  0.00452  1.0000
  H   H1775     1.0  0.48118  0.22620  0.99990  1.0000
  C   C1141     1.0  0.51906  0.16764  0.01292  1.0000
  H   H1776     1.0  0.54414  0.99682  0.23316  1.0000
  S   S463      1.0  0.51619  0.09119  0.00203  1.0000
  N   N108      1.0  0.55089  0.30778  0.01665  1.0000
  N   N109      1.0  0.56215  0.17132  0.04068  1.0000
  C   C1142     1.0  0.55399  0.17550  0.03257  1.0000
  C   C1143     1.0  0.55537  0.16808  0.05284  1.0000
  C   C1144     1.0  0.56800  0.18083  0.03981  1.0000
  C   C1145     1.0  0.57114  0.16087  0.03749  1.0000
  H   H1777     1.0  0.54930  0.16859  0.03310  1.0000
  H   H1778     1.0  0.55876  0.17779  0.02326  1.0000
  H   H1779     1.0  0.54724  0.18348  0.03462  1.0000
  H   H1780     1.0  0.55091  0.16087  0.05375  1.0000
  H   H1781     1.0  0.56116  0.16500  0.05928  1.0000
  H   H1782     1.0  0.54830  0.17569  0.05544  1.0000
  H   H1783     1.0  0.57314  0.18350  0.03073  1.0000
  H   H1784     1.0  0.57432  0.17798  0.04573  1.0000
  H   H1785     1.0  0.56147  0.18888  0.04208  1.0000
  H   H1786     1.0  0.57739  0.15739  0.04350  1.0000
  H   H1787     1.0  0.57649  0.16299  0.02840  1.0000
  H   H1788     1.0  0.56698  0.15363  0.03778  1.0000
  H   H1789     1.0  0.49933  0.13906  0.00813  1.0000
  C   C1146     1.0  0.49072  0.18556  0.01491  1.0000
  C   C1147     1.0  0.53802  0.16295  0.99989  1.0000
  H   H1790     1.0  0.51148  0.13089  0.99892  1.0000
  C   C1148     1.0  0.48228  0.13133  0.00427  1.0000
  Fe  Fe227     1.0  0.53987  0.00560  0.11467  1.0000
  H   H1791     1.0  0.60295  0.21199  0.99741  1.0000
  C   C1149     1.0  0.57233  0.02254  0.07445  1.0000
  H   H1792     1.0  0.55712  0.03595  0.17347  1.0000
  C   C1150     1.0  0.54269  0.28153  0.99566  1.0000
  H   H1793     1.0  0.47566  0.21315  0.00702  1.0000
  H   H1794     1.0  0.45229  0.99617  0.22692  1.0000
  H   H1795     1.0  0.51466  0.24319  0.99490  1.0000
  H   H1796     1.0  0.49103  0.18566  0.02372  1.0000
  H   H1797     1.0  0.54723  0.01056  0.17104  1.0000
  H   H1798     1.0  0.48023  0.13837  0.99654  1.0000
  N   N110      1.0  0.43476  0.00630  0.22566  1.0000
  N   N111      1.0  0.52577  0.16134  0.00339  1.0000
  H   H1799     1.0  0.55862  0.00724  0.15849  1.0000
  H   H1800     1.0  0.42006  0.00086  0.23876  1.0000
  Fe  Fe228     1.0  0.58033  0.16405  0.00193  1.0000
  H   H1801     1.0  0.52586  0.01843  0.23936  1.0000
  C   C1151     1.0  0.61982  0.21042  0.00853  1.0000
  H   H1802     1.0  0.52761  0.00047  0.21441  1.0000
  C   C1152     1.0  0.48486  0.17734  0.00179  1.0000
  H   H1803     1.0  0.52725  0.24862  0.02212  1.0000
  H   H1804     1.0  0.49455  0.12041  0.02105  1.0000
  N   N112      1.0  0.49501  0.12575  0.00247  1.0000
  H   H1805     1.0  0.51187  0.24905  0.02396  1.0000
  C   C1153     1.0  0.49728  0.11662  0.01304  1.0000
  H   H1806     1.0  0.45473  0.26122  0.02493  1.0000
  C   C1154     1.0  0.62263  0.19471  0.99861  1.0000
  H   H1807     1.0  0.55476  0.03748  0.06391  1.0000
  C   C1155     1.0  0.44344  0.99866  0.23263  1.0000
  H   H1808     1.0  0.47962  0.30219  0.99836  1.0000
  H   H1809     1.0  0.52337  0.16462  0.02055  1.0000
  H   H1810     1.0  0.54199  0.01130  0.22388  1.0000
  H   H1811     1.0  0.62978  0.18938  0.00326  1.0000
  C   C1156     1.0  0.42313  0.00907  0.23370  1.0000
  S   S464      1.0  0.47041  0.01904  0.21049  1.0000
  H   H1812     1.0  0.44449  0.00309  0.23907  1.0000
  H   H1813     1.0  0.54204  0.03168  0.15967  1.0000
  H   H1814     1.0  0.65641  0.32644  0.99896  1.0000
  C   C1157     1.0  0.55352  0.30511  0.02844  1.0000
  C   C1158     1.0  0.48137  0.27488  0.02091  1.0000
  C   C1159     1.0  0.55456  0.29684  0.01209  1.0000
  C   C1160     1.0  0.46838  0.32286  0.04410  1.0000
  H   H1815     1.0  0.44251  0.99719  0.21135  1.0000
  C   C1161     1.0  0.46982  0.00145  0.20068  1.0000
  H   H1816     1.0  0.54858  0.29862  0.03481  1.0000
  C   C1162     1.0  0.57146  0.02216  0.15875  1.0000
  N   N113      1.0  0.51791  0.10564  0.06892  1.0000
  C   C1163     1.0  0.51334  0.10505  0.05905  1.0000
  C   C1164     1.0  0.53077  0.10494  0.06510  1.0000
  C   C1165     1.0  0.51561  0.09563  0.07883  1.0000
  C   C1166     1.0  0.51195  0.11692  0.07264  1.0000
  H   H1817     1.0  0.50361  0.10591  0.06146  1.0000
  H   H1818     1.0  0.51739  0.09653  0.05621  1.0000
  H   H1819     1.0  0.51527  0.11221  0.05128  1.0000
  H   H1820     1.0  0.53554  0.09660  0.06205  1.0000
  H   H1821     1.0  0.53285  0.11238  0.05766  1.0000
  H   H1822     1.0  0.53455  0.10520  0.07237  1.0000
  H   H1823     1.0  0.51891  0.09575  0.08649  1.0000
  H   H1824     1.0  0.52007  0.08701  0.07620  1.0000
  H   H1825     1.0  0.50601  0.09578  0.08185  1.0000
  H   H1826     1.0  0.51524  0.11774  0.08002  1.0000
  H   H1827     1.0  0.50223  0.11775  0.07560  1.0000
  H   H1828     1.0  0.51346  0.12461  0.06525  1.0000
  N   N114      1.0  0.46907  0.25131  0.06395  1.0000
  C   C1167     1.0  0.47597  0.24575  0.07315  1.0000
  C   C1168     1.0  0.45889  0.24584  0.06654  1.0000
  C   C1169     1.0  0.47662  0.24954  0.05236  1.0000
  C   C1170     1.0  0.46484  0.26407  0.06372  1.0000
  H   H1829     1.0  0.48405  0.24927  0.07115  1.0000
  H   H1830     1.0  0.47883  0.23602  0.07394  1.0000
  H   H1831     1.0  0.47073  0.24731  0.08194  1.0000
  H   H1832     1.0  0.45350  0.24986  0.05974  1.0000
  H   H1833     1.0  0.46186  0.23620  0.06670  1.0000
  H   H1834     1.0  0.45302  0.24692  0.07525  1.0000
  H   H1835     1.0  0.48427  0.25378  0.04996  1.0000
  H   H1836     1.0  0.47166  0.25340  0.04524  1.0000
  H   H1837     1.0  0.48009  0.23999  0.05230  1.0000
  H   H1838     1.0  0.45954  0.26855  0.05692  1.0000
  H   H1839     1.0  0.47235  0.26847  0.06160  1.0000
  H   H1840     1.0  0.45922  0.26577  0.07234  1.0000
  H   H1841     1.0  0.51499  0.23214  0.00812  1.0000
  S   S465      1.0  0.58071  0.00864  0.23642  1.0000
  C   C1171     1.0  0.43379  0.00011  0.21713  1.0000
  S   S466      1.0  0.49660  0.31430  0.05783  1.0000
  S   S467      1.0  0.55754  0.00492  0.11763  1.0000
  C   C1172     1.0  0.57884  0.00259  0.20142  1.0000
  H   H1842     1.0  0.51217  0.26436  0.00545  1.0000
  C   C1173     1.0  0.49221  0.99651  0.14143  1.0000
  S   S468      1.0  0.50108  0.02388  0.13795  1.0000
  N   N115      1.0  0.55880  0.02263  0.16405  1.0000
  S   S469      1.0  0.51259  0.00166  0.23740  1.0000
  C   C1174     1.0  0.61173  0.28886  0.00219  1.0000
  H   H1843     1.0  0.56206  0.00432  0.17266  1.0000
  H   H1844     1.0  0.55115  0.31319  0.03207  1.0000
  H   H1845     1.0  0.62514  0.32678  0.00047  1.0000
  H   H1846     1.0  0.44710  0.01567  0.21275  1.0000
  C   C1175     1.0  0.52099  0.24479  0.01992  1.0000
  H   H1847     1.0  0.49426  0.99609  0.14997  1.0000
  H   H1848     1.0  0.55217  0.00676  0.07700  1.0000
  C   C1176     1.0  0.55973  0.20193  0.99736  1.0000
  H   H1849     1.0  0.53586  0.23065  0.00541  1.0000
  H   H1850     1.0  0.47387  0.31106  0.02640  1.0000
  H   H1851     1.0  0.47928  0.13560  0.01199  1.0000
  N   N116      1.0  0.46610  0.32747  0.03211  1.0000
  H   H1852     1.0  0.48152  0.17133  0.02065  1.0000
  H   H1853     1.0  0.56063  0.02105  0.18162  1.0000
  N   N117      1.0  0.56046  0.02086  0.07535  1.0000
  H   H1854     1.0  0.57368  0.22401  0.99324  1.0000
  H   H1855     1.0  0.55343  0.03972  0.15326  1.0000
  S   S470      1.0  0.50246  0.20370  0.00700  1.0000
  C   C1177     1.0  0.52102  0.25929  0.00171  1.0000
  H   H1856     1.0  0.56392  0.00275  0.08468  1.0000
  C   C1178     1.0  0.47246  0.26219  0.01536  1.0000
  H   H1857     1.0  0.57423  0.01886  0.15044  1.0000
  H   H1858     1.0  0.61432  0.19210  0.00396  1.0000
  N   N118      1.0  0.62157  0.20751  0.99699  1.0000
  C   C1179     1.0  0.55610  0.02782  0.06468  1.0000
  C   C1180     1.0  0.55739  0.31661  0.00855  1.0000
  H   H1859     1.0  0.61168  0.20809  0.01468  1.0000
  H   H1860     1.0  0.54601  0.02744  0.17931  1.0000
  H   H1861     1.0  0.48886  0.01970  0.18968  1.0000
  H   H1862     1.0  0.57351  0.03101  0.15669  1.0000
  Fe  Fe229     1.0  0.52667  0.09350  0.01367  1.0000
  H   H1863     1.0  0.45343  0.27513  0.03721  1.0000
  H   H1864     1.0  0.55254  0.29842  0.00329  1.0000
  C   C1181     1.0  0.46216  0.26503  0.02381  1.0000
  S   S471      1.0  0.57758  0.00061  0.18796  1.0000
  H   H1865     1.0  0.54151  0.24314  0.00448  1.0000
  H   H1866     1.0  0.50462  0.24607  0.00834  1.0000
  C   C1182     1.0  0.55233  0.02482  0.08584  1.0000
  H   H1867     1.0  0.57215  0.03200  0.07353  1.0000
  H   H1868     1.0  0.46777  0.22707  0.01089  1.0000
  H   H1869     1.0  0.55143  0.03438  0.08523  1.0000
  H   H1870     1.0  0.49416  0.11296  0.99354  1.0000
  H   H1871     1.0  0.55543  0.31901  0.99963  1.0000
  C   C1183     1.0  0.51346  0.06714  0.23903  1.0000
  H   H1872     1.0  0.54995  0.28993  0.01809  1.0000
  H   H1873     1.0  0.56230  0.02549  0.05652  1.0000
  H   H1874     1.0  0.45803  0.21046  0.00264  1.0000
  H   H1875     1.0  0.44976  0.22416  0.00676  1.0000
  C   C1184     1.0  0.57535  0.12418  0.00437  1.0000
  H   H1876     1.0  0.57875  0.01956  0.06668  1.0000
  H   H1877     1.0  0.55704  0.02092  0.23431  1.0000
  H   H1878     1.0  0.52997  0.99586  0.16329  1.0000
  H   H1879     1.0  0.42351  0.01383  0.24020  1.0000
  H   H1880     1.0  0.63789  0.31892  0.00643  1.0000
  C   C1185     1.0  0.56750  0.21832  0.99727  1.0000
  H   H1881     1.0  0.61898  0.22002  0.00764  1.0000
  H   H1882     1.0  0.54287  0.02844  0.23099  1.0000
  N   N119      1.0  0.54374  0.01070  0.24124  1.0000
  H   H1883     1.0  0.62012  0.28434  0.99768  1.0000
  C   C1186     1.0  0.48495  0.99513  0.18432  1.0000
  C   C1187     1.0  0.55132  0.27150  0.99343  1.0000
  C   C1188     1.0  0.45559  0.22018  0.99928  1.0000
  H   H1884     1.0  0.41629  0.01468  0.22876  1.0000
  H   H1885     1.0  0.64037  0.20579  0.99283  1.0000
  S   S472      1.0  0.62124  0.24327  0.99305  1.0000
  Fe  Fe230     1.0  0.52530  0.04117  0.27151  1.0000
  S   S473      1.0  0.53912  0.02441  0.27279  1.0000
  S   S474      1.0  0.52648  0.05601  0.25568  1.0000
  Fe  Fe231     1.0  0.51000  0.03303  0.29509  1.0000
  S   S475      1.0  0.52227  0.01543  0.29861  1.0000
  S   S476      1.0  0.49289  0.03934  0.30702  1.0000
  Fe  Fe232     1.0  0.53659  0.02549  0.29161  1.0000
  S   S477      1.0  0.55059  0.01891  0.30226  1.0000
  Fe  Fe233     1.0  0.52388  0.01566  0.27982  1.0000
  H   H1886     1.0  0.45422  0.00453  0.40276  1.0000
  S   S478      1.0  0.52415  0.04325  0.28972  1.0000
  S   S479      1.0  0.51018  0.03230  0.27680  1.0000
  C   C1189     1.0  0.51847  0.05629  0.24549  1.0000
  C   C1190     1.0  0.39068  0.00948  0.45748  1.0000
  H   H1887     1.0  0.52113  0.03749  0.24856  1.0000
  H   H1888     1.0  0.48219  0.02725  0.27877  1.0000
  C   C1191     1.0  0.55836  0.00507  0.29928  1.0000
  H   H1889     1.0  0.59077  0.99895  0.38382  1.0000
  C   C1192     1.0  0.53089  0.01272  0.24607  1.0000
  C   C1193     1.0  0.47332  0.01203  0.33240  1.0000
  H   H1890     1.0  0.48826  0.04973  0.25157  1.0000
  C   C1194     1.0  0.56036  0.00330  0.28792  1.0000
  H   H1891     1.0  0.36932  0.02459  0.48332  1.0000
  H   H1892     1.0  0.48674  0.04095  0.27240  1.0000
  C   C1195     1.0  0.57953  0.03353  0.29040  1.0000
  H   H1893     1.0  0.55769  0.01048  0.28101  1.0000
  H   H1894     1.0  0.49717  0.02402  0.24833  1.0000
  H   H1895     1.0  0.47508  0.01825  0.26642  1.0000
  H   H1896     1.0  0.53130  0.02858  0.32071  1.0000
  C   C1196     1.0  0.48536  0.02859  0.31625  1.0000
  C   C1197     1.0  0.47368  0.03221  0.32211  1.0000
  H   H1897     1.0  0.57770  0.01463  0.28466  1.0000
  C   C1198     1.0  0.65958  0.01978  0.46428  1.0000
  H   H1898     1.0  0.46934  0.04147  0.32058  1.0000
  C   C1199     1.0  0.50963  0.99791  0.27758  1.0000
  H   H1899     1.0  0.59227  0.00601  0.28533  1.0000
  H   H1900     1.0  0.57020  0.03282  0.29199  1.0000
  S   S480      1.0  0.33472  0.03466  0.48459  1.0000
  S   S481      1.0  0.52419  0.99929  0.27466  1.0000
  H   H1901     1.0  0.58190  0.03864  0.28124  1.0000
  C   C1200     1.0  0.39351  0.02463  0.43978  1.0000
  C   C1201     1.0  0.52140  0.01136  0.34708  1.0000
  H   H1902     1.0  0.47292  0.05028  0.25326  1.0000
  C   C1202     1.0  0.50090  0.00361  0.28580  1.0000
  C   C1203     1.0  0.49094  0.01661  0.31823  1.0000
  H   H1903     1.0  0.47159  0.04056  0.27475  1.0000
  H   H1904     1.0  0.37325  0.01165  0.46862  1.0000
  H   H1905     1.0  0.50316  0.00868  0.29059  1.0000
  H   H1906     1.0  0.48943  0.99916  0.32824  1.0000
  H   H1907     1.0  0.55965  0.00055  0.24690  1.0000
  S   S482      1.0  0.33267  0.01791  0.46827  1.0000
  C   C1204     1.0  0.48917  0.00268  0.28789  1.0000
  Fe  Fe234     1.0  0.34694  0.02423  0.47158  1.0000
  C   C1205     1.0  0.37430  0.02578  0.45326  1.0000
  H   H1908     1.0  0.52496  0.99876  0.33051  1.0000
  C   C1206     1.0  0.48080  0.03558  0.27204  1.0000
  H   H1909     1.0  0.39908  0.02818  0.43164  1.0000
  H   H1910     1.0  0.49989  0.01374  0.31364  1.0000
  S   S483      1.0  0.41217  0.00583  0.44206  1.0000
  H   H1911     1.0  0.57984  0.03876  0.29652  1.0000
  H   H1912     1.0  0.53212  0.00871  0.31867  1.0000
  H   H1913     1.0  0.65492  0.02521  0.45719  1.0000
  C   C1207     1.0  0.38171  0.03052  0.44295  1.0000
  H   H1914     1.0  0.45858  0.02678  0.33458  1.0000
  N   N120      1.0  0.43680  0.00150  0.41089  1.0000
  C   C1208     1.0  0.47445  0.02683  0.25989  1.0000
  H   H1915     1.0  0.37824  0.03866  0.43729  1.0000
  C   C1209     1.0  0.48500  0.00835  0.32649  1.0000
  H   H1916     1.0  0.44375  0.01679  0.40813  1.0000
  H   H1917     1.0  0.62960  0.99842  0.37031  1.0000
  H   H1918     1.0  0.35711  0.00788  0.45665  1.0000
  C   C1210     1.0  0.48195  0.04462  0.25146  1.0000
  H   H1919     1.0  0.53855  0.00164  0.33110  1.0000
  H   H1920     1.0  0.60274  0.02812  0.28107  1.0000
  H   H1921     1.0  0.52527  0.03257  0.33477  1.0000
  H   H1922     1.0  0.58302  0.99700  0.37403  1.0000
  H   H1923     1.0  0.60602  0.01426  0.29101  1.0000
  H   H1924     1.0  0.52831  0.01696  0.25374  1.0000
  H   H1925     1.0  0.54806  0.00623  0.25822  1.0000
  C   C1211     1.0  0.59978  0.02302  0.29010  1.0000
  H   H1926     1.0  0.48244  0.00705  0.29428  1.0000
  H   H1927     1.0  0.42207  0.01223  0.40339  1.0000
  H   H1928     1.0  0.65277  0.01807  0.47254  1.0000
  N   N121      1.0  0.58753  0.02174  0.29217  1.0000
  H   H1929     1.0  0.44305  0.01327  0.39487  1.0000
  C   C1212     1.0  0.58391  0.01523  0.30438  1.0000
  C   C1213     1.0  0.52996  0.02503  0.33040  1.0000
  N   N122      1.0  0.52325  0.01565  0.33417  1.0000
  H   H1930     1.0  0.37005  0.00619  0.44512  1.0000
  H   H1931     1.0  0.51271  0.02380  0.32117  1.0000
  S   S484      1.0  0.46580  0.00193  0.34287  1.0000
  S   S485      1.0  0.64361  0.99653  0.42175  1.0000
  C   C1214     1.0  0.42441  0.00824  0.41211  1.0000
  H   H1932     1.0  0.52996  0.00768  0.34990  1.0000
  C   C1215     1.0  0.39792  0.01395  0.44690  1.0000
  C   C1216     1.0  0.51168  0.02039  0.33085  1.0000
  C   C1217     1.0  0.37884  0.01532  0.46061  1.0000
  H   H1933     1.0  0.57463  0.01433  0.30633  1.0000
  H   H1934     1.0  0.50189  0.03048  0.25735  1.0000
  H   H1935     1.0  0.59019  0.01948  0.27451  1.0000
  S   S486      1.0  0.60986  0.99571  0.31886  1.0000
  H   H1936     1.0  0.58954  0.00619  0.30598  1.0000
  H   H1937     1.0  0.35858  0.00251  0.42728  1.0000
  S   S487      1.0  0.35936  0.03292  0.45638  1.0000
  N   N123      1.0  0.48308  0.03326  0.26014  1.0000
  C   C1218     1.0  0.49513  0.02598  0.25722  1.0000
  H   H1938     1.0  0.53888  0.02165  0.33247  1.0000
  C   C1219     1.0  0.46760  0.02392  0.33003  1.0000
  H   H1939     1.0  0.46524  0.03204  0.26198  1.0000
  H   H1940     1.0  0.39034  0.01530  0.48392  1.0000
  C   C1220     1.0  0.36035  0.00677  0.44739  1.0000
  H   H1941     1.0  0.50632  0.02786  0.33509  1.0000
  C   C1221     1.0  0.52999  0.00574  0.32838  1.0000
  H   H1942     1.0  0.34028  0.00559  0.44303  1.0000
  C   C1222     1.0  0.58690  0.01519  0.28380  1.0000
  H   H1943     1.0  0.58463  0.01973  0.31093  1.0000
  H   H1944     1.0  0.57235  0.99864  0.39951  1.0000
  H   H1945     1.0  0.47598  0.02482  0.25109  1.0000
  C   C1223     1.0  0.44479  0.00940  0.40385  1.0000
  H   H1946     1.0  0.50641  0.01351  0.33350  1.0000
  H   H1947     1.0  0.49630  0.01734  0.26354  1.0000
  H   H1948     1.0  0.52794  0.00424  0.24922  1.0000
  C   C1224     1.0  0.56268  0.99585  0.30801  1.0000
  H   H1949     1.0  0.39423  0.00153  0.46329  1.0000
  H   H1950     1.0  0.60075  0.02752  0.29654  1.0000
  S   S488      1.0  0.35207  0.00821  0.48525  1.0000
  H   H1951     1.0  0.45351  0.00180  0.31156  1.0000
  H   H1952     1.0  0.45402  0.00173  0.32621  1.0000
  H   H1953     1.0  0.44229  0.99693  0.32385  1.0000
  H   H1954     1.0  0.35625  0.01500  0.44175  1.0000
  H   H1955     1.0  0.51640  0.00422  0.35014  1.0000
  H   H1956     1.0  0.56120  0.99715  0.31685  1.0000
  H   H1957     1.0  0.51631  0.01856  0.35180  1.0000
  Fe  Fe235     1.0  0.33686  0.00262  0.48304  1.0000
  C   C1225     1.0  0.54993  0.00250  0.25029  1.0000
  H   H1958     1.0  0.65534  0.00653  0.45191  1.0000
  H   H1959     1.0  0.43777  0.00361  0.42766  1.0000
  C   C1226     1.0  0.34466  0.99747  0.44857  1.0000
  C   C1227     1.0  0.48624  0.99599  0.28182  1.0000
  C   C1228     1.0  0.51716  0.04584  0.24363  1.0000
  H   H1960     1.0  0.42274  0.01551  0.41678  1.0000
  H   H1961     1.0  0.37574  0.00304  0.49235  1.0000
  H   H1962     1.0  0.56498  0.99613  0.38970  1.0000
  H   H1963     1.0  0.54517  0.02632  0.24551  1.0000
  C   C1229     1.0  0.45189  0.99679  0.32086  1.0000
  H   H1964     1.0  0.41817  0.00251  0.41736  1.0000
  C   C1230     1.0  0.65983  0.00169  0.45930  1.0000
  H   H1965     1.0  0.65290  0.99962  0.46733  1.0000
  H   H1966     1.0  0.63536  0.99815  0.27964  1.0000
  H   H1967     1.0  0.62972  0.00003  0.30044  1.0000
  H   H1968     1.0  0.34072  0.99798  0.45791  1.0000
  C   C1231     1.0  0.36811  0.02650  0.49212  1.0000
  H   H1969     1.0  0.39061  0.02632  0.49118  1.0000
  H   H1970     1.0  0.36960  0.03551  0.49063  1.0000
  N   N124      1.0  0.35758  0.99620  0.44587  1.0000
  C   C1232     1.0  0.62456  0.99611  0.29723  1.0000
  C   C1233     1.0  0.62771  0.99511  0.28544  1.0000
  Fe  Fe236     1.0  0.66311  0.99546  0.41875  1.0000
  C   C1234     1.0  0.43948  0.99657  0.42270  1.0000
  H   H1971     1.0  0.43597  0.99517  0.39623  1.0000
  H   H1972     1.0  0.48788  0.06881  0.69024  1.0000
  S   S489      1.0  0.54786  0.00674  0.59349  1.0000
  H   H1973     1.0  0.45489  0.03048  0.68267  1.0000
  C   C1235     1.0  0.44389  0.06094  0.72482  1.0000
  H   H1974     1.0  0.58199  0.02714  0.72650  1.0000
  C   C1236     1.0  0.59542  0.01960  0.57083  1.0000
  C   C1237     1.0  0.44444  0.05914  0.71370  1.0000
  C   C1238     1.0  0.43077  0.02570  0.67720  1.0000
  Fe  Fe237     1.0  0.43578  0.99674  0.61466  1.0000
  H   H1975     1.0  0.59253  0.03135  0.58776  1.0000
  H   H1976     1.0  0.45642  0.00878  0.73416  1.0000
  H   H1977     1.0  0.58006  0.05252  0.70067  1.0000
  C   C1239     1.0  0.49093  0.00596  0.71797  1.0000
  C   C1240     1.0  0.44971  0.02563  0.68018  1.0000
  H   H1978     1.0  0.59744  0.03948  0.69036  1.0000
  N   N125      1.0  0.43716  0.03183  0.68152  1.0000
  H   H1979     1.0  0.53027  0.00478  0.71925  1.0000
  C   C1241     1.0  0.53489  0.01924  0.73016  1.0000
  H   H1980     1.0  0.48411  0.07123  0.72574  1.0000
  S   S490      1.0  0.44800  0.02383  0.63294  1.0000
  H   H1981     1.0  0.60533  0.03784  0.70152  1.0000
  N   N126      1.0  0.48814  0.06950  0.70773  1.0000
  N   N127      1.0  0.58664  0.01900  0.58216  1.0000
  C   C1242     1.0  0.51835  0.00728  0.63725  1.0000
  S   S491      1.0  0.48577  0.04399  0.74065  1.0000
  H   H1982     1.0  0.49125  0.08705  0.70165  1.0000
  Fe  Fe238     1.0  0.47318  0.04133  0.68617  1.0000
  S   S492      1.0  0.48790  0.04227  0.69323  1.0000
  S   S493      1.0  0.45462  0.04915  0.69454  1.0000
  Fe  Fe239     1.0  0.48951  0.02752  0.66848  1.0000
  S   S494      1.0  0.50584  0.02701  0.67416  1.0000
  S   S495      1.0  0.49176  0.01735  0.65475  1.0000
  Fe  Fe240     1.0  0.49481  0.02341  0.69235  1.0000
  H   H1983     1.0  0.57306  0.00357  0.74238  1.0000
  Fe  Fe241     1.0  0.49770  0.04600  0.67467  1.0000
  S   S496      1.0  0.50791  0.05986  0.67135  1.0000
  S   S497      1.0  0.47920  0.02196  0.68680  1.0000
  S   S498      1.0  0.48222  0.04699  0.66730  1.0000
  S   S499      1.0  0.50445  0.06542  0.73571  1.0000
  H   H1984     1.0  0.57683  0.00936  0.57743  1.0000
  H   H1985     1.0  0.50025  0.05604  0.71695  1.0000
  H   H1986     1.0  0.50771  0.03016  0.63483  1.0000
  S   S500      1.0  0.59853  0.99555  0.70513  1.0000
  C   C1243     1.0  0.57414  0.99796  0.62749  1.0000
  C   C1244     1.0  0.59900  0.03426  0.69914  1.0000
  C   C1245     1.0  0.57069  0.01028  0.64510  1.0000
  S   S501      1.0  0.34078  0.01768  0.51584  1.0000
  S   S502      1.0  0.35740  0.00538  0.56310  1.0000
  C   C1246     1.0  0.48170  0.07087  0.69854  1.0000
  H   H1987     1.0  0.42697  0.04907  0.67536  1.0000
  C   C1247     1.0  0.58105  0.99822  0.73830  1.0000
  H   H1988     1.0  0.37579  0.02936  0.50973  1.0000
  S   S503      1.0  0.58383  0.01332  0.67839  1.0000
  S   S504      1.0  0.56494  0.00932  0.70411  1.0000
  C   C1248     1.0  0.57768  0.99881  0.64597  1.0000
  H   H1989     1.0  0.59588  0.03131  0.72284  1.0000
  Fe  Fe242     1.0  0.56477  0.02058  0.68605  1.0000
  S   S505      1.0  0.55773  0.04002  0.68490  1.0000
  S   S506      1.0  0.56061  0.01594  0.61447  1.0000
  C   C1249     1.0  0.48006  0.01203  0.64140  1.0000
  H   H1990     1.0  0.46843  0.99674  0.58879  1.0000
  C   C1250     1.0  0.47958  0.07212  0.71861  1.0000
  H   H1991     1.0  0.42245  0.03658  0.69546  1.0000
  H   H1992     1.0  0.47343  0.06601  0.72202  1.0000
  H   H1993     1.0  0.50118  0.07688  0.71036  1.0000
  C   C1251     1.0  0.57980  0.02973  0.70461  1.0000
  C   C1252     1.0  0.51605  0.02758  0.63804  1.0000
  C   C1253     1.0  0.43631  0.04409  0.67461  1.0000
  H   H1994     1.0  0.49073  0.99564  0.68114  1.0000
  H   H1995     1.0  0.43658  0.03640  0.69765  1.0000
  H   H1996     1.0  0.57375  0.04751  0.71589  1.0000
  H   H1997     1.0  0.57758  0.03497  0.69607  1.0000
  H   H1998     1.0  0.53590  0.00994  0.73519  1.0000
  H   H1999     1.0  0.54375  0.02049  0.72481  1.0000
  H   H2000     1.0  0.47646  0.08004  0.69635  1.0000
  Fe  Fe243     1.0  0.57683  0.00016  0.67386  1.0000
  S   S507      1.0  0.55776  0.00856  0.67986  1.0000
  C   C1254     1.0  0.49515  0.05728  0.71018  1.0000
  H   H2001     1.0  0.50158  0.05499  0.70208  1.0000
  C   C1255     1.0  0.52741  0.02052  0.62055  1.0000
  H   H2002     1.0  0.56042  0.02463  0.63449  1.0000
  Fe  Fe244     1.0  0.33846  0.01801  0.49805  1.0000
  H   H2003     1.0  0.44101  0.04898  0.67769  1.0000
  H   H2004     1.0  0.47543  0.06489  0.70144  1.0000
  C   C1256     1.0  0.43190  0.03191  0.69409  1.0000
  H   H2005     1.0  0.51473  0.01163  0.73535  1.0000
  H   H2006     1.0  0.42133  0.03030  0.67783  1.0000
  C   C1257     1.0  0.52141  0.05424  0.67587  1.0000
  C   C1258     1.0  0.52894  0.06179  0.67397  1.0000
  C   C1259     1.0  0.53996  0.05740  0.67701  1.0000
  C   C1260     1.0  0.54361  0.04538  0.68177  1.0000
  C   C1261     1.0  0.53597  0.03785  0.68400  1.0000
  C   C1262     1.0  0.52480  0.04232  0.68121  1.0000
  H   H2007     1.0  0.52634  0.07102  0.66993  1.0000
  H   H2008     1.0  0.54581  0.06326  0.67535  1.0000
  H   H2009     1.0  0.53864  0.02860  0.68785  1.0000
  H   H2010     1.0  0.51892  0.03650  0.68310  1.0000
  C   C1263     1.0  0.37389  0.00579  0.50085  1.0000
  H   H2011     1.0  0.47411  0.08126  0.71709  1.0000
  H   H2012     1.0  0.33159  0.99933  0.54791  1.0000
  H   H2013     1.0  0.52456  0.00028  0.67810  1.0000
  H   H2014     1.0  0.58799  0.05104  0.71176  1.0000
  H   H2015     1.0  0.45378  0.02466  0.67096  1.0000
  H   H2016     1.0  0.53211  0.02498  0.73668  1.0000
  H   H2017     1.0  0.45078  0.01664  0.68588  1.0000
  H   H2018     1.0  0.60336  0.02502  0.69815  1.0000
  H   H2019     1.0  0.43775  0.06436  0.70886  1.0000
  H   H2020     1.0  0.43099  0.01652  0.68245  1.0000
  H   H2021     1.0  0.54132  0.00637  0.63505  1.0000
  H   H2022     1.0  0.60401  0.02046  0.57178  1.0000
  C   C1264     1.0  0.49618  0.07772  0.70360  1.0000
  H   H2023     1.0  0.50276  0.07592  0.69540  1.0000
  C   C1265     1.0  0.52999  0.01410  0.71447  1.0000
  C   C1266     1.0  0.45551  0.01709  0.73695  1.0000
  Fe  Fe245     1.0  0.44741  0.00758  0.62756  1.0000
  H   H2024     1.0  0.43471  0.02516  0.66781  1.0000
  H   H2025     1.0  0.44033  0.04430  0.66510  1.0000
  H   H2026     1.0  0.57131  0.02970  0.71127  1.0000
  C   C1267     1.0  0.46039  0.02237  0.63856  1.0000
  C   C1268     1.0  0.47037  0.01330  0.63662  1.0000
  C   C1269     1.0  0.33336  0.00988  0.56653  1.0000
  C   C1270     1.0  0.47981  0.01981  0.64818  1.0000
  C   C1271     1.0  0.46993  0.02902  0.65001  1.0000
  C   C1272     1.0  0.46025  0.03034  0.64513  1.0000
  C   C1273     1.0  0.36695  0.00814  0.59592  1.0000
  H   H2027     1.0  0.59500  0.01833  0.71902  1.0000
  H   H2028     1.0  0.46976  0.03514  0.65514  1.0000
  H   H2029     1.0  0.45263  0.03750  0.64645  1.0000
  H   H2030     1.0  0.57777  0.02968  0.59499  1.0000
  H   H2031     1.0  0.53549  0.00274  0.69145  1.0000
  H   H2032     1.0  0.51355  0.02554  0.64783  1.0000
  C   C1274     1.0  0.45266  0.05448  0.73102  1.0000
  Fe  Fe246     1.0  0.55793  0.00169  0.60765  1.0000
  C   C1275     1.0  0.56567  0.01569  0.63524  1.0000
  N   N128      1.0  0.37507  0.99730  0.59264  1.0000
  H   H2033     1.0  0.36177  0.00631  0.60514  1.0000
  C   C1276     1.0  0.41551  0.99913  0.58380  1.0000
  C   C1277     1.0  0.52544  0.03445  0.71592  1.0000
  H   H2034     1.0  0.51949  0.02298  0.61668  1.0000
  H   H2035     1.0  0.53888  0.01460  0.70882  1.0000
  H   H2036     1.0  0.41447  0.00857  0.58054  1.0000
  C   C1278     1.0  0.45374  0.05082  0.70875  1.0000
  C   C1279     1.0  0.46228  0.04401  0.71516  1.0000
  H   H2037     1.0  0.51012  0.00955  0.63390  1.0000
  C   C1280     1.0  0.59028  0.02756  0.71962  1.0000
  C   C1281     1.0  0.58219  0.04699  0.70914  1.0000
  H   H2038     1.0  0.46910  0.03709  0.71172  1.0000
  N   N129      1.0  0.58782  0.03465  0.70814  1.0000
  H   H2039     1.0  0.53422  0.03588  0.71044  1.0000
  N   N130      1.0  0.52622  0.02217  0.72270  1.0000
  H   H2040     1.0  0.47795  0.99774  0.61494  1.0000
  H   H2041     1.0  0.43243  0.02275  0.69951  1.0000
  H   H2042     1.0  0.48938  0.05081  0.71350  1.0000
  C   C1282     1.0  0.51454  0.02086  0.73027  1.0000
  H   H2043     1.0  0.54627  0.05485  0.71694  1.0000
  H   H2044     1.0  0.57187  0.02505  0.57374  1.0000
  S   S508      1.0  0.55695  0.03737  0.73478  1.0000
  H   H2045     1.0  0.56928  0.01502  0.65194  1.0000
  H   H2046     1.0  0.57802  0.00605  0.72096  1.0000
  S   S509      1.0  0.43026  0.00184  0.63237  1.0000
  H   H2047     1.0  0.46834  0.04053  0.73114  1.0000
  H   H2048     1.0  0.59952  0.00968  0.59262  1.0000
  C   C1283     1.0  0.57552  0.01762  0.58046  1.0000
  S   S510      1.0  0.50149  0.01340  0.70842  1.0000
  N   N131      1.0  0.52419  0.01734  0.63355  1.0000
  C   C1284     1.0  0.48457  0.00081  0.71355  1.0000
  H   H2049     1.0  0.53350  0.01299  0.61686  1.0000
  H   H2050     1.0  0.39486  0.01096  0.49769  1.0000
  C   C1285     1.0  0.58434  0.02996  0.58640  1.0000
  H   H2051     1.0  0.59229  0.02724  0.56399  1.0000
  C   C1286     1.0  0.48300  0.99629  0.73779  1.0000
  C   C1287     1.0  0.46180  0.04591  0.72623  1.0000
  H   H2052     1.0  0.45121  0.02451  0.73065  1.0000
  H   H2053     1.0  0.58473  0.00802  0.59959  1.0000
  H   H2054     1.0  0.46532  0.99824  0.67934  1.0000
  C   C1288     1.0  0.52791  0.06011  0.72528  1.0000
  C   C1289     1.0  0.48985  0.00400  0.73009  1.0000
  N   N132      1.0  0.37618  0.01759  0.49907  1.0000
  H   H2055     1.0  0.46458  0.01824  0.73595  1.0000
  H   H2056     1.0  0.49482  0.00794  0.73347  1.0000
  H   H2057     1.0  0.53278  0.01156  0.64813  1.0000
  H   H2058     1.0  0.53193  0.02801  0.61740  1.0000
  H   H2059     1.0  0.49369  0.00649  0.61596  1.0000
  H   H2060     1.0  0.44844  0.00671  0.58497  1.0000
  H   H2061     1.0  0.33377  0.01906  0.56316  1.0000
  H   H2062     1.0  0.34330  0.99684  0.53536  1.0000
  H   H2063     1.0  0.44553  0.00338  0.67092  1.0000
  H   H2064     1.0  0.45437  0.00924  0.56938  1.0000
  H   H2065     1.0  0.52383  0.01627  0.70849  1.0000
  C   C1290     1.0  0.37420  0.02049  0.51066  1.0000
  H   H2066     1.0  0.47072  0.00740  0.63124  1.0000
  H   H2067     1.0  0.59720  0.01151  0.56733  1.0000
  H   H2068     1.0  0.58073  0.03784  0.58005  1.0000
  H   H2069     1.0  0.35871  0.02680  0.49670  1.0000
  H   H2070     1.0  0.52559  0.06626  0.71746  1.0000
  H   H2071     1.0  0.48773  0.00496  0.63985  1.0000
  H   H2072     1.0  0.58390  0.02053  0.70350  1.0000
  H   H2073     1.0  0.51587  0.00454  0.64702  1.0000
  C   C1291     1.0  0.34377  0.00122  0.56738  1.0000
  H   H2074     1.0  0.44186  0.99530  0.65604  1.0000
  H   H2075     1.0  0.52009  0.03539  0.63526  1.0000
  H   H2076     1.0  0.47709  0.00235  0.66768  1.0000
  C   C1292     1.0  0.38171  0.00021  0.58038  1.0000
  S   S511      1.0  0.45200  0.00432  0.60929  1.0000
  H   H2077     1.0  0.47449  0.99949  0.57325  1.0000
  H   H2078     1.0  0.53955  0.02140  0.63567  1.0000
  S   S512      1.0  0.65397  0.01637  0.49776  1.0000
  H   H2079     1.0  0.52217  0.04079  0.72187  1.0000
  Fe  Fe247     1.0  0.65033  0.99897  0.50898  1.0000
  H   H2080     1.0  0.36496  0.02050  0.51574  1.0000
  H   H2081     1.0  0.51933  0.03678  0.70986  1.0000
  C   C1293     1.0  0.53957  0.05363  0.72497  1.0000
  S   S513      1.0  0.42499  0.00243  0.60045  1.0000
  C   C1294     1.0  0.56731  0.00947  0.62650  1.0000
  C   C1295     1.0  0.45088  0.00272  0.57710  1.0000
  H   H2082     1.0  0.37952  0.99899  0.50645  1.0000
  H   H2083     1.0  0.37185  0.01494  0.59518  1.0000
  H   H2084     1.0  0.43672  0.06748  0.72855  1.0000
  C   C1296     1.0  0.51921  0.05835  0.73561  1.0000
  C   C1297     1.0  0.53493  0.01400  0.63833  1.0000
  H   H2085     1.0  0.38019  0.01395  0.51612  1.0000
  H   H2086     1.0  0.56864  0.01732  0.58879  1.0000
  H   H2087     1.0  0.36053  0.01210  0.59007  1.0000
  Fe  Fe248     1.0  0.55968  0.99666  0.69735  1.0000
  S   S514      1.0  0.51869  0.99959  0.61041  1.0000
  H   H2088     1.0  0.50771  0.02318  0.72498  1.0000
  C   C1298     1.0  0.59123  0.00882  0.59098  1.0000
  H   H2089     1.0  0.38716  0.00662  0.57931  1.0000
  Fe  Fe249     1.0  0.58340  0.00103  0.69607  1.0000
  C   C1299     1.0  0.49602  0.99832  0.61293  1.0000
  H   H2090     1.0  0.59322  0.00040  0.58802  1.0000
  H   H2091     1.0  0.38894  0.99852  0.59987  1.0000
  H   H2092     1.0  0.51149  0.02661  0.73680  1.0000
  H   H2093     1.0  0.48570  0.00202  0.70418  1.0000
  H   H2094     1.0  0.44251  0.00159  0.57585  1.0000
  H   H2095     1.0  0.58517  0.99680  0.54327  1.0000
  C   C1300     1.0  0.54251  0.04557  0.73505  1.0000
  H   H2096     1.0  0.36455  0.00559  0.50536  1.0000
  C   C1301     1.0  0.58386  0.99960  0.72607  1.0000
  H   H2097     1.0  0.37568  0.00421  0.57417  1.0000
  H   H2098     1.0  0.33109  0.01918  0.54027  1.0000
  H   H2099     1.0  0.52414  0.99947  0.63380  1.0000
  H   H2100     1.0  0.40823  0.99685  0.57036  1.0000
  C   C1302     1.0  0.47282  0.99491  0.67250  1.0000
  S   S515      1.0  0.39110  0.99570  0.55148  1.0000
  C   C1303     1.0  0.38854  0.01756  0.49267  1.0000
  Fe  Fe250     1.0  0.57194  0.27794  0.94747  1.0000
  S   S516      1.0  0.56955  0.28696  0.92926  1.0000
  H   H2101     1.0  0.59642  0.23775  0.93651  1.0000
  Fe  Fe251     1.0  0.59696  0.26510  0.93894  1.0000
  S   S517      1.0  0.59656  0.27343  0.92009  1.0000
  S   S518      1.0  0.61358  0.25180  0.94186  1.0000
  Fe  Fe252     1.0  0.58757  0.29004  0.92679  1.0000
  Fe  Fe253     1.0  0.57866  0.26933  0.92481  1.0000
  S   S519      1.0  0.57318  0.26040  0.91375  1.0000
  S   S520      1.0  0.58944  0.28204  0.94534  1.0000
  S   S521      1.0  0.57963  0.26000  0.94331  1.0000
  C   C1304     1.0  0.62862  0.24305  0.96968  1.0000
  S   S522      1.0  0.47948  0.24290  0.95650  1.0000
  H   H2102     1.0  0.54143  0.28905  0.98852  1.0000
  C   C1305     1.0  0.45477  0.00690  0.75725  1.0000
  H   H2103     1.0  0.53120  0.28380  0.96558  1.0000
  C   C1306     1.0  0.51052  0.02876  0.80918  1.0000
  C   C1307     1.0  0.52649  0.00149  0.78259  1.0000
  C   C1308     1.0  0.43625  0.02093  0.80602  1.0000
  Fe  Fe254     1.0  0.55588  0.20020  0.93802  1.0000
  S   S523      1.0  0.56940  0.18803  0.94782  1.0000
  S   S524      1.0  0.54783  0.21847  0.94141  1.0000
  Fe  Fe255     1.0  0.55361  0.18088  0.92757  1.0000
  S   S525      1.0  0.56725  0.16717  0.93613  1.0000
  S   S526      1.0  0.54212  0.17755  0.91751  1.0000
  Fe  Fe256     1.0  0.55824  0.17488  0.95204  1.0000
  S   S527      1.0  0.55487  0.16265  0.96967  1.0000
  Fe  Fe257     1.0  0.57729  0.18153  0.93104  1.0000
  S   S528      1.0  0.59689  0.17761  0.92399  1.0000
  S   S529      1.0  0.54387  0.18764  0.94391  1.0000
  S   S530      1.0  0.56453  0.19470  0.92082  1.0000
  Fe  Fe258     1.0  0.55855  0.02762  0.75311  1.0000
  H   H2104     1.0  0.57117  0.05287  0.85406  1.0000
  H   H2105     1.0  0.52276  0.19526  0.92990  1.0000
  H   H2106     1.0  0.51701  0.21815  0.90331  1.0000
  H   H2107     1.0  0.48872  0.10502  0.90912  1.0000
  Fe  Fe259     1.0  0.47850  0.04607  0.77349  1.0000
  S   S531      1.0  0.47399  0.04448  0.79324  1.0000
  H   H2108     1.0  0.45623  0.02973  0.75161  1.0000
  S   S532      1.0  0.49692  0.03929  0.76392  1.0000
  Fe  Fe260     1.0  0.52999  0.09259  0.91150  1.0000
  S   S533      1.0  0.54453  0.09674  0.91682  1.0000
  S   S534      1.0  0.53285  0.07783  0.90195  1.0000
  Fe  Fe261     1.0  0.51124  0.10926  0.92530  1.0000
  S   S535      1.0  0.52391  0.11489  0.93198  1.0000
  S   S536      1.0  0.49159  0.11571  0.92776  1.0000
  Fe  Fe262     1.0  0.53472  0.11568  0.91360  1.0000
  S   S537      1.0  0.54467  0.13001  0.90383  1.0000
  Fe  Fe263     1.0  0.53287  0.09565  0.93494  1.0000
  S   S538      1.0  0.54239  0.08658  0.94972  1.0000
  S   S539      1.0  0.52128  0.11171  0.90649  1.0000
  S   S540      1.0  0.51914  0.08991  0.93002  1.0000
  Fe  Fe264     1.0  0.51118  0.06257  0.85291  1.0000
  S   S541      1.0  0.49707  0.05802  0.84717  1.0000
  S   S542      1.0  0.50779  0.07762  0.86224  1.0000
  Fe  Fe265     1.0  0.53073  0.04552  0.84002  1.0000
  S   S543      1.0  0.51860  0.03935  0.83332  1.0000
  S   S544      1.0  0.55050  0.04037  0.83560  1.0000
  Fe  Fe266     1.0  0.50941  0.05838  0.82947  1.0000
  S   S545      1.0  0.50560  0.06641  0.81139  1.0000
  Fe  Fe267     1.0  0.50717  0.03921  0.85146  1.0000
  S   S546      1.0  0.49675  0.02506  0.86014  1.0000
  S   S547      1.0  0.52260  0.06465  0.83463  1.0000
  S   S548      1.0  0.52025  0.04368  0.85870  1.0000
  Fe  Fe268     1.0  0.50087  0.17773  0.95865  1.0000
  C   C1309     1.0  0.53586  0.08660  0.98442  1.0000
  S   S549      1.0  0.51098  0.19193  0.95405  1.0000
  Fe  Fe269     1.0  0.48397  0.16508  0.95607  1.0000
  Fe  Fe270     1.0  0.48508  0.16611  0.98036  1.0000
  S   S550      1.0  0.47296  0.16392  0.94455  1.0000
  H   H2109     1.0  0.60265  0.28397  0.98451  1.0000
  H   H2110     1.0  0.56361  0.25760  0.96577  1.0000
  Fe  Fe271     1.0  0.50487  0.15079  0.96574  1.0000
  S   S551      1.0  0.51880  0.13463  0.96965  1.0000
  S   S552      1.0  0.48120  0.18028  0.96464  1.0000
  S   S553      1.0  0.50341  0.16374  0.94866  1.0000
  H   H2111     1.0  0.54541  0.27084  0.91702  1.0000
  Fe  Fe272     1.0  0.49215  0.27469  0.96729  1.0000
  H   H2112     1.0  0.49170  0.31828  0.95557  1.0000
  H   H2113     1.0  0.44244  0.02800  0.76168  1.0000
  H   H2114     1.0  0.52557  0.26648  0.94652  1.0000
  C   C1310     1.0  0.52358  0.09034  0.98742  1.0000
  S   S554      1.0  0.56464  0.00818  0.78298  1.0000
  C   C1311     1.0  0.51379  0.32336  0.97019  1.0000
  H   H2115     1.0  0.50851  0.00961  0.80363  1.0000
  C   C1312     1.0  0.53496  0.08806  0.96419  1.0000
  C   C1313     1.0  0.54151  0.08528  0.97287  1.0000
  C   C1314     1.0  0.61772  0.27723  0.95808  1.0000
  H   H2116     1.0  0.48659  0.00695  0.79849  1.0000
  H   H2117     1.0  0.58376  0.13059  0.97953  1.0000
  C   C1315     1.0  0.52272  0.09217  0.96709  1.0000
  H   H2118     1.0  0.55097  0.08201  0.97071  1.0000
  H   H2119     1.0  0.51785  0.02643  0.80172  1.0000
  H   H2120     1.0  0.60200  0.17918  0.96207  1.0000
  H   H2121     1.0  0.51761  0.09436  0.96044  1.0000
  C   C1316     1.0  0.48595  0.12852  0.93347  1.0000
  C   C1317     1.0  0.49200  0.13142  0.94018  1.0000
  C   C1318     1.0  0.48780  0.14213  0.94396  1.0000
  C   C1319     1.0  0.47754  0.14995  0.94103  1.0000
  C   C1320     1.0  0.47134  0.14690  0.93456  1.0000
  C   C1321     1.0  0.47551  0.13617  0.93084  1.0000
  H   H2122     1.0  0.49990  0.12541  0.94251  1.0000
  H   H2123     1.0  0.49261  0.14436  0.94901  1.0000
  H   H2124     1.0  0.46339  0.15291  0.93231  1.0000
  H   H2125     1.0  0.47076  0.13393  0.92571  1.0000
  C   C1322     1.0  0.52552  0.07799  0.89112  1.0000
  C   C1323     1.0  0.52549  0.06722  0.88883  1.0000
  C   C1324     1.0  0.51999  0.06695  0.88010  1.0000
  C   C1325     1.0  0.51454  0.07748  0.87352  1.0000
  C   C1326     1.0  0.51439  0.08825  0.87596  1.0000
  C   C1327     1.0  0.51989  0.08852  0.88468  1.0000
  H   H2126     1.0  0.52974  0.05902  0.89386  1.0000
  H   H2127     1.0  0.51986  0.05861  0.87853  1.0000
  H   H2128     1.0  0.51016  0.09644  0.87092  1.0000
  H   H2129     1.0  0.51993  0.09687  0.88629  1.0000
  H   H2130     1.0  0.60236  0.23034  0.94928  1.0000
  C   C1328     1.0  0.55743  0.03288  0.80323  1.0000
  C   C1329     1.0  0.55188  0.03404  0.81488  1.0000
  C   C1330     1.0  0.55684  0.03909  0.82093  1.0000
  C   C1331     1.0  0.56720  0.04308  0.81528  1.0000
  C   C1332     1.0  0.57250  0.04226  0.80358  1.0000
  Fe  Fe273     1.0  0.48739  0.25211  0.96502  1.0000
  H   H2131     1.0  0.54399  0.03074  0.81930  1.0000
  H   H2132     1.0  0.57112  0.04690  0.81991  1.0000
  H   H2133     1.0  0.58046  0.04549  0.79924  1.0000
  C   C1333     1.0  0.61337  0.16383  0.95590  1.0000
  C   C1334     1.0  0.48246  0.05092  0.79829  1.0000
  C   C1335     1.0  0.49064  0.05709  0.79033  1.0000
  C   C1336     1.0  0.49752  0.06197  0.79447  1.0000
  C   C1337     1.0  0.49651  0.06046  0.80659  1.0000
  C   C1338     1.0  0.48838  0.05422  0.81459  1.0000
  C   C1339     1.0  0.48125  0.04960  0.81043  1.0000
  H   H2134     1.0  0.49157  0.05822  0.78095  1.0000
  H   H2135     1.0  0.50366  0.06690  0.78823  1.0000
  H   H2136     1.0  0.48746  0.05314  0.82396  1.0000
  H   H2137     1.0  0.47482  0.04497  0.81662  1.0000
  C   C1340     1.0  0.60443  0.17335  0.93544  1.0000
  C   C1341     1.0  0.60065  0.17938  0.94465  1.0000
  C   C1342     1.0  0.60523  0.17470  0.95482  1.0000
  H   H2138     1.0  0.54264  0.21835  0.98128  1.0000
  C   C1343     1.0  0.61781  0.15828  0.94633  1.0000
  C   C1344     1.0  0.61339  0.16308  0.93607  1.0000
  H   H2139     1.0  0.59399  0.18748  0.94403  1.0000
  H   H2140     1.0  0.58158  0.12850  0.96058  1.0000
  H   H2141     1.0  0.62419  0.14994  0.94709  1.0000
  H   H2142     1.0  0.61640  0.15846  0.92891  1.0000
  C   C1345     1.0  0.54649  0.15346  0.96874  1.0000
  C   C1346     1.0  0.54038  0.15687  0.95971  1.0000
  C   C1347     1.0  0.53236  0.15058  0.95971  1.0000
  C   C1348     1.0  0.53063  0.14065  0.96856  1.0000
  H   H2143     1.0  0.49973  0.00393  0.81751  1.0000
  H   H2144     1.0  0.51884  0.31814  0.99192  1.0000
  H   H2145     1.0  0.54134  0.16471  0.95299  1.0000
  H   H2146     1.0  0.52719  0.15369  0.95305  1.0000
  C   C1349     1.0  0.41362  0.00343  0.77827  1.0000
  C   C1350     1.0  0.61548  0.24885  0.95621  1.0000
  C   C1351     1.0  0.54471  0.16316  0.91523  1.0000
  C   C1352     1.0  0.53846  0.15494  0.92314  1.0000
  C   C1353     1.0  0.53865  0.14444  0.92005  1.0000
  C   C1354     1.0  0.54509  0.14218  0.90900  1.0000
  C   C1355     1.0  0.55161  0.15024  0.90133  1.0000
  C   C1356     1.0  0.55136  0.16068  0.90439  1.0000
  H   H2147     1.0  0.53302  0.15696  0.93141  1.0000
  H   H2148     1.0  0.53347  0.13837  0.92602  1.0000
  H   H2149     1.0  0.55658  0.14859  0.89278  1.0000
  H   H2150     1.0  0.55602  0.16706  0.89812  1.0000
  H   H2151     1.0  0.54857  0.04379  0.85888  1.0000
  C   C1357     1.0  0.55526  0.11457  0.93463  1.0000
  H   H2152     1.0  0.52463  0.00720  0.81386  1.0000
  H   H2153     1.0  0.49893  0.19945  0.98637  1.0000
  C   C1358     1.0  0.49072  0.00841  0.77974  1.0000
  H   H2154     1.0  0.60460  0.20506  0.94623  1.0000
  Fe  Fe274     1.0  0.46831  0.05063  0.75178  1.0000
  N   N133      1.0  0.44863  0.01674  0.74919  1.0000
  H   H2155     1.0  0.43256  0.02607  0.81308  1.0000
  H   H2156     1.0  0.49214  0.01722  0.77777  1.0000
  C   C1359     1.0  0.44686  0.03561  0.79370  1.0000
  S   S555      1.0  0.55448  0.00973  0.75990  1.0000
  H   H2157     1.0  0.47175  0.99749  0.86453  1.0000
  H   H2158     1.0  0.52091  0.22953  0.90741  1.0000
  H   H2159     1.0  0.52172  0.29522  0.98520  1.0000
  C   C1360     1.0  0.50385  0.01059  0.85843  1.0000
  C   C1361     1.0  0.51536  0.00808  0.85176  1.0000
  H   H2160     1.0  0.53569  0.20428  0.96113  1.0000
  H   H2161     1.0  0.50754  0.22468  0.91530  1.0000
  H   H2162     1.0  0.59693  0.25377  0.96390  1.0000
  H   H2163     1.0  0.52027  0.01494  0.84808  1.0000
  C   C1362     1.0  0.51694  0.22165  0.91093  1.0000
  C   C1363     1.0  0.48831  0.22884  0.95547  1.0000
  C   C1364     1.0  0.48371  0.22045  0.95327  1.0000
  C   C1365     1.0  0.49054  0.20898  0.95306  1.0000
  C   C1366     1.0  0.50200  0.20595  0.95492  1.0000
  C   C1367     1.0  0.50664  0.21439  0.95693  1.0000
  C   C1368     1.0  0.49981  0.22581  0.95724  1.0000
  H   H2164     1.0  0.47483  0.22279  0.95183  1.0000
  H   H2165     1.0  0.48701  0.20259  0.95120  1.0000
  H   H2166     1.0  0.51562  0.21214  0.95800  1.0000
  H   H2167     1.0  0.50352  0.23233  0.95864  1.0000
  C   C1369     1.0  0.52767  0.07431  0.78254  1.0000
  H   H2168     1.0  0.53496  0.25943  0.93490  1.0000
  C   C1370     1.0  0.49769  0.00153  0.86348  1.0000
  C   C1371     1.0  0.56668  0.24840  0.92161  1.0000
  C   C1372     1.0  0.56093  0.24763  0.93345  1.0000
  C   C1373     1.0  0.55520  0.23838  0.93946  1.0000
  C   C1374     1.0  0.55561  0.22957  0.93381  1.0000
  C   C1375     1.0  0.56166  0.23009  0.92206  1.0000
  C   C1376     1.0  0.56700  0.23963  0.91591  1.0000
  H   H2169     1.0  0.56066  0.25432  0.93791  1.0000
  H   H2170     1.0  0.55047  0.23805  0.94853  1.0000
  H   H2171     1.0  0.56196  0.22335  0.91762  1.0000
  H   H2172     1.0  0.57146  0.24017  0.90675  1.0000
  C   C1377     1.0  0.48287  0.31762  0.98500  1.0000
  H   H2173     1.0  0.53630  0.20463  0.90570  1.0000
  H   H2174     1.0  0.44326  0.04121  0.80037  1.0000
  H   H2175     1.0  0.62393  0.26901  0.96135  1.0000
  H   H2176     1.0  0.48931  0.18543  0.98336  1.0000
  H   H2177     1.0  0.45315  0.02450  0.81426  1.0000
  C   C1378     1.0  0.53143  0.05312  0.78929  1.0000
  H   H2178     1.0  0.63438  0.24329  0.95110  1.0000
  H   H2179     1.0  0.55219  0.20647  0.97459  1.0000
  H   H2180     1.0  0.55945  0.06313  0.87051  1.0000
  H   H2181     1.0  0.50174  0.02626  0.83250  1.0000
  H   H2182     1.0  0.52906  0.05213  0.78143  1.0000
  H   H2183     1.0  0.40724  0.00969  0.78309  1.0000
  N   N134      1.0  0.53636  0.06368  0.78667  1.0000
  H   H2184     1.0  0.55138  0.07018  0.77526  1.0000
  C   C1379     1.0  0.53534  0.19900  0.97027  1.0000
  N   N135      1.0  0.50699  0.15657  0.90955  1.0000
  C   C1380     1.0  0.51077  0.14455  0.91639  1.0000
  C   C1381     1.0  0.50712  0.15589  0.89751  1.0000
  C   C1382     1.0  0.51515  0.16389  0.90897  1.0000
  C   C1383     1.0  0.49493  0.16191  0.91534  1.0000
  H   H2185     1.0  0.51981  0.14023  0.91223  1.0000
  H   H2186     1.0  0.50480  0.13880  0.91698  1.0000
  H   H2187     1.0  0.51080  0.14466  0.92555  1.0000
  H   H2188     1.0  0.50435  0.16480  0.89204  1.0000
  H   H2189     1.0  0.51612  0.15180  0.89298  1.0000
  H   H2190     1.0  0.50103  0.15042  0.89767  1.0000
  H   H2191     1.0  0.51547  0.16436  0.91793  1.0000
  H   H2192     1.0  0.51244  0.17309  0.90406  1.0000
  H   H2193     1.0  0.52431  0.16026  0.90444  1.0000
  H   H2194     1.0  0.49169  0.17097  0.91044  1.0000
  H   H2195     1.0  0.49455  0.16255  0.92445  1.0000
  H   H2196     1.0  0.48854  0.15656  0.91602  1.0000
  H   H2197     1.0  0.52330  0.27479  0.92137  1.0000
  H   H2198     1.0  0.54461  0.28621  0.91578  1.0000
  H   H2199     1.0  0.62252  0.28182  0.94958  1.0000
  H   H2200     1.0  0.52941  0.30676  0.95937  1.0000
  C   C1384     1.0  0.51703  0.09312  0.97874  1.0000
  H   H2201     1.0  0.47033  0.24212  0.98598  1.0000
  Fe  Fe275     1.0  0.57197  0.00449  0.76488  1.0000
  C   C1385     1.0  0.61893  0.24512  0.97896  1.0000
  C   C1386     1.0  0.58345  0.14012  0.97571  1.0000
  S   S556      1.0  0.50446  0.16456  0.97484  1.0000
  S   S557      1.0  0.49321  0.29352  0.95884  1.0000
  C   C1387     1.0  0.52330  0.21767  0.92910  1.0000
  H   H2202     1.0  0.51553  0.00189  0.82764  1.0000
  H   H2203     1.0  0.56468  0.11412  0.93007  1.0000
  S   S558      1.0  0.49962  0.26565  0.98328  1.0000
  H   H2204     1.0  0.51943  0.07567  0.78946  1.0000
  C   C1388     1.0  0.59138  0.31501  0.93751  1.0000
  H   H2205     1.0  0.43660  0.01148  0.81024  1.0000
  H   H2206     1.0  0.52733  0.21084  0.93601  1.0000
  N   N136      1.0  0.55253  0.06055  0.85707  1.0000
  N   N137      1.0  0.49122  0.08627  0.91591  1.0000
  C   C1389     1.0  0.50081  0.07560  0.91500  1.0000
  C   C1390     1.0  0.49553  0.09672  0.90825  1.0000
  C   C1391     1.0  0.48745  0.08772  0.92824  1.0000
  C   C1392     1.0  0.48112  0.08508  0.91209  1.0000
  H   H2207     1.0  0.49802  0.06755  0.92087  1.0000
  H   H2208     1.0  0.50368  0.07412  0.90585  1.0000
  H   H2209     1.0  0.49801  0.09617  0.89883  1.0000
  H   H2210     1.0  0.50345  0.09760  0.91060  1.0000
  H   H2211     1.0  0.48029  0.09576  0.92922  1.0000
  H   H2212     1.0  0.49484  0.08875  0.93135  1.0000
  H   H2213     1.0  0.48417  0.08000  0.93431  1.0000
  H   H2214     1.0  0.48370  0.08397  0.90280  1.0000
  H   H2215     1.0  0.47375  0.09303  0.91261  1.0000
  H   H2216     1.0  0.47763  0.07728  0.91767  1.0000
  H   H2217     1.0  0.53651  0.24203  0.99238  1.0000
  C   C1393     1.0  0.53742  0.13659  0.97712  1.0000
  H   H2218     1.0  0.58864  0.14308  0.98020  1.0000
  H   H2219     1.0  0.59920  0.27560  0.97624  1.0000
  C   C1394     1.0  0.54345  0.21277  0.97503  1.0000
  C   C1395     1.0  0.60750  0.24870  0.97692  1.0000
  C   C1396     1.0  0.59795  0.32715  0.91852  1.0000
  C   C1397     1.0  0.53341  0.19926  0.99058  1.0000
  H   H2220     1.0  0.60453  0.13760  0.95065  1.0000
  C   C1398     1.0  0.48612  0.32217  0.97292  1.0000
  H   H2221     1.0  0.59109  0.15703  0.94853  1.0000
  H   H2222     1.0  0.53303  0.30886  0.98787  1.0000
  H   H2223     1.0  0.50023  0.14185  0.99258  1.0000
  H   H2224     1.0  0.53601  0.03765  0.75313  1.0000
  H   H2225     1.0  0.58440  0.13979  0.94750  1.0000
  H   H2226     1.0  0.63393  0.20900  0.98026  1.0000
  C   C1399     1.0  0.58115  0.13812  0.95724  1.0000
  S   S559      1.0  0.47619  0.26676  0.97393  1.0000
  H   H2227     1.0  0.50875  0.07634  0.91746  1.0000
  C   C1400     1.0  0.48912  0.31475  0.96491  1.0000
  H   H2228     1.0  0.44266  0.03558  0.74668  1.0000
  H   H2229     1.0  0.53458  0.12583  0.94783  1.0000
  H   H2230     1.0  0.53238  0.29604  0.93223  1.0000
  H   H2231     1.0  0.44099  0.03855  0.78734  1.0000
  C   C1401     1.0  0.54441  0.27759  0.92211  1.0000
  C   C1402     1.0  0.53278  0.28711  0.93806  1.0000
  H   H2232     1.0  0.55240  0.27511  0.92586  1.0000
  H   H2233     1.0  0.54065  0.28500  0.94197  1.0000
  C   C1403     1.0  0.51782  0.20239  0.92385  1.0000
  Fe  Fe276     1.0  0.49254  0.05439  0.74896  1.0000
  C   C1404     1.0  0.51579  0.30326  0.98120  1.0000
  H   H2234     1.0  0.45306  0.00630  0.79400  1.0000
  H   H2235     1.0  0.60165  0.12630  0.96369  1.0000
  S   S560      1.0  0.53166  0.00923  0.78961  1.0000
  H   H2236     1.0  0.52762  0.01438  0.76623  1.0000
  H   H2237     1.0  0.53703  0.31646  0.96168  1.0000
  H   H2238     1.0  0.54561  0.06159  0.76913  1.0000
  H   H2239     1.0  0.48202  0.22279  0.98075  1.0000
  Fe  Fe277     1.0  0.54748  0.01507  0.77724  1.0000
  N   N138      1.0  0.53353  0.27818  0.93149  1.0000
  C   C1405     1.0  0.52310  0.28145  0.92623  1.0000
  H   H2240     1.0  0.62453  0.19208  0.99004  1.0000
  H   H2241     1.0  0.52477  0.28760  0.94537  1.0000
  H   H2242     1.0  0.53103  0.06546  0.80473  1.0000
  H   H2243     1.0  0.54045  0.21606  0.90958  1.0000
  S   S561      1.0  0.61633  0.15618  0.96970  1.0000
  C   C1406     1.0  0.48878  0.30279  0.96896  1.0000
  H   H2244     1.0  0.49686  0.12671  0.98403  1.0000
  H   H2245     1.0  0.54576  0.05706  0.80067  1.0000
  C   C1407     1.0  0.62688  0.24478  0.95832  1.0000
  C   C1408     1.0  0.41060  0.99994  0.76955  1.0000
  N   N139      1.0  0.52345  0.21261  0.91924  1.0000
  H   H2246     1.0  0.51474  0.28210  0.93313  1.0000
  H   H2247     1.0  0.52265  0.29015  0.91994  1.0000
  H   H2248     1.0  0.45756  0.00982  0.81131  1.0000
  C   C1409     1.0  0.54730  0.06246  0.77740  1.0000
  H   H2249     1.0  0.61054  0.27451  0.95613  1.0000
  H   H2250     1.0  0.51231  0.30081  0.97483  1.0000
  H   H2251     1.0  0.42982  0.02353  0.80022  1.0000
  H   H2252     1.0  0.55401  0.05449  0.78021  1.0000
  C   C1410     1.0  0.60654  0.27841  0.97781  1.0000
  C   C1411     1.0  0.49830  0.02159  0.82790  1.0000
  C   C1412     1.0  0.53588  0.25405  0.96931  1.0000
  H   H2253     1.0  0.54096  0.08435  0.99109  1.0000
  H   H2254     1.0  0.56685  0.06584  0.84323  1.0000
  N   N140      1.0  0.55286  0.11678  0.94659  1.0000
  H   H2255     1.0  0.63747  0.24023  0.97124  1.0000
  C   C1413     1.0  0.55606  0.12792  0.94590  1.0000
  H   H2256     1.0  0.54057  0.05125  0.87059  1.0000
  C   C1414     1.0  0.52341  0.99880  0.76468  1.0000
  H   H2257     1.0  0.46381  0.00787  0.75671  1.0000
  S   S562      1.0  0.57658  0.02206  0.75688  1.0000
  H   H2258     1.0  0.52237  0.22140  0.96964  1.0000
  C   C1415     1.0  0.45630  0.01941  0.80717  1.0000
  H   H2259     1.0  0.54257  0.07279  0.79587  1.0000
  H   H2260     1.0  0.44674  0.01848  0.78369  1.0000
  H   H2261     1.0  0.52053  0.26832  0.96849  1.0000
  H   H2262     1.0  0.51042  0.32130  0.96353  1.0000
  H   H2263     1.0  0.54181  0.19255  0.99101  1.0000
  N   N141      1.0  0.44799  0.02294  0.79924  1.0000
  H   H2264     1.0  0.45574  0.99826  0.75509  1.0000
  C   C1416     1.0  0.53383  0.26653  0.93961  1.0000
  H   H2265     1.0  0.54122  0.26406  0.94419  1.0000
  H   H2266     1.0  0.47936  0.99708  0.83255  1.0000
  H   H2267     1.0  0.53015  0.32399  0.98048  1.0000
  C   C1417     1.0  0.45255  0.01585  0.79008  1.0000
  C   C1418     1.0  0.60492  0.29569  0.96206  1.0000
  H   H2268     1.0  0.45556  0.03760  0.78885  1.0000
  N   N142      1.0  0.50717  0.01814  0.81752  1.0000
  C   C1419     1.0  0.55993  0.10689  0.95379  1.0000
  S   S563      1.0  0.52813  0.24306  0.97191  1.0000
  H   H2269     1.0  0.57411  0.14497  0.97804  1.0000
  H   H2270     1.0  0.53784  0.04494  0.79224  1.0000
  H   H2271     1.0  0.55277  0.24190  0.96942  1.0000
  S   S564      1.0  0.57449  0.03659  0.78278  1.0000
  Fe  Fe278     1.0  0.56738  0.02642  0.77452  1.0000
  H   H2272     1.0  0.55380  0.02871  0.79866  1.0000
  H   H2273     1.0  0.52799  0.19438  0.97248  1.0000
  H   H2274     1.0  0.55818  0.10808  0.96297  1.0000
  H   H2275     1.0  0.46516  0.02107  0.80224  1.0000
  C   C1420     1.0  0.53578  0.20867  0.91311  1.0000
  H   H2276     1.0  0.54077  0.20181  0.91922  1.0000
  S   S565      1.0  0.59172  0.30770  0.91744  1.0000
  C   C1421     1.0  0.53905  0.06480  0.79745  1.0000
  S   S566      1.0  0.47027  0.03535  0.76695  1.0000
  H   H2277     1.0  0.60828  0.22497  0.93590  1.0000
  N   N143      1.0  0.61301  0.28483  0.96679  1.0000
  H   H2278     1.0  0.50306  0.03452  0.80525  1.0000
  S   S567      1.0  0.42854  0.00293  0.79187  1.0000
  H   H2279     1.0  0.56554  0.12761  0.94175  1.0000
  H   H2280     1.0  0.55427  0.12982  0.95480  1.0000
  S   S568      1.0  0.49440  0.01071  0.75597  1.0000
  S   S569      1.0  0.55580  0.28298  0.96106  1.0000
  H   H2281     1.0  0.55320  0.10607  0.93491  1.0000
  C   C1422     1.0  0.60577  0.25077  0.96550  1.0000
  H   H2282     1.0  0.49410  0.01802  0.80867  1.0000
  C   C1423     1.0  0.50212  0.01215  0.81162  1.0000
  N   N144      1.0  0.53364  0.20660  0.97858  1.0000
  H   H2283     1.0  0.52517  0.07361  0.77462  1.0000
  H   H2284     1.0  0.56402  0.05204  0.84327  1.0000
  N   N145      1.0  0.52200  0.31300  0.97547  1.0000
  C   C1424     1.0  0.49183  0.00289  0.77060  1.0000
  H   H2285     1.0  0.46162  0.01672  0.78513  1.0000
  C   C1425     1.0  0.54926  0.04948  0.86440  1.0000
  H   H2286     1.0  0.61961  0.29386  0.97568  1.0000
  C   C1426     1.0  0.58731  0.15505  0.95817  1.0000
  H   H2287     1.0  0.58134  0.21463  0.93760  1.0000
  C   C1427     1.0  0.54813  0.27174  0.96516  1.0000
  C   C1428     1.0  0.54019  0.11769  0.95211  1.0000
  H   H2288     1.0  0.58795  0.30740  0.94268  1.0000
  H   H2289     1.0  0.59203  0.15852  0.96262  1.0000
  H   H2290     1.0  0.52833  0.22477  0.92614  1.0000
  H   H2291     1.0  0.55083  0.13556  0.94056  1.0000
  C   C1429     1.0  0.54535  0.14306  0.97724  1.0000
  C   C1430     1.0  0.59998  0.22889  0.94163  1.0000
  H   H2292     1.0  0.53611  0.12884  0.98396  1.0000
  H   H2293     1.0  0.54358  0.21875  0.96619  1.0000
  C   C1431     1.0  0.60063  0.13598  0.96029  1.0000
  H   H2294     1.0  0.45741  0.24026  0.98303  1.0000
  H   H2295     1.0  0.51572  0.04941  0.75377  1.0000
  S   S570      1.0  0.54961  0.03369  0.77006  1.0000
  C   C1432     1.0  0.53220  0.30929  0.96617  1.0000
  N   N146      1.0  0.58813  0.14230  0.96285  1.0000
  H   H2296     1.0  0.51983  0.17569  0.98976  1.0000
  H   H2297     1.0  0.62801  0.29281  0.96111  1.0000
  H   H2298     1.0  0.53121  0.08240  0.78023  1.0000
  C   C1433     1.0  0.59658  0.20955  0.95188  1.0000
  H   H2299     1.0  0.59020  0.20369  0.95506  1.0000
  H   H2300     1.0  0.57390  0.22126  0.95632  1.0000
  H   H2301     1.0  0.53835  0.11772  0.96163  1.0000
  H   H2302     1.0  0.55588  0.04424  0.86972  1.0000
  S   S571      1.0  0.50249  0.26104  0.95668  1.0000
  C   C1434     1.0  0.56770  0.03711  0.79755  1.0000
  H   H2303     1.0  0.54551  0.07566  0.84468  1.0000
  H   H2304     1.0  0.52333  0.05359  0.79642  1.0000
  C   C1435     1.0  0.52599  0.00574  0.77074  1.0000
  H   H2305     1.0  0.53458  0.06896  0.85575  1.0000
  N   N147      1.0  0.59134  0.22129  0.94545  1.0000
  C   C1436     1.0  0.58063  0.22675  0.95327  1.0000
  C   C1437     1.0  0.55421  0.25992  0.96628  1.0000
  Fe  Fe279     1.0  0.48839  0.02973  0.75649  1.0000
  H   H2306     1.0  0.43126  0.01488  0.75915  1.0000
  H   H2307     1.0  0.51768  0.19839  0.91667  1.0000
  C   C1438     1.0  0.52984  0.26587  0.96825  1.0000
  H   H2308     1.0  0.59914  0.21023  0.95978  1.0000
  H   H2309     1.0  0.58268  0.22784  0.96127  1.0000
  H   H2310     1.0  0.57644  0.23560  0.94872  1.0000
  H   H2311     1.0  0.53706  0.11013  0.95157  1.0000
  S   S572      1.0  0.47476  0.06215  0.75916  1.0000
  S   S573      1.0  0.45169  0.05700  0.74492  1.0000
  H   H2312     1.0  0.55594  0.07618  0.85946  1.0000
  C   C1439     1.0  0.54357  0.06707  0.85005  1.0000
  H   H2313     1.0  0.54438  0.07061  0.87052  1.0000
  H   H2314     1.0  0.54321  0.06191  0.84390  1.0000
  C   C1440     1.0  0.51772  0.01004  0.82139  1.0000
  C   C1441     1.0  0.58816  0.21998  0.93502  1.0000
  H   H2315     1.0  0.59596  0.21557  0.92909  1.0000
  C   C1442     1.0  0.54807  0.25105  0.96843  1.0000
  H   H2316     1.0  0.54983  0.12159  0.92903  1.0000
  H   H2317     1.0  0.50861  0.20487  0.92892  1.0000
  H   H2318     1.0  0.54375  0.19217  0.97020  1.0000
  C   C1443     1.0  0.56417  0.05772  0.84906  1.0000
  C   C1444     1.0  0.53591  0.27468  0.96647  1.0000
  H   H2319     1.0  0.56954  0.10594  0.94996  1.0000
  C   C1445     1.0  0.55313  0.06792  0.86472  1.0000
  H   H2320     1.0  0.58452  0.22871  0.92977  1.0000
  Fe  Fe280     1.0  0.50902  0.25157  0.97305  1.0000
  H   H2321     1.0  0.51413  0.22152  0.93337  1.0000
  H   H2322     1.0  0.51475  0.21107  0.98071  1.0000
  H   H2323     1.0  0.55774  0.09837  0.95439  1.0000
  H   H2324     1.0  0.49017  0.02763  0.82536  1.0000
  S   S574      1.0  0.49501  0.24125  0.98047  1.0000
  H   H2325     1.0  0.57808  0.16017  0.95962  1.0000
  H   H2326     1.0  0.55031  0.14019  0.98410  1.0000
  C   C1446     1.0  0.63248  0.21077  0.98916  1.0000
  S   S575      1.0  0.57866  0.20600  0.97992  1.0000
  C   C1447     1.0  0.59309  0.32302  0.94313  1.0000
  S   S576      1.0  0.48568  0.15114  0.97252  1.0000
  Fe  Fe281     1.0  0.60325  0.16460  0.98387  1.0000
  H   H2327     1.0  0.61231  0.21200  0.98299  1.0000
  H   H2328     1.0  0.57168  0.14277  0.95909  1.0000
  H   H2329     1.0  0.46470  0.00832  0.85365  1.0000
  H   H2330     1.0  0.50752  0.09599  0.98102  1.0000
  H   H2331     1.0  0.60142  0.30174  0.96833  1.0000
  C   C1448     1.0  0.53385  0.04398  0.74538  1.0000
  H   H2332     1.0  0.48890  0.00341  0.86889  1.0000
  H   H2333     1.0  0.44983  0.00638  0.76656  1.0000
  H   H2334     1.0  0.52498  0.16156  0.98583  1.0000
  H   H2335     1.0  0.53861  0.30153  0.96986  1.0000
  C   C1449     1.0  0.61137  0.21410  0.99164  1.0000
  C   C1450     1.0  0.62288  0.28801  0.96924  1.0000
  C   C1451     1.0  0.48522  0.29833  0.98102  1.0000
  C   C1452     1.0  0.44745  0.02798  0.75245  1.0000
  C   C1453     1.0  0.48770  0.00256  0.79148  1.0000
  C   C1454     1.0  0.43678  0.01501  0.75008  1.0000
  C   C1455     1.0  0.52233  0.21538  0.97845  1.0000
  S   S577      1.0  0.58426  0.17150  0.98250  1.0000
  H   H2336     1.0  0.59995  0.24992  0.98409  1.0000
  H   H2337     1.0  0.59098  0.32157  0.95263  1.0000
  H   H2338     1.0  0.62906  0.28005  0.97303  1.0000
  C   C1456     1.0  0.52617  0.31616  0.98431  1.0000
  S   S578      1.0  0.61862  0.30942  0.98995  1.0000
  H   H2339     1.0  0.48045  0.00293  0.85047  1.0000
  C   C1457     1.0  0.42476  0.99862  0.78093  1.0000
  H   H2340     1.0  0.50609  0.32647  0.97704  1.0000
  H   H2341     1.0  0.51343  0.03411  0.81350  1.0000
  H   H2342     1.0  0.60608  0.13900  0.96445  1.0000
  S   S579      1.0  0.60560  0.18100  0.98731  1.0000
  H   H2343     1.0  0.60944  0.30065  0.95360  1.0000
  H   H2344     1.0  0.63778  0.31906  0.99159  1.0000
  H   H2345     1.0  0.49580  0.01376  0.83449  1.0000
  C   C1458     1.0  0.52056  0.99661  0.84988  1.0000
  H   H2346     1.0  0.63207  0.22033  0.98797  1.0000
  H   H2347     1.0  0.59723  0.29364  0.96034  1.0000
  Fe  Fe282     1.0  0.58640  0.18725  0.98724  1.0000
  H   H2348     1.0  0.43732  0.00650  0.74786  1.0000
  H   H2349     1.0  0.61042  0.22379  0.99013  1.0000
  H   H2350     1.0  0.61245  0.27030  0.98180  1.0000
  H   H2351     1.0  0.46904  0.22199  0.97694  1.0000
  C   C1459     1.0  0.48227  0.30573  0.98903  1.0000
  H   H2352     1.0  0.48469  0.28919  0.98422  1.0000
  H   H2353     1.0  0.52175  0.01431  0.82584  1.0000
  H   H2354     1.0  0.55680  0.27137  0.98471  1.0000
  H   H2355     1.0  0.52298  0.00209  0.75552  1.0000
  C   C1460     1.0  0.59385  0.31708  0.92515  1.0000
  C   C1461     1.0  0.47191  0.00032  0.85492  1.0000
  H   H2356     1.0  0.52057  0.22098  0.98493  1.0000
  H   H2357     1.0  0.46359  0.00255  0.83577  1.0000
  C   C1462     1.0  0.52225  0.05043  0.74567  1.0000
  H   H2358     1.0  0.52198  0.26094  0.99204  1.0000
  C   C1463     1.0  0.47361  0.21973  0.98433  1.0000
  H   H2359     1.0  0.50815  0.30575  0.98840  1.0000
  H   H2360     1.0  0.47592  0.20996  0.98705  1.0000
  H   H2361     1.0  0.45159  0.99522  0.85594  1.0000
  C   C1464     1.0  0.56749  0.20945  0.99194  1.0000
  H   H2362     1.0  0.40189  0.00352  0.76768  1.0000
  H   H2363     1.0  0.50838  0.11626  0.99036  1.0000
  Fe  Fe283     1.0  0.48472  0.25638  0.98897  1.0000
  C   C1465     1.0  0.46256  0.23809  0.98996  1.0000
  Fe  Fe284     1.0  0.60812  0.32729  0.98315  1.0000
  H   H2364     1.0  0.65612  0.32666  0.98413  1.0000
  C   C1466     1.0  0.49871  0.12020  0.99216  1.0000
  H   H2365     1.0  0.43197  0.02217  0.74399  1.0000
  C   C1467     1.0  0.48975  0.18533  0.99218  1.0000
  H   H2366     1.0  0.45033  0.22177  0.99256  1.0000
  H   H2367     1.0  0.54026  0.35316  0.00191  1.0000
  Fe  Fe285     1.0  0.38333  0.53098  0.00097  1.0000
  H   H2368     1.0  0.56442  0.62686  0.00319  1.0000
  H   H2369     1.0  0.56381  0.64076  0.04935  1.0000
  H   H2370     1.0  0.65452  0.43695  0.00627  1.0000
  C   C1468     1.0  0.49424  0.59506  0.02281  1.0000
  H   H2371     1.0  0.48841  0.41401  0.00723  1.0000
  C   C1469     1.0  0.57185  0.61476  0.04043  1.0000
  S   S580      1.0  0.63783  0.38462  0.00674  1.0000
  S   S581      1.0  0.55140  0.57833  0.01241  1.0000
  C   C1470     1.0  0.58554  0.54425  0.00104  1.0000
  H   H2372     1.0  0.38916  0.59361  0.02407  1.0000
  H   H2373     1.0  0.50321  0.39640  0.00158  1.0000
  N   N148      1.0  0.63984  0.33527  0.99406  1.0000
  H   H2374     1.0  0.34245  0.51026  0.00598  1.0000
  H   H2375     1.0  0.58131  0.64035  0.03299  1.0000
  S   S582      1.0  0.64888  0.41025  0.01009  1.0000
  S   S583      1.0  0.44995  0.62119  0.00851  1.0000
  C   C1471     1.0  0.45259  0.39880  0.99809  1.0000
  H   H2376     1.0  0.62021  0.52327  0.03375  1.0000
  S   S584      1.0  0.53381  0.60469  0.01435  1.0000
  C   C1472     1.0  0.37323  0.43858  0.02245  1.0000
  H   H2377     1.0  0.37994  0.43672  0.01475  1.0000
  Fe  Fe286     1.0  0.64389  0.49652  0.00402  1.0000
  S   S585      1.0  0.63033  0.50830  0.01526  1.0000
  H   H2378     1.0  0.60484  0.54851  0.01374  1.0000
  C   C1473     1.0  0.37607  0.49224  0.00368  1.0000
  C   C1474     1.0  0.59835  0.52938  0.02959  1.0000
  Fe  Fe287     1.0  0.64271  0.52056  0.00835  1.0000
  S   S586      1.0  0.64201  0.53247  0.01994  1.0000
  H   H2379     1.0  0.46899  0.32999  0.04793  1.0000
  H   H2380     1.0  0.39172  0.58300  0.03735  1.0000
  S   S587      1.0  0.39294  0.45435  0.99263  1.0000
  Fe  Fe288     1.0  0.53309  0.64638  0.06301  1.0000
  H   H2381     1.0  0.34191  0.53091  0.01223  1.0000
  S   S588      1.0  0.59993  0.34148  0.99354  1.0000
  C   C1475     1.0  0.54504  0.59944  0.04871  1.0000
  C   C1476     1.0  0.40621  0.60461  0.02131  1.0000
  C   C1477     1.0  0.66400  0.54259  0.03271  1.0000
  H   H2382     1.0  0.45839  0.65616  0.02609  1.0000
  C   C1478     1.0  0.42009  0.66145  0.03207  1.0000
  N   N149      1.0  0.60506  0.53726  0.03090  1.0000
  C   C1479     1.0  0.61384  0.53034  0.03802  1.0000
  H   H2383     1.0  0.55410  0.63185  0.03320  1.0000
  C   C1480     1.0  0.63591  0.34224  0.00330  1.0000
  S   S589      1.0  0.47711  0.35865  0.99713  1.0000
  C   C1481     1.0  0.48715  0.65903  0.04833  1.0000
  H   H2384     1.0  0.45416  0.62056  0.03566  1.0000
  H   H2385     1.0  0.60070  0.43261  0.99975  1.0000
  S   S590      1.0  0.37770  0.54318  0.01361  1.0000
  Fe  Fe289     1.0  0.39939  0.44602  0.00928  1.0000
  S   S591      1.0  0.38813  0.44969  0.02652  1.0000
  Fe  Fe290     1.0  0.43184  0.61812  0.01631  1.0000
  Fe  Fe291     1.0  0.45644  0.60197  0.01489  1.0000
  C   C1482     1.0  0.36644  0.49429  0.02355  1.0000
  H   H2386     1.0  0.39626  0.61024  0.04223  1.0000
  Fe  Fe292     1.0  0.49391  0.35795  0.00186  1.0000
  S   S592      1.0  0.49278  0.36165  0.01937  1.0000
  H   H2387     1.0  0.54221  0.60259  0.07650  1.0000
  C   C1483     1.0  0.35373  0.43767  0.03477  1.0000
  H   H2388     1.0  0.36110  0.43037  0.01923  1.0000
  S   S593      1.0  0.47037  0.59915  0.02510  1.0000
  N   N150      1.0  0.57044  0.62763  0.03879  1.0000
  C   C1484     1.0  0.36257  0.43499  0.02498  1.0000
  H   H2389     1.0  0.50694  0.33806  0.01823  1.0000
  C   C1485     1.0  0.36646  0.44694  0.03983  1.0000
  H   H2390     1.0  0.58667  0.62810  0.02578  1.0000
  C   C1486     1.0  0.49505  0.34866  0.03019  1.0000
  C   C1487     1.0  0.48927  0.34874  0.04193  1.0000
  C   C1488     1.0  0.56479  0.63116  0.05018  1.0000
  H   H2391     1.0  0.44631  0.65218  0.03768  1.0000
  S   S594      1.0  0.41952  0.62903  0.02904  1.0000
  C   C1489     1.0  0.49658  0.39104  0.00658  1.0000
  H   H2392     1.0  0.48396  0.35689  0.04438  1.0000
  H   H2393     1.0  0.44983  0.39560  0.00747  1.0000
  C   C1490     1.0  0.59766  0.53980  0.99716  1.0000
  S   S595      1.0  0.65118  0.47704  0.01047  1.0000
  H   H2394     1.0  0.35776  0.49781  0.02099  1.0000
  H   H2395     1.0  0.54025  0.61358  0.03436  1.0000
  H   H2396     1.0  0.41099  0.49072  0.00774  1.0000
  H   H2397     1.0  0.54883  0.58734  0.06463  1.0000
  C   C1491     1.0  0.37515  0.44458  0.02986  1.0000
  N   N151      1.0  0.61554  0.41820  0.99662  1.0000
  C   C1492     1.0  0.41138  0.48436  0.99267  1.0000
  H   H2398     1.0  0.36797  0.45145  0.04565  1.0000
  H   H2399     1.0  0.42624  0.40636  0.99272  1.0000
  S   S596      1.0  0.50343  0.34113  0.99597  1.0000
  H   H2400     1.0  0.48542  0.33824  0.05952  1.0000
  C   C1493     1.0  0.42107  0.64373  0.02560  1.0000
  S   S597      1.0  0.35987  0.55989  0.99673  1.0000
  H   H2401     1.0  0.44641  0.65263  0.02271  1.0000
  H   H2402     1.0  0.63933  0.35048  0.00030  1.0000
  C   C1494     1.0  0.56299  0.63397  0.03018  1.0000
  C   C1495     1.0  0.65138  0.44627  0.00293  1.0000
  S   S598      1.0  0.43832  0.59906  0.02390  1.0000
  C   C1496     1.0  0.65486  0.53307  0.02355  1.0000
  S   S599      1.0  0.53782  0.65391  0.04372  1.0000
  H   H2403     1.0  0.44732  0.33241  0.03830  1.0000
  C   C1497     1.0  0.40132  0.50405  0.99587  1.0000
  H   H2404     1.0  0.60956  0.52605  0.04696  1.0000
  C   C1498     1.0  0.65410  0.54182  0.02942  1.0000
  H   H2405     1.0  0.34320  0.44516  0.01172  1.0000
  H   H2406     1.0  0.36485  0.48985  0.03302  1.0000
  H   H2407     1.0  0.41693  0.64505  0.04376  1.0000
  H   H2408     1.0  0.64580  0.54800  0.03149  1.0000
  H   H2409     1.0  0.42085  0.55967  0.01104  1.0000
  C   C1499     1.0  0.53706  0.61998  0.05028  1.0000
  C   C1500     1.0  0.53764  0.61685  0.06219  1.0000
  S   S600      1.0  0.42933  0.61501  0.99978  1.0000
  H   H2410     1.0  0.53361  0.62905  0.04637  1.0000
  H   H2411     1.0  0.37889  0.50059  0.00233  1.0000
  H   H2412     1.0  0.49210  0.59783  0.03107  1.0000
  H   H2413     1.0  0.34908  0.44532  0.04998  1.0000
  Fe  Fe293     1.0  0.35937  0.54437  0.01194  1.0000
  S   S601      1.0  0.39595  0.51363  0.00572  1.0000
  C   C1501     1.0  0.54555  0.59643  0.06058  1.0000
  H   H2414     1.0  0.47063  0.62542  0.04056  1.0000
  S   S602      1.0  0.55044  0.58823  0.04068  1.0000
  H   H2415     1.0  0.38991  0.48942  0.01889  1.0000
  H   H2416     1.0  0.61693  0.54820  0.01980  1.0000
  C   C1502     1.0  0.41920  0.64961  0.03469  1.0000
  H   H2417     1.0  0.41022  0.61093  0.02321  1.0000
  H   H2418     1.0  0.58230  0.63533  0.99699  1.0000
  C   C1503     1.0  0.64876  0.46676  0.00397  1.0000
  H   H2419     1.0  0.34190  0.42414  0.01822  1.0000
  Fe  Fe294     1.0  0.42325  0.43356  0.99693  1.0000
  H   H2420     1.0  0.59208  0.54279  0.04572  1.0000
  C   C1504     1.0  0.34190  0.44507  0.00300  1.0000
  C   C1505     1.0  0.49007  0.33820  0.05049  1.0000
  C   C1506     1.0  0.52730  0.65977  0.01263  1.0000
  H   H2421     1.0  0.44395  0.63138  0.04346  1.0000
  N   N152      1.0  0.40139  0.59674  0.03222  1.0000
  S   S603      1.0  0.38467  0.57469  0.99522  1.0000
  H   H2422     1.0  0.38511  0.47676  0.02888  1.0000
  H   H2423     1.0  0.33613  0.48809  0.05059  1.0000
  H   H2424     1.0  0.61702  0.53593  0.01423  1.0000
  H   H2425     1.0  0.65736  0.45175  0.01537  1.0000
  C   C1507     1.0  0.33336  0.53330  0.01779  1.0000
  H   H2426     1.0  0.50194  0.58484  0.99339  1.0000
  S   S604      1.0  0.51705  0.66077  0.06680  1.0000
  Fe  Fe295     1.0  0.37885  0.55765  0.99734  1.0000
  H   H2427     1.0  0.40267  0.58268  0.02396  1.0000
  C   C1508     1.0  0.45481  0.33634  0.03258  1.0000
  C   C1509     1.0  0.45210  0.65021  0.02920  1.0000
  S   S605      1.0  0.33984  0.43461  0.03714  1.0000
  C   C1510     1.0  0.50610  0.59220  0.01685  1.0000
  H   H2428     1.0  0.41527  0.59552  0.04065  1.0000
  H   H2429     1.0  0.59179  0.53427  0.02408  1.0000
  H   H2430     1.0  0.34264  0.50004  0.04148  1.0000
  H   H2431     1.0  0.59007  0.55193  0.03166  1.0000
  C   C1511     1.0  0.54180  0.60506  0.06730  1.0000
  C   C1512     1.0  0.48219  0.40816  0.01209  1.0000
  H   H2432     1.0  0.57569  0.61178  0.03197  1.0000
  H   H2433     1.0  0.33421  0.52018  0.04451  1.0000
  H   H2434     1.0  0.56998  0.62632  0.05701  1.0000
  S   S606      1.0  0.53359  0.62728  0.07106  1.0000
  H   H2435     1.0  0.33478  0.51561  0.05977  1.0000
  H   H2436     1.0  0.41791  0.39508  0.99752  1.0000
  H   H2437     1.0  0.61224  0.42018  0.01447  1.0000
  C   C1513     1.0  0.62332  0.37339  0.00215  1.0000
  H   H2438     1.0  0.39238  0.47596  0.01400  1.0000
  C   C1514     1.0  0.48797  0.59075  0.00745  1.0000
  H   H2439     1.0  0.36773  0.49463  0.00055  1.0000
  H   H2440     1.0  0.62028  0.37118  0.01161  1.0000
  C   C1515     1.0  0.63213  0.37994  0.99725  1.0000
  H   H2441     1.0  0.50910  0.62316  0.99702  1.0000
  C   C1516     1.0  0.50889  0.58870  0.00613  1.0000
  C   C1517     1.0  0.40825  0.49288  0.99948  1.0000
  H   H2442     1.0  0.41288  0.59677  0.99585  1.0000
  H   H2443     1.0  0.44384  0.63214  0.02856  1.0000
  H   H2444     1.0  0.41321  0.59947  0.01534  1.0000
  C   C1518     1.0  0.39241  0.60396  0.04004  1.0000
  H   H2445     1.0  0.60163  0.55275  0.03783  1.0000
  H   H2446     1.0  0.50440  0.65795  0.05084  1.0000
  C   C1519     1.0  0.44973  0.63010  0.03477  1.0000
  C   C1520     1.0  0.59685  0.54659  0.03680  1.0000
  C   C1521     1.0  0.34063  0.42464  0.00932  1.0000
  C   C1522     1.0  0.58213  0.63067  0.03436  1.0000
  C   C1523     1.0  0.34025  0.49249  0.00928  1.0000
  H   H2447     1.0  0.38291  0.48671  0.99793  1.0000
  C   C1524     1.0  0.46595  0.63553  0.01912  1.0000
  H   H2448     1.0  0.33769  0.45423  0.99910  1.0000
  H   H2449     1.0  0.41810  0.58437  0.03240  1.0000
  H   H2450     1.0  0.62610  0.34491  0.00574  1.0000
  H   H2451     1.0  0.59349  0.52516  0.03825  1.0000
  H   H2452     1.0  0.55582  0.62929  0.05365  1.0000
  C   C1525     1.0  0.39595  0.58869  0.02930  1.0000
  H   H2453     1.0  0.37024  0.50200  0.02257  1.0000
  C   C1526     1.0  0.34153  0.48301  0.00421  1.0000
  C   C1527     1.0  0.61121  0.54274  0.01915  1.0000
  H   H2454     1.0  0.60429  0.52219  0.02521  1.0000
  C   C1528     1.0  0.42402  0.64967  0.01389  1.0000
  H   H2455     1.0  0.49806  0.38745  0.01569  1.0000
  C   C1529     1.0  0.33780  0.49671  0.05054  1.0000
  C   C1530     1.0  0.65298  0.45466  0.00808  1.0000
  H   H2456     1.0  0.48103  0.59014  0.00379  1.0000
  H   H2457     1.0  0.49899  0.61360  0.00303  1.0000
  H   H2458     1.0  0.38868  0.59835  0.04846  1.0000
  C   C1531     1.0  0.39775  0.57578  0.99842  1.0000
  C   C1532     1.0  0.41810  0.57841  0.00386  1.0000
  C   C1533     1.0  0.49982  0.58772  0.00160  1.0000
  H   H2459     1.0  0.45288  0.34005  0.02364  1.0000
  H   H2460     1.0  0.46668  0.39563  0.01424  1.0000
  C   C1534     1.0  0.36928  0.47585  0.01791  1.0000
  H   H2461     1.0  0.61918  0.53598  0.03907  1.0000
  H   H2462     1.0  0.38498  0.60928  0.03578  1.0000
  Fe  Fe296     1.0  0.56417  0.58775  0.99844  1.0000
  Fe  Fe297     1.0  0.43726  0.59592  0.00676  1.0000
  S   S607      1.0  0.65699  0.50811  0.99849  1.0000
  C   C1535     1.0  0.54073  0.61124  0.04352  1.0000
  C   C1536     1.0  0.38596  0.48190  0.01963  1.0000
  S   S608      1.0  0.52343  0.58650  0.99766  1.0000
  H   H2463     1.0  0.46065  0.63795  0.01231  1.0000
  H   H2464     1.0  0.48545  0.65169  0.05556  1.0000
  C   C1537     1.0  0.48515  0.59454  0.01801  1.0000
  H   H2465     1.0  0.34070  0.47451  0.00967  1.0000
  H   H2466     1.0  0.34952  0.42186  0.00375  1.0000
  H   H2467     1.0  0.51304  0.59280  0.02050  1.0000
  H   H2468     1.0  0.33355  0.58090  0.00722  1.0000
  H   H2469     1.0  0.39929  0.60984  0.01634  1.0000
  H   H2470     1.0  0.49848  0.38330  0.00252  1.0000
  H   H2471     1.0  0.47050  0.62604  0.01975  1.0000
  H   H2472     1.0  0.48323  0.40518  0.02137  1.0000
  S   S609      1.0  0.33535  0.49121  0.02453  1.0000
  H   H2473     1.0  0.40309  0.55738  0.00618  1.0000
  H   H2474     1.0  0.33561  0.56519  0.01095  1.0000
  H   H2475     1.0  0.47745  0.38642  0.02245  1.0000
  H   H2476     1.0  0.56323  0.61215  0.04416  1.0000
  Fe  Fe298     1.0  0.62326  0.51757  0.99904  1.0000
  C   C1538     1.0  0.46584  0.63486  0.03925  1.0000
  S   S610      1.0  0.56557  0.34568  0.99685  1.0000
  C   C1539     1.0  0.48277  0.40235  0.99435  1.0000
  H   H2477     1.0  0.36812  0.47087  0.02722  1.0000
  H   H2478     1.0  0.41666  0.47576  0.99561  1.0000
  C   C1540     1.0  0.34287  0.50307  0.00209  1.0000
  N   N153      1.0  0.37444  0.48606  0.01619  1.0000
  S   S611      1.0  0.36491  0.53094  0.00071  1.0000
  S   S612      1.0  0.34360  0.54491  0.02736  1.0000
  C   C1541     1.0  0.56580  0.63332  0.99504  1.0000
  H   H2479     1.0  0.56701  0.63154  0.02147  1.0000
  H   H2480     1.0  0.54980  0.65400  0.00161  1.0000
  S   S613      1.0  0.56293  0.60129  0.00853  1.0000
  S   S614      1.0  0.43033  0.57966  0.00848  1.0000
  H   H2481     1.0  0.40781  0.58351  0.04637  1.0000
  H   H2482     1.0  0.35081  0.44271  0.99729  1.0000
  N   N154      1.0  0.45840  0.63768  0.03059  1.0000
  H   H2483     1.0  0.56172  0.64370  0.02879  1.0000
  C   C1542     1.0  0.35573  0.44355  0.04223  1.0000
  C   C1543     1.0  0.40516  0.56598  0.00395  1.0000
  C   C1544     1.0  0.50202  0.33810  0.02713  1.0000
  C   C1545     1.0  0.44810  0.41053  0.99298  1.0000
  C   C1546     1.0  0.41525  0.56731  0.00667  1.0000
  N   N155      1.0  0.48438  0.39801  0.00659  1.0000
  Fe  Fe299     1.0  0.53732  0.59115  0.00357  1.0000
  H   H2484     1.0  0.60037  0.41126  0.00683  1.0000
  H   H2485     1.0  0.47251  0.64039  0.03637  1.0000
  H   H2486     1.0  0.45277  0.65666  0.99718  1.0000
  S   S615      1.0  0.41689  0.45099  0.00249  1.0000
  H   H2487     1.0  0.33542  0.41804  0.01031  1.0000
  C   C1547     1.0  0.41076  0.58820  0.99821  1.0000
  H   H2488     1.0  0.34373  0.49502  0.05666  1.0000
  H   H2489     1.0  0.46406  0.38220  0.99519  1.0000
  H   H2490     1.0  0.49365  0.62912  0.00228  1.0000
  Fe  Fe300     1.0  0.54911  0.59276  0.02183  1.0000
  C   C1548     1.0  0.60824  0.40938  0.99966  1.0000
  H   H2491     1.0  0.57766  0.60968  0.04667  1.0000
  H   H2492     1.0  0.37504  0.46957  0.01233  1.0000
  H   H2493     1.0  0.47306  0.41363  0.01217  1.0000
  C   C1549     1.0  0.41105  0.58973  0.03821  1.0000
  H   H2494     1.0  0.57134  0.55980  0.00166  1.0000
  H   H2495     1.0  0.45503  0.34384  0.03612  1.0000
  H   H2496     1.0  0.47277  0.64090  0.01586  1.0000
  H   H2497     1.0  0.58797  0.62613  0.04068  1.0000
  S   S616      1.0  0.54526  0.65450  0.06764  1.0000
  S   S617      1.0  0.43907  0.42000  0.00223  1.0000
  H   H2498     1.0  0.36049  0.47858  0.01569  1.0000
  H   H2499     1.0  0.42545  0.64519  0.00684  1.0000
  H   H2500     1.0  0.61338  0.40033  0.00274  1.0000
  C   C1550     1.0  0.54301  0.34994  0.99384  1.0000
  H   H2501     1.0  0.62545  0.42433  0.00502  1.0000
  Fe  Fe301     1.0  0.65186  0.39561  0.00071  1.0000
  H   H2502     1.0  0.62495  0.40900  0.01032  1.0000
  S   S618      1.0  0.45620  0.59725  0.99827  1.0000
  C   C1551     1.0  0.47597  0.39049  0.01339  1.0000
  H   H2503     1.0  0.52996  0.65046  0.01155  1.0000
  H   H2504     1.0  0.47690  0.38311  0.00912  1.0000
  C   C1552     1.0  0.61971  0.41793  0.00707  1.0000
  C   C1553     1.0  0.61837  0.36972  0.99489  1.0000
  H   H2505     1.0  0.46044  0.63655  0.04796  1.0000
  S   S619      1.0  0.40608  0.42806  0.00525  1.0000
  H   H2506     1.0  0.47367  0.40772  0.99404  1.0000
  H   H2507     1.0  0.61152  0.36479  0.99874  1.0000
  H   H2508     1.0  0.66330  0.54936  0.03730  1.0000
  H   H2509     1.0  0.47428  0.33665  0.01529  1.0000
  C   C1554     1.0  0.33175  0.54010  0.02597  1.0000
  H   H2510     1.0  0.57986  0.53823  0.00594  1.0000
  N   N156      1.0  0.33463  0.43666  0.00417  1.0000
  C   C1555     1.0  0.64550  0.44994  0.99367  1.0000
  S   S620      1.0  0.60355  0.52442  0.00048  1.0000
  C   C1556     1.0  0.58070  0.55648  0.99865  1.0000
  H   H2511     1.0  0.47651  0.34048  0.02768  1.0000
  Fe  Fe302     1.0  0.54786  0.61207  0.00020  1.0000
  C   C1557     1.0  0.40061  0.58688  0.99558  1.0000
  C   C1558     1.0  0.47574  0.33307  0.02438  1.0000
  H   H2512     1.0  0.52888  0.65988  0.02121  1.0000
  C   C1559     1.0  0.50000  0.62242  0.99753  1.0000
  C   C1560     1.0  0.64285  0.47040  0.99472  1.0000
  H   H2513     1.0  0.63902  0.33716  0.01146  1.0000
  S   S621      1.0  0.63498  0.53034  0.99269  1.0000
  C   C1561     1.0  0.60850  0.43012  0.99271  1.0000
  H   H2514     1.0  0.62059  0.51609  0.97048  1.0000
  C   C1562     1.0  0.63557  0.34244  0.98343  1.0000
  H   H2515     1.0  0.56294  0.36017  0.95883  1.0000
  C   C1563     1.0  0.45145  0.41458  0.98082  1.0000
  S   S622      1.0  0.34715  0.47882  0.94946  1.0000
  H   H2516     1.0  0.60664  0.52592  0.97450  1.0000
  C   C1564     1.0  0.65287  0.33188  0.99113  1.0000
  H   H2517     1.0  0.39433  0.48640  0.94319  1.0000
  H   H2518     1.0  0.57476  0.34681  0.93252  1.0000
  C   C1565     1.0  0.43454  0.39065  0.97844  1.0000
  S   S623      1.0  0.50084  0.36966  0.98493  1.0000
  H   H2519     1.0  0.59576  0.59744  0.96826  1.0000
  S   S624      1.0  0.54466  0.63152  0.99231  1.0000
  C   C1566     1.0  0.53456  0.35046  0.98766  1.0000
  H   H2520     1.0  0.56771  0.33778  0.97572  1.0000
  H   H2521     1.0  0.63661  0.46491  0.98248  1.0000
  Fe  Fe303     1.0  0.33821  0.48694  0.96507  1.0000
  H   H2522     1.0  0.58502  0.63015  0.96149  1.0000
  H   H2523     1.0  0.56836  0.61634  0.98144  1.0000
  H   H2524     1.0  0.40617  0.40332  0.97608  1.0000
  C   C1567     1.0  0.62213  0.37268  0.98265  1.0000
  H   H2525     1.0  0.39269  0.51552  0.98220  1.0000
  C   C1568     1.0  0.56161  0.37439  0.93741  1.0000
  N   N157      1.0  0.42374  0.40017  0.97871  1.0000
  S   S625      1.0  0.35857  0.54895  0.96988  1.0000
  H   H2526     1.0  0.59985  0.32883  0.90900  1.0000
  C   C1569     1.0  0.57440  0.60638  0.96313  1.0000
  H   H2527     1.0  0.61354  0.55190  0.95155  1.0000
  H   H2528     1.0  0.37857  0.47631  0.94450  1.0000
  C   C1570     1.0  0.37961  0.47868  0.97150  1.0000
  C   C1571     1.0  0.61626  0.52544  0.97091  1.0000
  H   H2529     1.0  0.35748  0.45616  0.97332  1.0000
  Fe  Fe304     1.0  0.41106  0.45801  0.98536  1.0000
  C   C1572     1.0  0.39050  0.48708  0.95253  1.0000
  H   H2530     1.0  0.50619  0.60594  0.98443  1.0000
  H   H2531     1.0  0.46217  0.41010  0.96444  1.0000
  C   C1573     1.0  0.61233  0.54567  0.96024  1.0000
  C   C1574     1.0  0.45928  0.63974  0.97697  1.0000
  C   C1575     1.0  0.34318  0.55044  0.97316  1.0000
  C   C1576     1.0  0.47284  0.65277  0.97175  1.0000
  H   H2532     1.0  0.48631  0.33140  0.96974  1.0000
  H   H2533     1.0  0.63653  0.52368  0.95473  1.0000
  H   H2534     1.0  0.37041  0.47027  0.95866  1.0000
  H   H2535     1.0  0.38420  0.49580  0.95262  1.0000
  Fe  Fe305     1.0  0.33795  0.46432  0.95988  1.0000
  C   C1577     1.0  0.39338  0.46591  0.95905  1.0000
  H   H2536     1.0  0.61389  0.43690  0.99037  1.0000
  C   C1578     1.0  0.60001  0.55986  0.98816  1.0000
  S   S626      1.0  0.63549  0.50449  0.98843  1.0000
  H   H2537     1.0  0.58278  0.61792  0.98126  1.0000
  H   H2538     1.0  0.60281  0.34283  0.91878  1.0000
  C   C1579     1.0  0.55005  0.34169  0.97300  1.0000
  C   C1580     1.0  0.37511  0.47746  0.95374  1.0000
  N   N158      1.0  0.56418  0.36135  0.94045  1.0000
  H   H2539     1.0  0.60478  0.53010  0.95362  1.0000
  C   C1581     1.0  0.57798  0.61268  0.97881  1.0000
  H   H2540     1.0  0.61903  0.52061  0.94985  1.0000
  H   H2541     1.0  0.54659  0.36035  0.95052  1.0000
  H   H2542     1.0  0.57183  0.34731  0.95331  1.0000
  H   H2543     1.0  0.44811  0.42368  0.97686  1.0000
  H   H2544     1.0  0.57738  0.36038  0.94964  1.0000
  H   H2545     1.0  0.48904  0.40797  0.98892  1.0000
  C   C1582     1.0  0.48592  0.62220  0.98692  1.0000
  H   H2546     1.0  0.57096  0.65595  0.96546  1.0000
  C   C1583     1.0  0.41443  0.39629  0.97602  1.0000
  H   H2547     1.0  0.62304  0.41534  0.97901  1.0000
  H   H2548     1.0  0.58249  0.62550  0.94969  1.0000
  H   H2549     1.0  0.61965  0.52771  0.97744  1.0000
  H   H2550     1.0  0.61564  0.54882  0.96625  1.0000
  H   H2551     1.0  0.60514  0.40914  0.99192  1.0000
  C   C1584     1.0  0.55503  0.34566  0.98939  1.0000
  C   C1585     1.0  0.57761  0.64649  0.98099  1.0000
  H   H2552     1.0  0.55522  0.37819  0.94476  1.0000
  H   H2553     1.0  0.37304  0.48720  0.97189  1.0000
  Fe  Fe306     1.0  0.64781  0.51665  0.98356  1.0000
  C   C1586     1.0  0.33762  0.52169  0.94288  1.0000
  C   C1587     1.0  0.56938  0.64993  0.97389  1.0000
  C   C1588     1.0  0.59726  0.33306  0.93635  1.0000
  H   H2554     1.0  0.62578  0.34524  0.98536  1.0000
  C   C1589     1.0  0.59964  0.33507  0.92407  1.0000
  C   C1590     1.0  0.46884  0.64411  0.96921  1.0000
  H   H2555     1.0  0.55275  0.64831  0.97206  1.0000
  H   H2556     1.0  0.36843  0.48596  0.95360  1.0000
  H   H2557     1.0  0.37603  0.44866  0.98091  1.0000
  C   C1591     1.0  0.55916  0.64547  0.97755  1.0000
  Fe  Fe307     1.0  0.48471  0.36906  0.97963  1.0000
  H   H2558     1.0  0.63151  0.42184  0.98450  1.0000
  C   C1592     1.0  0.50677  0.61508  0.97960  1.0000
  C   C1593     1.0  0.38075  0.43237  0.97495  1.0000
  C   C1594     1.0  0.37730  0.42545  0.96956  1.0000
  C   C1595     1.0  0.36682  0.42953  0.96553  1.0000
  C   C1596     1.0  0.35976  0.44065  0.96668  1.0000
  C   C1597     1.0  0.36306  0.44764  0.97221  1.0000
  C   C1598     1.0  0.37354  0.44342  0.97646  1.0000
  H   H2559     1.0  0.38278  0.41688  0.96844  1.0000
  H   H2560     1.0  0.36425  0.42409  0.96136  1.0000
  H   H2561     1.0  0.57037  0.62974  0.96137  1.0000
  H   H2562     1.0  0.57701  0.60606  0.95364  1.0000
  H   H2563     1.0  0.63485  0.53570  0.96142  1.0000
  C   C1599     1.0  0.61442  0.52980  0.95077  1.0000
  C   C1600     1.0  0.59421  0.60678  0.96324  1.0000
  H   H2564     1.0  0.64272  0.38783  0.98112  1.0000
  Fe  Fe308     1.0  0.60635  0.35382  0.97672  1.0000
  S   S627      1.0  0.45577  0.62736  0.97507  1.0000
  H   H2565     1.0  0.34331  0.51339  0.94683  1.0000
  N   N159      1.0  0.49787  0.62390  0.98572  1.0000
  N   N160      1.0  0.58161  0.61273  0.96611  1.0000
  S   S628      1.0  0.34668  0.44523  0.96152  1.0000
  S   S629      1.0  0.65605  0.40698  0.98269  1.0000
  C   C1601     1.0  0.63144  0.53285  0.95525  1.0000
  H   H2566     1.0  0.60567  0.56587  0.98314  1.0000
  H   H2567     1.0  0.61605  0.53564  0.94187  1.0000
  H   H2568     1.0  0.47341  0.64045  0.96152  1.0000
  H   H2569     1.0  0.58128  0.35929  0.92868  1.0000
  C   C1602     1.0  0.57273  0.35664  0.93053  1.0000
  H   H2570     1.0  0.39785  0.48712  0.95636  1.0000
  S   S630      1.0  0.47428  0.38583  0.97018  1.0000
  C   C1603     1.0  0.57590  0.63806  0.99152  1.0000
  H   H2571     1.0  0.43811  0.38849  0.96957  1.0000
  H   H2572     1.0  0.55484  0.34747  0.94486  1.0000
  Fe  Fe309     1.0  0.59890  0.34171  0.96159  1.0000
  N   N161      1.0  0.61861  0.53345  0.95928  1.0000
  H   H2573     1.0  0.63382  0.38164  0.96829  1.0000
  C   C1604     1.0  0.57982  0.62506  0.95934  1.0000
  H   H2574     1.0  0.37505  0.47149  0.97680  1.0000
  C   C1605     1.0  0.33660  0.55764  0.96489  1.0000
  H   H2575     1.0  0.59986  0.61129  0.96552  1.0000
  H   H2576     1.0  0.55280  0.33823  0.96509  1.0000
  C   C1606     1.0  0.55850  0.34135  0.97906  1.0000
  S   S631      1.0  0.59201  0.32834  0.97693  1.0000
  H   H2577     1.0  0.55777  0.37793  0.92946  1.0000
  S   S632      1.0  0.59873  0.34401  0.94255  1.0000
  S   S633      1.0  0.34844  0.49725  0.96958  1.0000
  H   H2578     1.0  0.33371  0.58099  0.98664  1.0000
  H   H2579     1.0  0.39876  0.50058  0.96977  1.0000
  C   C1607     1.0  0.46420  0.39525  0.97901  1.0000
  H   H2580     1.0  0.39742  0.46463  0.94991  1.0000
  H   H2581     1.0  0.40069  0.46539  0.96317  1.0000
  H   H2582     1.0  0.56979  0.37771  0.93555  1.0000
  H   H2583     1.0  0.34106  0.56220  0.95654  1.0000
  H   H2584     1.0  0.38657  0.47859  0.97589  1.0000
  N   N162      1.0  0.38466  0.47727  0.95921  1.0000
  C   C1608     1.0  0.34586  0.50443  0.98982  1.0000
  C   C1609     1.0  0.56926  0.35712  0.95104  1.0000
  H   H2585     1.0  0.38929  0.45830  0.96395  1.0000
  C   C1610     1.0  0.45947  0.40692  0.97384  1.0000
  H   H2586     1.0  0.34133  0.52371  0.93323  1.0000
  H   H2587     1.0  0.41724  0.39409  0.96716  1.0000
  Fe  Fe310     1.0  0.58422  0.34355  0.98599  1.0000
  H   H2588     1.0  0.56484  0.61071  0.96511  1.0000
  S   S634      1.0  0.61584  0.33928  0.96693  1.0000
  C   C1611     1.0  0.34857  0.53388  0.94627  1.0000
  H   H2589     1.0  0.57534  0.59712  0.96832  1.0000
  H   H2590     1.0  0.34171  0.43407  0.98647  1.0000
  N   N163      1.0  0.33673  0.53153  0.94835  1.0000
  S   S635      1.0  0.39422  0.42673  0.97944  1.0000
  H   H2591     1.0  0.56933  0.35977  0.92232  1.0000
  Fe  Fe311     1.0  0.50906  0.35281  0.97858  1.0000
  H   H2592     1.0  0.51592  0.61583  0.97884  1.0000
  H   H2593     1.0  0.59731  0.60668  0.95371  1.0000
  C   C1612     1.0  0.46731  0.65698  0.98205  1.0000
  S   S636      1.0  0.58983  0.35718  0.97009  1.0000
  H   H2594     1.0  0.57983  0.60361  0.98423  1.0000
  H   H2595     1.0  0.42960  0.40901  0.96081  1.0000
  S   S637      1.0  0.49356  0.35311  0.97163  1.0000
  H   H2596     1.0  0.61415  0.54447  0.98764  1.0000
  Fe  Fe312     1.0  0.36653  0.54640  0.98553  1.0000
  H   H2597     1.0  0.63366  0.53860  0.94641  1.0000
  S   S638      1.0  0.41125  0.47612  0.97379  1.0000
  S   S639      1.0  0.58981  0.65297  0.97687  1.0000
  C   C1613     1.0  0.55315  0.35728  0.94284  1.0000
  H   H2598     1.0  0.54891  0.36056  0.93515  1.0000
  H   H2599     1.0  0.48422  0.39492  0.98996  1.0000
  H   H2600     1.0  0.48044  0.65584  0.96595  1.0000
  C   C1614     1.0  0.58793  0.56432  0.99216  1.0000
  C   C1615     1.0  0.40139  0.49840  0.97808  1.0000
  C   C1616     1.0  0.34617  0.49519  0.98480  1.0000
  C   C1617     1.0  0.63591  0.38285  0.98501  1.0000
  S   S640      1.0  0.52789  0.34805  0.96865  1.0000
  C   C1618     1.0  0.64119  0.46202  0.98962  1.0000
  H   H2601     1.0  0.43321  0.41408  0.97169  1.0000
  H   H2602     1.0  0.60267  0.54635  0.96383  1.0000
  S   S641      1.0  0.41906  0.44101  0.97903  1.0000
  C   C1619     1.0  0.63087  0.37930  0.97776  1.0000
  C   C1620     1.0  0.60486  0.54769  0.99073  1.0000
  H   H2603     1.0  0.44161  0.39324  0.98067  1.0000
  H   H2604     1.0  0.65888  0.53358  0.98136  1.0000
  H   H2605     1.0  0.49237  0.64278  0.98330  1.0000
  C   C1621     1.0  0.45320  0.64469  0.98673  1.0000
  C   C1622     1.0  0.53812  0.34657  0.97708  1.0000
  H   H2606     1.0  0.35482  0.52594  0.95000  1.0000
  H   H2607     1.0  0.63824  0.33746  0.97627  1.0000
  H   H2608     1.0  0.33823  0.52104  0.96557  1.0000
  S   S642      1.0  0.61615  0.36848  0.97305  1.0000
  S   S643      1.0  0.65756  0.52100  0.96489  1.0000
  S   S644      1.0  0.55033  0.59949  0.98875  1.0000
  H   H2609     1.0  0.35238  0.53656  0.93670  1.0000
  H   H2610     1.0  0.33180  0.54464  0.93338  1.0000
  H   H2611     1.0  0.48411  0.62284  0.97821  1.0000
  C   C1623     1.0  0.33736  0.54464  0.98396  1.0000
  H   H2612     1.0  0.34827  0.54107  0.95051  1.0000
  H   H2613     1.0  0.50781  0.63737  0.97767  1.0000
  H   H2614     1.0  0.34513  0.47705  0.98812  1.0000
  H   H2615     1.0  0.41837  0.41815  0.96973  1.0000
  S   S645      1.0  0.58226  0.57968  0.98853  1.0000
  C   C1624     1.0  0.62579  0.41536  0.98703  1.0000
  C   C1625     1.0  0.45730  0.65317  0.98937  1.0000
  C   C1626     1.0  0.55740  0.63712  0.98807  1.0000
  C   C1627     1.0  0.49884  0.63588  0.97885  1.0000
  H   H2616     1.0  0.50555  0.61603  0.97059  1.0000
  H   H2617     1.0  0.51816  0.33086  0.96567  1.0000
  C   C1628     1.0  0.40790  0.48704  0.98200  1.0000
  S   S646      1.0  0.38566  0.54535  0.98468  1.0000
  H   H2618     1.0  0.49712  0.63737  0.96994  1.0000
  C   C1629     1.0  0.42635  0.41080  0.96983  1.0000
  S   S647      1.0  0.64340  0.43958  0.98709  1.0000
  H   H2619     1.0  0.53454  0.65780  0.98998  1.0000
  Fe  Fe313     1.0  0.40132  0.43683  0.98782  1.0000
  H   H2620     1.0  0.34757  0.51274  0.98427  1.0000
  H   H2621     1.0  0.43289  0.38242  0.98490  1.0000
  H   H2622     1.0  0.33131  0.52098  0.91027  1.0000
  H   H2623     1.0  0.47893  0.62893  0.99116  1.0000
  H   H2624     1.0  0.65678  0.33981  0.98787  1.0000
  H   H2625     1.0  0.63905  0.35063  0.97988  1.0000
  Fe  Fe314     1.0  0.48723  0.34273  0.98969  1.0000
  C   C1630     1.0  0.39800  0.50688  0.98506  1.0000
  Fe  Fe315     1.0  0.65418  0.42120  0.99218  1.0000
  H   H2626     1.0  0.41214  0.38836  0.98261  1.0000
  H   H2627     1.0  0.60526  0.43066  0.98480  1.0000
  H   H2628     1.0  0.63132  0.40646  0.98975  1.0000
  H   H2629     1.0  0.63952  0.47966  0.99151  1.0000
  H   H2630     1.0  0.52534  0.35412  0.99097  1.0000
  H   H2631     1.0  0.34237  0.53896  0.99033  1.0000
  H   H2632     1.0  0.33608  0.56527  0.99049  1.0000
  S   S648      1.0  0.52615  0.66091  0.94410  1.0000
  C   C1631     1.0  0.33195  0.52832  0.96116  1.0000
  C   C1632     1.0  0.46065  0.39120  0.99114  1.0000
  C   C1633     1.0  0.41963  0.40296  0.99054  1.0000
  H   H2633     1.0  0.48477  0.61337  0.99236  1.0000
  H   H2634     1.0  0.39498  0.59450  0.99123  1.0000
  C   C1634     1.0  0.33309  0.43685  0.99243  1.0000
  H   H2635     1.0  0.41129  0.40985  0.99115  1.0000
  H   H2636     1.0  0.44533  0.64195  0.99226  1.0000
  C   C1635     1.0  0.34431  0.48439  0.99198  1.0000
  Fe  Fe316     1.0  0.44827  0.61654  0.99255  1.0000
  H   H2637     1.0  0.61163  0.76256  0.01213  1.0000
  H   H2638     1.0  0.56826  0.79414  0.03363  1.0000
  S   S649      1.0  0.53382  0.67930  0.05124  1.0000
  S   S650      1.0  0.52536  0.67766  0.08570  1.0000
  H   H2639     1.0  0.44081  0.67812  0.07608  1.0000
  H   H2640     1.0  0.53182  0.68049  0.01263  1.0000
  H   H2641     1.0  0.48905  0.84699  0.01120  1.0000
  H   H2642     1.0  0.56037  0.78633  0.00967  1.0000
  H   H2643     1.0  0.42624  0.66627  0.00219  1.0000
  Fe  Fe317     1.0  0.45291  0.67923  0.03819  1.0000
  S   S651      1.0  0.43349  0.68267  0.04579  1.0000
  S   S652      1.0  0.51231  0.67802  0.03402  1.0000
  Fe  Fe318     1.0  0.45100  0.70224  0.01973  1.0000
  S   S653      1.0  0.43148  0.70733  0.02590  1.0000
  S   S654      1.0  0.54794  0.95893  0.21758  1.0000
  Fe  Fe319     1.0  0.43544  0.70117  0.04389  1.0000
  S   S655      1.0  0.42839  0.71176  0.05797  1.0000
  Fe  Fe320     1.0  0.43202  0.68835  0.02687  1.0000
  S   S656      1.0  0.42218  0.68276  0.01688  1.0000
  S   S657      1.0  0.45499  0.69728  0.03763  1.0000
  S   S658      1.0  0.45144  0.68368  0.01942  1.0000
  Fe  Fe321     1.0  0.56020  0.89140  0.20652  1.0000
  S   S659      1.0  0.56874  0.90656  0.20297  1.0000
  S   S660      1.0  0.56392  0.88547  0.18945  1.0000
  H   H2644     1.0  0.45203  0.69900  0.06257  1.0000
  S   S661      1.0  0.55622  0.90984  0.22981  1.0000
  C   C1636     1.0  0.58547  0.94716  0.23199  1.0000
  Fe  Fe322     1.0  0.55122  0.91547  0.21222  1.0000
  S   S662      1.0  0.54254  0.93358  0.20345  1.0000
  Fe  Fe323     1.0  0.57284  0.89903  0.22075  1.0000
  S   S663      1.0  0.59052  0.89717  0.22439  1.0000
  S   S664      1.0  0.54248  0.90053  0.21539  1.0000
  S   S665      1.0  0.56598  0.88289  0.22368  1.0000
  Fe  Fe324     1.0  0.47652  0.76513  0.06690  1.0000
  S   S666      1.0  0.49327  0.76094  0.05356  1.0000
  S   S667      1.0  0.47693  0.76938  0.08372  1.0000
  Fe  Fe325     1.0  0.46141  0.76049  0.05275  1.0000
  S   S668      1.0  0.47692  0.75656  0.03810  1.0000
  S   S669      1.0  0.44338  0.75986  0.05152  1.0000
  Fe  Fe326     1.0  0.48611  0.74607  0.05258  1.0000
  S   S670      1.0  0.49518  0.72709  0.05296  1.0000
  Fe  Fe327     1.0  0.48214  0.77193  0.04072  1.0000
  S   S671      1.0  0.48820  0.78610  0.02579  1.0000
  S   S672      1.0  0.47028  0.74917  0.06720  1.0000
  S   S673      1.0  0.46574  0.77695  0.05409  1.0000
  Fe  Fe328     1.0  0.54642  0.73433  0.06622  1.0000
  S   S674      1.0  0.56214  0.72494  0.05483  1.0000
  S   S675      1.0  0.53916  0.72479  0.08430  1.0000
  Fe  Fe329     1.0  0.54288  0.75643  0.04699  1.0000
  S   S676      1.0  0.55804  0.74888  0.03374  1.0000
  S   S677      1.0  0.53136  0.77398  0.04092  1.0000
  Fe  Fe330     1.0  0.55148  0.73224  0.04106  1.0000
  S   S678      1.0  0.54943  0.71988  0.03149  1.0000
  Fe  Fe331     1.0  0.56738  0.74231  0.04875  1.0000
  S   S679      1.0  0.53527  0.74042  0.05294  1.0000
  S   S680      1.0  0.55261  0.75122  0.06159  1.0000
  Fe  Fe332     1.0  0.50378  0.90828  0.13250  1.0000
  S   S681      1.0  0.50962  0.88912  0.14019  1.0000
  S   S682      1.0  0.48428  0.91531  0.13418  1.0000
  Fe  Fe333     1.0  0.52869  0.91159  0.12316  1.0000
  S   S683      1.0  0.53670  0.89258  0.13027  1.0000
  S   S684      1.0  0.53982  0.92477  0.11279  1.0000
  Fe  Fe334     1.0  0.52314  0.88861  0.12321  1.0000
  S   S685      1.0  0.52725  0.87290  0.11463  1.0000
  Fe  Fe335     1.0  0.52248  0.89475  0.14656  1.0000
  S   S686      1.0  0.52192  0.88913  0.16608  1.0000
  S   S687      1.0  0.51622  0.90743  0.11497  1.0000
  S   S688      1.0  0.51561  0.91401  0.14002  1.0000
  Fe  Fe336     1.0  0.50126  0.84240  0.04910  1.0000
  S   S689      1.0  0.49192  0.84606  0.06701  1.0000
  S   S690      1.0  0.49271  0.84440  0.03411  1.0000
  Fe  Fe337     1.0  0.52388  0.82899  0.05707  1.0000
  S   S691      1.0  0.51662  0.83146  0.07568  1.0000
  S   S692      1.0  0.54180  0.81773  0.05112  1.0000
  Fe  Fe338     1.0  0.50033  0.82722  0.07389  1.0000
  S   S693      1.0  0.49070  0.81464  0.08820  1.0000
  Fe  Fe339     1.0  0.50894  0.85016  0.06737  1.0000
  S   S694      1.0  0.50834  0.86709  0.07277  1.0000
  S   S695      1.0  0.50821  0.82327  0.05615  1.0000
  S   S696      1.0  0.51760  0.84793  0.04868  1.0000
  Fe  Fe340     1.0  0.48152  0.97065  0.18232  1.0000
  S   S697      1.0  0.46269  0.97488  0.18110  1.0000
  S   S698      1.0  0.49191  0.98455  0.17579  1.0000
  Fe  Fe341     1.0  0.48184  0.94537  0.19356  1.0000
  S   S699      1.0  0.46294  0.94705  0.19340  1.0000
  S   S700      1.0  0.49397  0.92840  0.19950  1.0000
  Fe  Fe342     1.0  0.46754  0.95787  0.17515  1.0000
  S   S701      1.0  0.46047  0.95790  0.15992  1.0000
  Fe  Fe343     1.0  0.45988  0.96388  0.19943  1.0000
  H   H2645     1.0  0.57574  0.66375  0.01224  1.0000
  S   S702      1.0  0.48675  0.95458  0.17475  1.0000
  S   S703      1.0  0.47840  0.96119  0.20122  1.0000
  Fe  Fe344     1.0  0.58763  0.95709  0.19187  1.0000
  S   S704      1.0  0.60418  0.94527  0.19696  1.0000
  H   H2646     1.0  0.41841  0.66599  0.03912  1.0000
  H   H2647     1.0  0.54993  0.68740  0.03241  1.0000
  S   S705      1.0  0.58605  0.74352  0.04645  1.0000
  C   C1637     1.0  0.50937  0.72960  0.07417  1.0000
  C   C1638     1.0  0.53081  0.72560  0.99829  1.0000
  H   H2648     1.0  0.50293  0.92012  0.22261  1.0000
  H   H2649     1.0  0.50538  0.76981  0.01095  1.0000
  H   H2650     1.0  0.49223  0.80502  0.04880  1.0000
  H   H2651     1.0  0.54532  0.90226  0.10568  1.0000
  H   H2652     1.0  0.61041  0.98467  0.21100  1.0000
  S   S706      1.0  0.45858  0.71584  0.00518  1.0000
  H   H2653     1.0  0.54152  0.96459  0.17599  1.0000
  C   C1639     1.0  0.53299  0.96949  0.23494  1.0000
  H   H2654     1.0  0.44782  0.76704  0.00459  1.0000
  C   C1640     1.0  0.51842  0.83070  0.00065  1.0000
  C   C1641     1.0  0.42244  0.66756  0.02035  1.0000
  H   H2655     1.0  0.44346  0.69722  0.07727  1.0000
  H   H2656     1.0  0.55712  0.91656  0.07510  1.0000
  H   H2657     1.0  0.51317  0.72452  0.09592  1.0000
  C   C1642     1.0  0.53273  0.93929  0.11462  1.0000
  C   C1643     1.0  0.53912  0.94820  0.11106  1.0000
  C   C1644     1.0  0.53348  0.95974  0.11269  1.0000
  C   C1645     1.0  0.52141  0.96237  0.11784  1.0000
  C   C1646     1.0  0.51505  0.95348  0.12128  1.0000
  C   C1647     1.0  0.52066  0.94201  0.11964  1.0000
  H   H2658     1.0  0.54846  0.94616  0.10714  1.0000
  H   H2659     1.0  0.53844  0.96656  0.10999  1.0000
  H   H2660     1.0  0.50570  0.95547  0.12517  1.0000
  H   H2661     1.0  0.51556  0.93535  0.12212  1.0000
  C   C1648     1.0  0.47804  0.92763  0.14073  1.0000
  C   C1649     1.0  0.48504  0.93336  0.14370  1.0000
  C   C1650     1.0  0.47974  0.94257  0.14978  1.0000
  C   C1651     1.0  0.46742  0.94628  0.15258  1.0000
  C   C1652     1.0  0.46048  0.94085  0.14921  1.0000
  C   C1653     1.0  0.46576  0.93147  0.14343  1.0000
  H   H2662     1.0  0.49451  0.93078  0.14126  1.0000
  H   H2663     1.0  0.48516  0.94695  0.15207  1.0000
  H   H2664     1.0  0.45096  0.94380  0.15123  1.0000
  H   H2665     1.0  0.46029  0.92717  0.14108  1.0000
  C   C1654     1.0  0.52233  0.87153  0.10266  1.0000
  C   C1655     1.0  0.52307  0.86019  0.10119  1.0000
  C   C1656     1.0  0.51892  0.85865  0.09204  1.0000
  C   C1657     1.0  0.51405  0.86847  0.08421  1.0000
  C   C1658     1.0  0.51347  0.87983  0.08559  1.0000
  C   C1659     1.0  0.51764  0.88136  0.09472  1.0000
  H   H2666     1.0  0.52677  0.85251  0.10722  1.0000
  H   H2667     1.0  0.51946  0.84987  0.09108  1.0000
  H   H2668     1.0  0.50978  0.88747  0.07951  1.0000
  H   H2669     1.0  0.51724  0.89013  0.09558  1.0000
  C   C1660     1.0  0.53528  0.78613  0.04264  1.0000
  C   C1661     1.0  0.52883  0.79746  0.03876  1.0000
  C   C1662     1.0  0.53135  0.80728  0.04071  1.0000
  C   C1663     1.0  0.54014  0.80578  0.04673  1.0000
  C   C1664     1.0  0.54698  0.79451  0.05011  1.0000
  C   C1665     1.0  0.54455  0.78467  0.04805  1.0000
  H   H2670     1.0  0.52172  0.79860  0.03450  1.0000
  H   H2671     1.0  0.52635  0.81603  0.03772  1.0000
  H   H2672     1.0  0.55381  0.79334  0.05477  1.0000
  H   H2673     1.0  0.54963  0.77595  0.05096  1.0000
  C   C1666     1.0  0.53413  0.72156  0.03509  1.0000
  C   C1667     1.0  0.52929  0.71194  0.04161  1.0000
  C   C1668     1.0  0.51727  0.71366  0.04705  1.0000
  C   C1669     1.0  0.51008  0.72504  0.04583  1.0000
  C   C1670     1.0  0.51481  0.73465  0.03890  1.0000
  C   C1671     1.0  0.52685  0.73289  0.03350  1.0000
  H   H2674     1.0  0.53499  0.70328  0.04301  1.0000
  H   H2675     1.0  0.51365  0.70621  0.05248  1.0000
  H   H2676     1.0  0.50926  0.74344  0.03792  1.0000
  H   H2677     1.0  0.53067  0.74034  0.02856  1.0000
  C   C1672     1.0  0.48054  0.78246  0.08400  1.0000
  C   C1673     1.0  0.47723  0.78600  0.09474  1.0000
  C   C1674     1.0  0.48016  0.79604  0.09569  1.0000
  C   C1675     1.0  0.48661  0.80264  0.08597  1.0000
  C   C1676     1.0  0.49013  0.79907  0.07516  1.0000
  C   C1677     1.0  0.48700  0.78902  0.07414  1.0000
  H   H2678     1.0  0.47231  0.78096  0.10241  1.0000
  H   H2679     1.0  0.47749  0.79864  0.10409  1.0000
  H   H2680     1.0  0.49538  0.80394  0.06771  1.0000
  H   H2681     1.0  0.48983  0.78616  0.06588  1.0000
  H   H2682     1.0  0.49947  0.72029  0.10358  1.0000
  H   H2683     1.0  0.51077  0.96022  0.21924  1.0000
  H   H2684     1.0  0.52590  0.97799  0.15143  1.0000
  H   H2685     1.0  0.55885  0.69657  0.07277  1.0000
  H   H2686     1.0  0.51134  0.76268  0.02376  1.0000
  C   C1678     1.0  0.49114  0.72346  0.08423  1.0000
  H   H2687     1.0  0.48222  0.72457  0.02250  1.0000
  C   C1679     1.0  0.45261  0.69513  0.07189  1.0000
  H   H2688     1.0  0.55235  0.69959  0.05419  1.0000
  H   H2689     1.0  0.55995  0.67277  0.05831  1.0000
  C   C1680     1.0  0.59453  0.91067  0.21804  1.0000
  C   C1681     1.0  0.58574  0.92080  0.21589  1.0000
  C   C1682     1.0  0.58880  0.93155  0.21007  1.0000
  C   C1683     1.0  0.60063  0.93214  0.20592  1.0000
  C   C1684     1.0  0.60947  0.92213  0.20854  1.0000
  C   C1685     1.0  0.60640  0.91137  0.21472  1.0000
  H   H2690     1.0  0.57656  0.92036  0.21853  1.0000
  H   H2691     1.0  0.58195  0.93934  0.20868  1.0000
  H   H2692     1.0  0.61866  0.92258  0.20544  1.0000
  H   H2693     1.0  0.61321  0.90351  0.21643  1.0000
  C   C1686     1.0  0.52981  0.93312  0.19957  1.0000
  C   C1687     1.0  0.52876  0.92275  0.19737  1.0000
  C   C1688     1.0  0.51780  0.92149  0.19685  1.0000
  C   C1689     1.0  0.50794  0.93079  0.19809  1.0000
  C   C1690     1.0  0.50923  0.94162  0.19905  1.0000
  C   C1691     1.0  0.52018  0.94278  0.19983  1.0000
  H   H2694     1.0  0.53633  0.91559  0.19624  1.0000
  H   H2695     1.0  0.51694  0.91320  0.19576  1.0000
  H   H2696     1.0  0.50171  0.94890  0.19981  1.0000
  H   H2697     1.0  0.52105  0.95090  0.20127  1.0000
  C   C1692     1.0  0.55207  0.88753  0.18278  1.0000
  C   C1693     1.0  0.54045  0.88879  0.18934  1.0000
  C   C1694     1.0  0.53126  0.88953  0.18403  1.0000
  C   C1695     1.0  0.53356  0.88931  0.17206  1.0000
  C   C1696     1.0  0.54511  0.88859  0.16535  1.0000
  C   C1697     1.0  0.55436  0.88755  0.17075  1.0000
  H   H2698     1.0  0.53861  0.88865  0.19864  1.0000
  H   H2699     1.0  0.52237  0.89000  0.18930  1.0000
  H   H2700     1.0  0.54698  0.88830  0.15615  1.0000
  H   H2701     1.0  0.56335  0.88650  0.16564  1.0000
  C   C1698     1.0  0.49665  0.85438  0.02084  1.0000
  S   S707      1.0  0.51380  0.97653  0.12031  1.0000
  H   H2702     1.0  0.46270  0.82853  0.03590  1.0000
  H   H2703     1.0  0.52987  0.81387  0.01553  1.0000
  H   H2704     1.0  0.52805  0.90879  0.08919  1.0000
  H   H2705     1.0  0.48421  0.72258  0.09249  1.0000
  C   C1699     1.0  0.43307  0.72502  0.05545  1.0000
  C   C1700     1.0  0.42462  0.73504  0.05814  1.0000
  C   C1701     1.0  0.42795  0.74561  0.05681  1.0000
  C   C1702     1.0  0.43984  0.74619  0.05325  1.0000
  C   C1703     1.0  0.44843  0.73614  0.05067  1.0000
  C   C1704     1.0  0.44503  0.72561  0.05154  1.0000
  H   H2706     1.0  0.41540  0.73466  0.06124  1.0000
  H   H2707     1.0  0.42126  0.75333  0.05879  1.0000
  H   H2708     1.0  0.45765  0.73652  0.04792  1.0000
  H   H2709     1.0  0.45166  0.71794  0.04946  1.0000
  N   N164      1.0  0.50036  0.72867  0.08531  1.0000
  H   H2710     1.0  0.52757  0.71771  0.00262  1.0000
  H   H2711     1.0  0.46399  0.68159  0.08883  1.0000
  H   H2712     1.0  0.58391  0.78986  0.02837  1.0000
  H   H2713     1.0  0.49721  0.97969  0.24055  1.0000
  C   C1705     1.0  0.56784  0.69234  0.06838  1.0000
  C   C1706     1.0  0.45825  0.67747  0.08621  1.0000
  C   C1707     1.0  0.52050  0.97939  0.16024  1.0000
  C   C1708     1.0  0.48822  0.97698  0.14769  1.0000
  H   H2714     1.0  0.54183  0.98549  0.16931  1.0000
  H   H2715     1.0  0.47413  0.98554  0.13232  1.0000
  H   H2716     1.0  0.48925  0.96075  0.22558  1.0000
  C   C1709     1.0  0.49978  0.67243  0.03667  1.0000
  H   H2717     1.0  0.57023  0.67678  0.99405  1.0000
  H   H2718     1.0  0.49917  0.72984  0.02632  1.0000
  S   S708      1.0  0.56607  0.66476  0.03665  1.0000
  H   H2719     1.0  0.47422  0.67936  0.02742  1.0000
  N   N165      1.0  0.61828  0.96865  0.20456  1.0000
  Fe  Fe345     1.0  0.57533  0.98272  0.18810  1.0000
  C   C1710     1.0  0.52979  0.69060  0.08473  1.0000
  C   C1711     1.0  0.53058  0.69304  0.09510  1.0000
  C   C1712     1.0  0.53378  0.70339  0.09482  1.0000
  C   C1713     1.0  0.53617  0.71143  0.08417  1.0000
  C   C1714     1.0  0.53554  0.70897  0.07372  1.0000
  C   C1715     1.0  0.53225  0.69860  0.07402  1.0000
  H   H2720     1.0  0.52866  0.68690  0.10340  1.0000
  H   H2721     1.0  0.53426  0.70523  0.10291  1.0000
  H   H2722     1.0  0.53729  0.71519  0.06545  1.0000
  H   H2723     1.0  0.53143  0.69688  0.06603  1.0000
  H   H2724     1.0  0.51121  0.87671  0.00863  1.0000
  H   H2725     1.0  0.55468  0.79263  0.02245  1.0000
  H   H2726     1.0  0.51076  0.96272  0.23322  1.0000
  H   H2727     1.0  0.53020  0.95910  0.17366  1.0000
  H   H2728     1.0  0.45508  0.74281  0.99788  1.0000
  C   C1716     1.0  0.56905  0.67182  0.01271  1.0000
  H   H2729     1.0  0.49075  0.97580  0.15614  1.0000
  H   H2730     1.0  0.46941  0.68334  0.05666  1.0000
  H   H2731     1.0  0.56636  0.70252  0.04591  1.0000
  C   C1717     1.0  0.52052  0.97986  0.18008  1.0000
  C   C1718     1.0  0.52593  0.83740  0.01355  1.0000
  H   H2732     1.0  0.56223  0.80069  0.00896  1.0000
  H   H2733     1.0  0.53249  0.76167  0.02292  1.0000
  H   H2734     1.0  0.49074  0.74650  0.08065  1.0000
  S   S709      1.0  0.44379  0.97044  0.21253  1.0000
  N   N166      1.0  0.52802  0.97796  0.16851  1.0000
  H   H2735     1.0  0.56481  0.96267  0.22944  1.0000
  N   N167      1.0  0.52353  0.78469  0.08338  1.0000
  C   C1719     1.0  0.51294  0.77965  0.08837  1.0000
  C   C1720     1.0  0.53331  0.77598  0.07795  1.0000
  C   C1721     1.0  0.52693  0.78763  0.09286  1.0000
  C   C1722     1.0  0.52092  0.79553  0.07435  1.0000
  H   H2736     1.0  0.51469  0.77125  0.09494  1.0000
  H   H2737     1.0  0.50980  0.77780  0.08139  1.0000
  H   H2738     1.0  0.50552  0.78582  0.09294  1.0000
  H   H2739     1.0  0.54147  0.77947  0.07413  1.0000
  H   H2740     1.0  0.53552  0.76765  0.08449  1.0000
  H   H2741     1.0  0.53101  0.77364  0.07072  1.0000
  H   H2742     1.0  0.52890  0.77970  0.09990  1.0000
  H   H2743     1.0  0.51972  0.79429  0.09703  1.0000
  H   H2744     1.0  0.53491  0.79146  0.08940  1.0000
  H   H2745     1.0  0.52860  0.79978  0.07070  1.0000
  H   H2746     1.0  0.51342  0.80218  0.07811  1.0000
  H   H2747     1.0  0.51860  0.79368  0.06688  1.0000
  H   H2748     1.0  0.50756  0.93818  0.22475  1.0000
  H   H2749     1.0  0.51006  0.71108  0.00385  1.0000
  C   C1723     1.0  0.49570  0.98381  0.23150  1.0000
  H   H2750     1.0  0.51950  0.83364  0.02124  1.0000
  H   H2751     1.0  0.48166  0.97153  0.14927  1.0000
  H   H2752     1.0  0.51629  0.75617  0.01103  1.0000
  H   H2753     1.0  0.50476  0.69871  0.01354  1.0000
  H   H2754     1.0  0.45186  0.73134  0.02403  1.0000
  H   H2755     1.0  0.59025  0.69608  0.00875  1.0000
  C   C1724     1.0  0.57943  0.68116  0.05364  1.0000
  H   H2756     1.0  0.52655  0.78726  0.01084  1.0000
  H   H2757     1.0  0.46326  0.96545  0.22446  1.0000
  H   H2758     1.0  0.61433  0.96709  0.18887  1.0000
  C   C1725     1.0  0.51353  0.93246  0.23059  1.0000
  N   N168      1.0  0.56491  0.92459  0.16890  1.0000
  C   C1726     1.0  0.56388  0.93160  0.15698  1.0000
  C   C1727     1.0  0.56514  0.93246  0.17622  1.0000
  C   C1728     1.0  0.57591  0.91530  0.16813  1.0000
  C   C1729     1.0  0.55470  0.91900  0.17427  1.0000
  H   H2759     1.0  0.56374  0.92599  0.15114  1.0000
  H   H2760     1.0  0.57139  0.93606  0.15276  1.0000
  H   H2761     1.0  0.55565  0.93867  0.15729  1.0000
  H   H2762     1.0  0.56581  0.92760  0.18532  1.0000
  H   H2763     1.0  0.57276  0.93678  0.17244  1.0000
  H   H2764     1.0  0.55698  0.93959  0.17701  1.0000
  H   H2765     1.0  0.58383  0.91915  0.16420  1.0000
  H   H2766     1.0  0.57598  0.90918  0.16271  1.0000
  H   H2767     1.0  0.57689  0.90979  0.17698  1.0000
  H   H2768     1.0  0.55538  0.91343  0.18317  1.0000
  H   H2769     1.0  0.55415  0.91311  0.16890  1.0000
  H   H2770     1.0  0.54624  0.92571  0.17527  1.0000
  H   H2771     1.0  0.46444  0.75779  0.01529  1.0000
  C   C1730     1.0  0.53555  0.81872  0.00795  1.0000
  H   H2772     1.0  0.57205  0.68593  0.07539  1.0000
  N   N169      1.0  0.48607  0.88451  0.11964  1.0000
  C   C1731     1.0  0.49401  0.89273  0.11402  1.0000
  C   C1732     1.0  0.49105  0.87350  0.11517  1.0000
  C   C1733     1.0  0.47435  0.89007  0.11684  1.0000
  C   C1734     1.0  0.48489  0.88178  0.13254  1.0000
  H   H2773     1.0  0.49052  0.90116  0.11713  1.0000
  H   H2774     1.0  0.49515  0.89497  0.10428  1.0000
  H   H2775     1.0  0.50289  0.88884  0.11607  1.0000
  H   H2776     1.0  0.49234  0.87524  0.10542  1.0000
  H   H2777     1.0  0.49984  0.86902  0.11730  1.0000
  H   H2778     1.0  0.48522  0.86712  0.11908  1.0000
  H   H2779     1.0  0.46808  0.88414  0.12096  1.0000
  H   H2780     1.0  0.47496  0.89225  0.10716  1.0000
  H   H2781     1.0  0.47042  0.89843  0.12007  1.0000
  H   H2782     1.0  0.49356  0.87729  0.13494  1.0000
  H   H2783     1.0  0.47870  0.87584  0.13714  1.0000
  H   H2784     1.0  0.48156  0.88996  0.13613  1.0000
  C   C1735     1.0  0.49782  0.66264  0.04573  1.0000
  Fe  Fe346     1.0  0.56120  0.96420  0.20127  1.0000
  C   C1736     1.0  0.49139  0.67822  0.02990  1.0000
  H   H2785     1.0  0.49291  0.68565  0.02280  1.0000
  C   C1737     1.0  0.62072  0.95578  0.20941  1.0000
  C   C1738     1.0  0.49042  0.69380  0.99926  1.0000
  H   H2786     1.0  0.51370  0.93755  0.23691  1.0000
  H   H2787     1.0  0.45312  0.75525  0.02831  1.0000
  H   H2788     1.0  0.53377  0.83724  0.01674  1.0000
  H   H2789     1.0  0.48467  0.71141  0.01720  1.0000
  H   H2790     1.0  0.58398  0.79476  0.00241  1.0000
  C   C1739     1.0  0.48903  0.81145  0.04121  1.0000
  H   H2791     1.0  0.49495  0.71456  0.08212  1.0000
  N   N170      1.0  0.53383  0.66744  0.00277  1.0000
  H   H2792     1.0  0.52019  0.68292  0.00519  1.0000
  N   N171      1.0  0.50967  0.92137  0.23679  1.0000
  H   H2793     1.0  0.48918  0.96312  0.23963  1.0000
  H   H2794     1.0  0.62480  0.95070  0.20232  1.0000
  H   H2795     1.0  0.54178  0.89207  0.08089  1.0000
  S   S710      1.0  0.58753  0.97150  0.17562  1.0000
  H   H2796     1.0  0.50174  0.74474  0.08867  1.0000
  C   C1740     1.0  0.47852  0.66532  0.04191  1.0000
  C   C1741     1.0  0.53546  0.98674  0.16376  1.0000
  H   H2797     1.0  0.55139  0.68091  0.06933  1.0000
  C   C1742     1.0  0.50947  0.91498  0.22807  1.0000
  H   H2798     1.0  0.54132  0.76862  0.00970  1.0000
  C   C1743     1.0  0.55137  0.69246  0.01381  1.0000
  H   H2799     1.0  0.58410  0.67445  0.06016  1.0000
  C   C1744     1.0  0.46487  0.78192  0.01011  1.0000
  C   C1745     1.0  0.56056  0.67724  0.06492  1.0000
  H   H2800     1.0  0.47563  0.68422  0.06816  1.0000
  N   N172      1.0  0.56733  0.68653  0.05933  1.0000
  H   H2801     1.0  0.43806  0.69989  0.00298  1.0000
  H   H2802     1.0  0.49641  0.97432  0.20729  1.0000
  C   C1746     1.0  0.54660  0.66334  0.00245  1.0000
  H   H2803     1.0  0.50204  0.98961  0.22718  1.0000
  C   C1747     1.0  0.53891  0.97112  0.22312  1.0000
  C   C1748     1.0  0.56313  0.67461  0.02362  1.0000
  N   N173      1.0  0.49070  0.91159  0.17589  1.0000
  C   C1749     1.0  0.47932  0.91977  0.17932  1.0000
  C   C1750     1.0  0.50004  0.91834  0.17038  1.0000
  C   C1751     1.0  0.48968  0.90534  0.16743  1.0000
  C   C1752     1.0  0.49378  0.90288  0.18645  1.0000
  H   H2804     1.0  0.47207  0.91500  0.18353  1.0000
  H   H2805     1.0  0.47672  0.92645  0.17156  1.0000
  H   H2806     1.0  0.47980  0.92463  0.18568  1.0000
  H   H2807     1.0  0.50877  0.91244  0.16776  1.0000
  H   H2808     1.0  0.49806  0.92495  0.16235  1.0000
  H   H2809     1.0  0.50102  0.92317  0.17652  1.0000
  H   H2810     1.0  0.48271  0.90019  0.17128  1.0000
  H   H2811     1.0  0.49811  0.89910  0.16465  1.0000
  H   H2812     1.0  0.48745  0.91160  0.15933  1.0000
  H   H2813     1.0  0.50228  0.89652  0.18413  1.0000
  H   H2814     1.0  0.48689  0.89770  0.19091  1.0000
  H   H2815     1.0  0.49480  0.90725  0.19295  1.0000
  H   H2816     1.0  0.53554  0.91917  0.07814  1.0000
  H   H2817     1.0  0.58717  0.98749  0.22718  1.0000
  C   C1753     1.0  0.45500  0.96620  0.23088  1.0000
  H   H2818     1.0  0.60539  0.75454  0.03356  1.0000
  H   H2819     1.0  0.51145  0.78823  0.01079  1.0000
  H   H2820     1.0  0.47256  0.80025  0.05612  1.0000
  H   H2821     1.0  0.48703  0.98700  0.21270  1.0000
  H   H2822     1.0  0.46395  0.82679  0.05632  1.0000
  H   H2823     1.0  0.54865  0.66400  0.01062  1.0000
  C   C1754     1.0  0.47352  0.82272  0.05394  1.0000
  H   H2824     1.0  0.50488  0.86367  0.02795  1.0000
  S   S711      1.0  0.57226  0.95126  0.19028  1.0000
  C   C1755     1.0  0.54024  0.72749  0.00153  1.0000
  H   H2825     1.0  0.44935  0.67908  0.09215  1.0000
  C   C1756     1.0  0.51939  0.78231  0.01382  1.0000
  H   H2826     1.0  0.56727  0.94238  0.22702  1.0000
  C   C1757     1.0  0.49577  0.98076  0.21260  1.0000
  C   C1758     1.0  0.44996  0.67652  0.07063  1.0000
  N   N174      1.0  0.54691  0.90448  0.08716  1.0000
  C   C1759     1.0  0.46958  0.67997  0.06616  1.0000
  H   H2827     1.0  0.55494  0.89013  0.09955  1.0000
  H   H2828     1.0  0.58624  0.98438  0.20812  1.0000
  C   C1760     1.0  0.57537  0.79365  0.02553  1.0000
  C   C1761     1.0  0.58799  0.74371  0.02340  1.0000
  C   C1762     1.0  0.47847  0.69835  0.00360  1.0000
  C   C1763     1.0  0.59267  0.74634  0.03144  1.0000
  H   H2829     1.0  0.52261  0.93071  0.22501  1.0000
  C   C1764     1.0  0.56447  0.97414  0.14831  1.0000
  C   C1765     1.0  0.48871  0.71871  0.01688  1.0000
  H   H2830     1.0  0.57279  0.76840  0.02027  1.0000
  C   C1766     1.0  0.61031  0.97163  0.19638  1.0000
  S   S712      1.0  0.55870  0.97941  0.18600  1.0000
  H   H2831     1.0  0.58477  0.68794  0.04927  1.0000
  H   H2832     1.0  0.51468  0.97346  0.18386  1.0000
  C   C1767     1.0  0.47350  0.71025  0.99981  1.0000
  C   C1768     1.0  0.61261  0.97494  0.21429  1.0000
  N   N175      1.0  0.45761  0.68227  0.07373  1.0000
  C   C1769     1.0  0.45998  0.74500  0.00323  1.0000
  C   C1770     1.0  0.56817  0.93918  0.23633  1.0000
  N   N176      1.0  0.47619  0.81637  0.04434  1.0000
  H   H2833     1.0  0.47604  0.81674  0.06207  1.0000
  H   H2834     1.0  0.54128  0.96417  0.16137  1.0000
  C   C1771     1.0  0.48067  0.99078  0.13148  1.0000
  H   H2835     1.0  0.46532  0.78215  0.02769  1.0000
  H   H2836     1.0  0.50564  0.73592  0.06681  1.0000
  H   H2837     1.0  0.57261  0.71964  0.01132  1.0000
  H   H2838     1.0  0.49624  0.97329  0.14148  1.0000
  H   H2839     1.0  0.47837  0.82994  0.05142  1.0000
  H   H2840     1.0  0.55614  0.96517  0.14092  1.0000
  H   H2841     1.0  0.50258  0.98599  0.20785  1.0000
  H   H2842     1.0  0.48672  0.72899  0.07703  1.0000
  H   H2843     1.0  0.58212  0.78065  0.00221  1.0000
  H   H2844     1.0  0.53929  0.89217  0.10185  1.0000
  C   C1772     1.0  0.44440  0.96813  0.22735  1.0000
  C   C1773     1.0  0.50393  0.86903  0.99897  1.0000
  C   C1774     1.0  0.42447  0.66162  0.01127  1.0000
  C   C1775     1.0  0.60512  0.75720  0.01526  1.0000
  N   N177      1.0  0.57365  0.94688  0.23972  1.0000
  H   H2845     1.0  0.60192  0.96875  0.20088  1.0000
  H   H2846     1.0  0.46673  0.73692  0.00570  1.0000
  H   H2847     1.0  0.49408  0.81853  0.03837  1.0000
  H   H2848     1.0  0.56106  0.69128  0.04333  1.0000
  H   H2849     1.0  0.57929  0.67667  0.04679  1.0000
  H   H2850     1.0  0.54163  0.98364  0.20663  1.0000
  C   C1776     1.0  0.50828  0.70633  0.01323  1.0000
  C   C1777     1.0  0.55657  0.91077  0.08405  1.0000
  H   H2851     1.0  0.57452  0.69903  0.01041  1.0000
  C   C1778     1.0  0.58320  0.99308  0.20989  1.0000
  Fe  Fe347     1.0  0.57104  0.96671  0.17512  1.0000
  H   H2852     1.0  0.49016  0.72387  0.00763  1.0000
  C   C1779     1.0  0.46986  0.80667  0.04826  1.0000
  H   H2853     1.0  0.49354  0.69994  0.03400  1.0000
  H   H2854     1.0  0.51344  0.83977  0.99758  1.0000
  N   N178      1.0  0.49993  0.71411  0.02088  1.0000
  H   H2855     1.0  0.62794  0.98190  0.19443  1.0000
  H   H2856     1.0  0.49131  0.80670  0.03391  1.0000
  H   H2857     1.0  0.46014  0.81003  0.05068  1.0000
  C   C1780     1.0  0.50501  0.72407  0.02026  1.0000
  C   C1781     1.0  0.45894  0.75141  0.02074  1.0000
  H   H2858     1.0  0.53373  0.91886  0.09342  1.0000
  H   H2859     1.0  0.58157  0.73828  0.02649  1.0000
  C   C1782     1.0  0.54659  0.89693  0.09907  1.0000
  C   C1783     1.0  0.56608  0.95893  0.23859  1.0000
  H   H2860     1.0  0.50630  0.72969  0.01125  1.0000
  Fe  Fe348     1.0  0.52960  0.66962  0.06990  1.0000
  C   C1784     1.0  0.58331  0.78584  0.00791  1.0000
  H   H2861     1.0  0.55229  0.98198  0.12433  1.0000
  S   S713      1.0  0.56627  0.96242  0.16039  1.0000
  H   H2862     1.0  0.51709  0.78037  0.02363  1.0000
  H   H2863     1.0  0.47694  0.83209  0.03074  1.0000
  C   C1785     1.0  0.47235  0.82464  0.03390  1.0000
  H   H2864     1.0  0.47168  0.80169  0.04122  1.0000
  Fe  Fe349     1.0  0.54843  0.66349  0.04862  1.0000
  C   C1786     1.0  0.52523  0.97905  0.23938  1.0000
  H   H2865     1.0  0.47304  0.69255  0.00955  1.0000
  H   H2866     1.0  0.63568  0.97010  0.20414  1.0000
  H   H2867     1.0  0.51468  0.97297  0.16354  1.0000
  H   H2868     1.0  0.59141  0.93821  0.23275  1.0000
  H   H2869     1.0  0.47427  0.82013  0.02647  1.0000
  C   C1787     1.0  0.56808  0.98451  0.14709  1.0000
  C   C1788     1.0  0.44333  0.75986  0.01010  1.0000
  C   C1789     1.0  0.49768  0.70733  0.03315  1.0000
  C   C1790     1.0  0.56045  0.99302  0.12930  1.0000
  C   C1791     1.0  0.46981  0.78365  0.01851  1.0000
  H   H2870     1.0  0.52176  0.84682  0.01053  1.0000
  C   C1792     1.0  0.52319  0.99015  0.23199  1.0000
  C   C1793     1.0  0.48077  0.67470  0.03254  1.0000
  H   H2871     1.0  0.61846  0.97299  0.22056  1.0000
  H   H2872     1.0  0.46497  0.74325  0.02437  1.0000
  H   H2873     1.0  0.59197  0.78149  0.01035  1.0000
  H   H2874     1.0  0.49480  0.79140  0.00056  1.0000
  N   N179      1.0  0.52921  0.83094  0.00394  1.0000
  H   H2875     1.0  0.55742  0.89040  0.07850  1.0000
  H   H2876     1.0  0.51690  0.73269  0.07494  1.0000
  H   H2877     1.0  0.51614  0.97235  0.21985  1.0000
  H   H2878     1.0  0.51296  0.72096  0.07149  1.0000
  H   H2879     1.0  0.56566  0.77430  0.03319  1.0000
  H   H2880     1.0  0.47079  0.98642  0.19410  1.0000
  H   H2881     1.0  0.61246  0.95277  0.21439  1.0000
  Fe  Fe350     1.0  0.52290  0.66905  0.04774  1.0000
  H   H2882     1.0  0.57295  0.69937  0.06450  1.0000
  C   C1794     1.0  0.43371  0.96919  0.23566  1.0000
  H   H2883     1.0  0.49171  0.71297  0.03926  1.0000
  H   H2884     1.0  0.50988  0.71195  0.09340  1.0000
  C   C1795     1.0  0.50637  0.87023  0.00919  1.0000
  H   H2885     1.0  0.52595  0.97888  0.18648  1.0000
  H   H2886     1.0  0.45661  0.77912  0.01285  1.0000
  H   H2887     1.0  0.53683  0.75559  0.01005  1.0000
  S   S714      1.0  0.57661  0.96861  0.20425  1.0000
  C   C1796     1.0  0.50281  0.86284  0.02012  1.0000
  H   H2888     1.0  0.54401  0.72119  0.00851  1.0000
  C   C1797     1.0  0.53391  0.76400  0.01315  1.0000
  H   H2889     1.0  0.48874  0.98761  0.12500  1.0000
  C   C1798     1.0  0.55434  0.68496  0.02412  1.0000
  H   H2890     1.0  0.42551  0.97063  0.23299  1.0000
  H   H2891     1.0  0.44932  0.67996  0.06128  1.0000
  N   N180      1.0  0.48341  0.98955  0.14297  1.0000
  H   H2892     1.0  0.45806  0.69983  0.07418  1.0000
  C   C1799     1.0  0.55891  0.97320  0.14002  1.0000
  H   H2893     1.0  0.54459  0.70047  0.01432  1.0000
  H   H2894     1.0  0.51686  0.70271  0.01600  1.0000
  C   C1800     1.0  0.49501  0.74055  0.08783  1.0000
  C   C1801     1.0  0.53714  0.98234  0.21577  1.0000
  H   H2895     1.0  0.62672  0.95318  0.21562  1.0000
  H   H2896     1.0  0.57353  0.92997  0.23724  1.0000
  C   C1802     1.0  0.48637  0.78895  0.00321  1.0000
  C   C1803     1.0  0.59959  0.75549  0.00734  1.0000
  H   H2897     1.0  0.47359  0.67033  0.06734  1.0000
  N   N181      1.0  0.45197  0.74898  0.01378  1.0000
  H   H2898     1.0  0.56527  0.90449  0.08424  1.0000
  H   H2899     1.0  0.56470  0.67038  0.07173  1.0000
  H   H2900     1.0  0.57548  0.80284  0.02048  1.0000
  C   C1804     1.0  0.48155  0.78697  0.99487  1.0000
  C   C1805     1.0  0.56153  0.69534  0.05033  1.0000
  C   C1806     1.0  0.48076  0.78676  0.01510  1.0000
  H   H2901     1.0  0.51470  0.98841  0.15894  1.0000
  C   C1807     1.0  0.53557  0.96592  0.16995  1.0000
  H   H2902     1.0  0.43720  0.76316  0.01787  1.0000
  C   C1808     1.0  0.47111  0.78294  0.99841  1.0000
  C   C1809     1.0  0.44564  0.73968  0.02103  1.0000
  H   H2903     1.0  0.44452  0.68019  0.99777  1.0000
  H   H2904     1.0  0.44043  0.73749  0.01599  1.0000
  C   C1810     1.0  0.50595  0.72103  0.09500  1.0000
  H   H2905     1.0  0.58979  0.95298  0.23425  1.0000
  H   H2906     1.0  0.45349  0.66681  0.07176  1.0000
  C   C1811     1.0  0.54889  0.89704  0.07862  1.0000
  C   C1812     1.0  0.60164  0.75262  0.02735  1.0000
  C   C1813     1.0  0.49389  0.85346  0.01069  1.0000
  H   H2907     1.0  0.48807  0.74030  0.09612  1.0000
  H   H2908     1.0  0.43792  0.75834  0.00483  1.0000
  H   H2909     1.0  0.54062  0.98616  0.15469  1.0000
  H   H2910     1.0  0.55521  0.91648  0.09037  1.0000
  N   N182      1.0  0.52307  0.77135  0.00931  1.0000
  N   N183      1.0  0.57354  0.78641  0.01843  1.0000
  Fe  Fe351     1.0  0.54906  0.89401  0.23207  1.0000
  C   C1814     1.0  0.57331  0.77437  0.02556  1.0000
  C   C1815     1.0  0.62947  0.97224  0.19818  1.0000
  H   H2911     1.0  0.54906  0.90244  0.06952  1.0000
  H   H2912     1.0  0.58140  0.77036  0.02914  1.0000
  H   H2913     1.0  0.47923  0.97320  0.23092  1.0000
  H   H2914     1.0  0.46194  0.66776  0.08788  1.0000
  C   C1816     1.0  0.59134  0.74840  0.01135  1.0000
  H   H2915     1.0  0.49408  0.68443  0.00171  1.0000
  H   H2916     1.0  0.46471  0.75191  0.99743  1.0000
  C   C1817     1.0  0.50924  0.96717  0.22423  1.0000
  H   H2917     1.0  0.57242  0.98522  0.15348  1.0000
  H   H2918     1.0  0.43942  0.74246  0.02901  1.0000
  C   C1818     1.0  0.52987  0.67972  0.00445  1.0000
  C   C1819     1.0  0.56220  0.79178  0.01473  1.0000
  H   H2919     1.0  0.60802  0.98130  0.19272  1.0000
  H   H2920     1.0  0.58500  0.95043  0.22260  1.0000
  H   H2921     1.0  0.50604  0.70338  0.03629  1.0000
  H   H2922     1.0  0.53433  0.96082  0.24062  1.0000
  N   N184      1.0  0.49727  0.97483  0.22469  1.0000
  H   H2923     1.0  0.63398  0.96762  0.19080  1.0000
  H   H2924     1.0  0.52712  0.91176  0.23880  1.0000
  C   C1820     1.0  0.53555  0.91319  0.08696  1.0000
  C   C1821     1.0  0.49760  0.86069  0.99977  1.0000
  H   H2925     1.0  0.51822  0.91325  0.22196  1.0000
  C   C1822     1.0  0.48835  0.96764  0.23045  1.0000
  H   H2926     1.0  0.51233  0.82634  0.00823  1.0000
  C   C1823     1.0  0.55671  0.98271  0.13065  1.0000
  H   H2927     1.0  0.54359  0.81855  0.01079  1.0000
  H   H2928     1.0  0.60429  0.97219  0.21946  1.0000
  H   H2929     1.0  0.61466  0.92941  0.23753  1.0000
  C   C1824     1.0  0.51360  0.76470  0.01396  1.0000
  H   H2930     1.0  0.51379  0.72090  0.02264  1.0000
  H   H2931     1.0  0.53836  0.81372  0.00080  1.0000
  H   H2932     1.0  0.58732  0.74675  0.00521  1.0000
  H   H2933     1.0  0.46574  0.98875  0.15280  1.0000
  C   C1825     1.0  0.43621  0.70384  0.99409  1.0000
  Fe  Fe352     1.0  0.52159  0.99263  0.11502  1.0000
  H   H2934     1.0  0.51760  0.66278  0.01326  1.0000
  H   H2935     1.0  0.58832  0.71677  0.00990  1.0000
  S   S715      1.0  0.46436  0.66263  0.04628  1.0000
  H   H2936     1.0  0.42674  0.70412  0.99491  1.0000
  S   S716      1.0  0.61000  0.98599  0.24144  1.0000
  S   S717      1.0  0.61160  0.95333  0.23991  1.0000
  C   C1826     1.0  0.55722  0.68968  0.00291  1.0000
  H   H2937     1.0  0.50715  0.90629  0.23241  1.0000
  H   H2938     1.0  0.56994  0.96501  0.24103  1.0000
  H   H2939     1.0  0.45901  0.69230  0.99335  1.0000
  H   H2940     1.0  0.48668  0.98962  0.23231  1.0000
  S   S718      1.0  0.55644  0.73970  0.00021  1.0000
  C   C1827     1.0  0.58394  0.99487  0.22062  1.0000
  C   C1828     1.0  0.52916  0.99185  0.22017  1.0000
  C   C1829     1.0  0.56623  0.99390  0.13746  1.0000
  C   C1830     1.0  0.58126  0.71947  0.00485  1.0000
  H   H2941     1.0  0.49122  0.92974  0.23895  1.0000
  C   C1831     1.0  0.56600  0.67929  0.00237  1.0000
  H   H2942     1.0  0.44068  0.99033  0.23768  1.0000
  H   H2943     1.0  0.50064  0.99326  0.13545  1.0000
  H   H2944     1.0  0.43029  0.99206  0.22165  1.0000
  H   H2945     1.0  0.47438  0.99317  0.16003  1.0000
  H   H2946     1.0  0.55913  0.93900  0.24181  1.0000
  C   C1832     1.0  0.58304  0.69940  0.00386  1.0000
  C   C1833     1.0  0.47476  0.99368  0.19303  1.0000
  C   C1834     1.0  0.47254  0.99390  0.15131  1.0000
  H   H2947     1.0  0.54519  0.83718  0.99573  1.0000
  C   C1835     1.0  0.54488  0.73742  0.99569  1.0000
  H   H2948     1.0  0.53427  0.68585  0.99695  1.0000
  C   C1836     1.0  0.52538  0.77437  0.99631  1.0000
  H   H2949     1.0  0.58119  0.72872  0.99991  1.0000
  H   H2950     1.0  0.51467  0.98887  0.17930  1.0000
  N   N185      1.0  0.58305  0.71152  0.99686  1.0000
  S   S719      1.0  0.56815  0.76672  0.99735  1.0000
  H   H2951     1.0  0.58418  0.69316  0.99817  1.0000
  H   H2952     1.0  0.56467  0.71526  0.99668  1.0000
  H   H2953     1.0  0.55180  0.66869  0.99485  1.0000
  H   H2954     1.0  0.52781  0.76635  0.99262  1.0000
  S   S720      1.0  0.60181  0.76343  0.99277  1.0000
  H   H2955     1.0  0.52053  0.82596  0.99336  1.0000
  H   H2956     1.0  0.60196  0.70894  0.99272  1.0000
  H   H2957     1.0  0.51746  0.78016  0.99313  1.0000
  C   C1837     1.0  0.53690  0.83695  0.99362  1.0000
  H   H2958     1.0  0.62474  0.93383  0.30612  1.0000
  H   H2959     1.0  0.34057  0.94532  0.48116  1.0000
  C   C1838     1.0  0.49666  0.92643  0.28776  1.0000
  Fe  Fe353     1.0  0.40871  0.96520  0.46553  1.0000
  S   S721      1.0  0.41019  0.95413  0.45276  1.0000
  H   H2960     1.0  0.54537  0.98616  0.28644  1.0000
  Fe  Fe354     1.0  0.47842  0.98666  0.35110  1.0000
  S   S722      1.0  0.41335  0.97799  0.43211  1.0000
  C   C1839     1.0  0.53301  0.97760  0.34760  1.0000
  Fe  Fe355     1.0  0.39855  0.96994  0.44390  1.0000
  S   S723      1.0  0.38499  0.96926  0.43481  1.0000
  Fe  Fe356     1.0  0.42502  0.96272  0.44157  1.0000
  S   S724      1.0  0.43905  0.95225  0.42935  1.0000
  S   S725      1.0  0.39559  0.98025  0.45759  1.0000
  S   S726      1.0  0.42486  0.97222  0.45526  1.0000
  H   H2961     1.0  0.55478  0.97175  0.28583  1.0000
  C   C1840     1.0  0.54507  0.97280  0.30844  1.0000
  H   H2962     1.0  0.58068  0.93322  0.25322  1.0000
  Fe  Fe357     1.0  0.48433  0.97440  0.37459  1.0000
  S   S727      1.0  0.49894  0.96048  0.36704  1.0000
  S   S728      1.0  0.47942  0.97621  0.39357  1.0000
  C   C1841     1.0  0.58928  0.97859  0.39941  1.0000
  C   C1842     1.0  0.60572  0.92049  0.25427  1.0000
  Fe  Fe358     1.0  0.48640  0.96018  0.35660  1.0000
  S   S729      1.0  0.48544  0.94272  0.35428  1.0000
  C   C1843     1.0  0.50102  0.92667  0.30595  1.0000
  S   S730      1.0  0.47127  0.97269  0.36553  1.0000
  Fe  Fe359     1.0  0.33571  0.93540  0.45801  1.0000
  H   H2963     1.0  0.34230  0.98978  0.44717  1.0000
  S   S731      1.0  0.35375  0.93205  0.46162  1.0000
  C   C1844     1.0  0.36254  0.99483  0.43358  1.0000
  H   H2964     1.0  0.46125  0.96928  0.31513  1.0000
  C   C1845     1.0  0.52995  0.98081  0.35849  1.0000
  H   H2965     1.0  0.62499  0.95976  0.29856  1.0000
  H   H2966     1.0  0.55437  0.96757  0.30711  1.0000
  H   H2967     1.0  0.59498  0.87746  0.26115  1.0000
  H   H2968     1.0  0.42155  0.95355  0.41347  1.0000
  Fe  Fe360     1.0  0.45938  0.96465  0.27194  1.0000
  S   S732      1.0  0.47377  0.97439  0.26254  1.0000
  S   S733      1.0  0.44296  0.96721  0.26561  1.0000
  Fe  Fe361     1.0  0.47061  0.95250  0.29313  1.0000
  S   S734      1.0  0.48584  0.96120  0.28562  1.0000
  S   S735      1.0  0.46966  0.93890  0.31004  1.0000
  Fe  Fe362     1.0  0.47226  0.97746  0.28043  1.0000
  H   H2969     1.0  0.62834  0.94969  0.28893  1.0000
  Fe  Fe363     1.0  0.48579  0.95714  0.26862  1.0000
  S   S736      1.0  0.50203  0.94785  0.25751  1.0000
  S   S737      1.0  0.45692  0.96903  0.28941  1.0000
  S   S738      1.0  0.47148  0.94713  0.27654  1.0000
  H   H2970     1.0  0.47746  0.97591  0.31851  1.0000
  Fe  Fe364     1.0  0.64843  0.98802  0.40610  1.0000
  H   H2971     1.0  0.35025  0.95805  0.48639  1.0000
  C   C1846     1.0  0.65400  0.93760  0.46040  1.0000
  C   C1847     1.0  0.54090  0.90201  0.26128  1.0000
  C   C1848     1.0  0.34220  0.93872  0.48933  1.0000
  C   C1849     1.0  0.59715  0.93215  0.26917  1.0000
  S   S739      1.0  0.59225  0.99417  0.26529  1.0000
  C   C1850     1.0  0.66287  0.94345  0.43983  1.0000
  H   H2972     1.0  0.59260  0.93289  0.27804  1.0000
  S   S740      1.0  0.56553  0.90970  0.30282  1.0000
  S   S741      1.0  0.58558  0.97561  0.25414  1.0000
  H   H2973     1.0  0.65122  0.97852  0.47945  1.0000
  S   S742      1.0  0.61263  0.96504  0.34112  1.0000
  C   C1851     1.0  0.54132  0.90501  0.27156  1.0000
  Fe  Fe365     1.0  0.57967  0.97897  0.35251  1.0000
  S   S743      1.0  0.58872  0.96110  0.36111  1.0000
  C   C1852     1.0  0.56663  0.99248  0.28516  1.0000
  Fe  Fe366     1.0  0.60395  0.96936  0.35894  1.0000
  S   S744      1.0  0.61267  0.96431  0.37467  1.0000
  Fe  Fe367     1.0  0.59648  0.95850  0.34269  1.0000
  S   S745      1.0  0.59796  0.94157  0.33741  1.0000
  H   H2974     1.0  0.54529  0.98208  0.30783  1.0000
  S   S746      1.0  0.58644  0.97585  0.33408  1.0000
  Fe  Fe368     1.0  0.55069  0.91350  0.29361  1.0000
  S   S747      1.0  0.56071  0.92087  0.27591  1.0000
  H   H2975     1.0  0.37261  0.98404  0.45172  1.0000
  Fe  Fe369     1.0  0.55832  0.92829  0.30573  1.0000
  S   S748      1.0  0.56916  0.93660  0.28889  1.0000
  S   S749      1.0  0.55438  0.93645  0.32142  1.0000
  Fe  Fe370     1.0  0.55388  0.93813  0.28135  1.0000
  S   S750      1.0  0.54618  0.95493  0.27025  1.0000
  H   H2976     1.0  0.43391  0.99025  0.42815  1.0000
  Fe  Fe371     1.0  0.58930  0.97577  0.27123  1.0000
  S   S751      1.0  0.54248  0.93108  0.29832  1.0000
  H   H2977     1.0  0.49754  0.92875  0.25104  1.0000
  H   H2978     1.0  0.54708  0.99396  0.25329  1.0000
  H   H2979     1.0  0.52181  0.97576  0.31085  1.0000
  H   H2980     1.0  0.57858  0.92309  0.31911  1.0000
  H   H2981     1.0  0.53270  0.87586  0.27358  1.0000
  H   H2982     1.0  0.49306  0.92335  0.31141  1.0000
  N   N186      1.0  0.41243  0.93974  0.42338  1.0000
  H   H2983     1.0  0.51475  0.90552  0.30386  1.0000
  C   C1853     1.0  0.57936  0.97553  0.38613  1.0000
  C   C1854     1.0  0.60248  0.95831  0.30775  1.0000
  C   C1855     1.0  0.55318  0.97909  0.34526  1.0000
  H   H2984     1.0  0.44886  0.99182  0.42214  1.0000
  H   H2985     1.0  0.41273  0.92585  0.41533  1.0000
  H   H2986     1.0  0.60189  0.95190  0.28880  1.0000
  H   H2987     1.0  0.62268  0.95977  0.39472  1.0000
  C   C1856     1.0  0.58572  0.94027  0.33305  1.0000
  C   C1857     1.0  0.58698  0.93113  0.32743  1.0000
  C   C1858     1.0  0.57755  0.93021  0.32337  1.0000
  C   C1859     1.0  0.56669  0.93821  0.32525  1.0000
  C   C1860     1.0  0.56538  0.94730  0.33096  1.0000
  C   C1861     1.0  0.57491  0.94842  0.33473  1.0000
  C   C1862     1.0  0.53851  0.98337  0.36265  1.0000
  H   H2988     1.0  0.52648  0.98843  0.30077  1.0000
  H   H2989     1.0  0.55699  0.95348  0.33248  1.0000
  H   H2990     1.0  0.57384  0.95548  0.33907  1.0000
  H   H2991     1.0  0.54830  0.95417  0.29909  1.0000
  N   N187      1.0  0.58194  0.98451  0.39062  1.0000
  H   H2992     1.0  0.40580  0.94036  0.40846  1.0000
  H   H2993     1.0  0.59888  0.95007  0.26400  1.0000
  H   H2994     1.0  0.40025  0.92923  0.43476  1.0000
  C   C1863     1.0  0.51442  0.94975  0.26089  1.0000
  C   C1864     1.0  0.51344  0.95929  0.26575  1.0000
  C   C1865     1.0  0.52324  0.96077  0.26869  1.0000
  C   C1866     1.0  0.53402  0.95272  0.26679  1.0000
  C   C1867     1.0  0.53499  0.94297  0.26220  1.0000
  C   C1868     1.0  0.52521  0.94158  0.25907  1.0000
  H   H2995     1.0  0.50525  0.96579  0.26687  1.0000
  H   H2996     1.0  0.52251  0.96820  0.27238  1.0000
  H   H2997     1.0  0.54332  0.93668  0.26078  1.0000
  H   H2998     1.0  0.52602  0.93416  0.25534  1.0000
  H   H2999     1.0  0.57809  0.89390  0.27693  1.0000
  C   C1869     1.0  0.52679  0.97893  0.30181  1.0000
  H   H3000     1.0  0.58763  0.96978  0.38216  1.0000
  H   H3001     1.0  0.53462  0.95560  0.30977  1.0000
  H   H3002     1.0  0.46290  0.96421  0.24554  1.0000
  H   H3003     1.0  0.54327  0.91333  0.27099  1.0000
  H   H3004     1.0  0.64957  0.98102  0.45864  1.0000
  C   C1870     1.0  0.44399  0.96683  0.25098  1.0000
  Fe  Fe372     1.0  0.50393  0.97526  0.35216  1.0000
  H   H3005     1.0  0.41253  0.95586  0.42744  1.0000
  C   C1871     1.0  0.63200  0.98555  0.38628  1.0000
  S   S752      1.0  0.53987  0.90046  0.29555  1.0000
  C   C1872     1.0  0.50832  0.90907  0.29804  1.0000
  H   H3006     1.0  0.46826  0.97686  0.41765  1.0000
  H   H3007     1.0  0.52016  0.92300  0.28002  1.0000
  S   S753      1.0  0.59269  0.91021  0.27505  1.0000
  H   H3008     1.0  0.55713  0.95897  0.24441  1.0000
  S   S754      1.0  0.63652  0.96990  0.44902  1.0000
  H   H3009     1.0  0.60579  0.96163  0.31364  1.0000
  Fe  Fe373     1.0  0.57508  0.91835  0.28520  1.0000
  H   H3010     1.0  0.66016  0.97158  0.39233  1.0000
  H   H3011     1.0  0.56204  0.97851  0.34003  1.0000
  C   C1873     1.0  0.63260  0.96046  0.48417  1.0000
  C   C1874     1.0  0.64567  0.97400  0.47753  1.0000
  H   H3012     1.0  0.51476  0.93608  0.28599  1.0000
  H   H3013     1.0  0.41479  0.97861  0.48068  1.0000
  H   H3014     1.0  0.62592  0.95742  0.47087  1.0000
  C   C1875     1.0  0.57486  0.94221  0.25204  1.0000
  C   C1876     1.0  0.57447  0.88878  0.27296  1.0000
  H   H3015     1.0  0.61932  0.98708  0.36372  1.0000
  H   H3016     1.0  0.44651  0.97809  0.31740  1.0000
  H   H3017     1.0  0.45908  0.98246  0.34021  1.0000
  H   H3018     1.0  0.60002  0.98477  0.30628  1.0000
  S   S755      1.0  0.56074  0.98608  0.36111  1.0000
  S   S756      1.0  0.52252  0.97517  0.34155  1.0000
  N   N188      1.0  0.57894  0.89072  0.26005  1.0000
  C   C1877     1.0  0.61461  0.99235  0.30480  1.0000
  Fe  Fe374     1.0  0.41170  0.98672  0.44669  1.0000
  H   H3019     1.0  0.61074  0.93492  0.31625  1.0000
  H   H3020     1.0  0.58468  0.97275  0.40704  1.0000
  C   C1878     1.0  0.48113  0.94224  0.34171  1.0000
  C   C1879     1.0  0.48284  0.95065  0.33113  1.0000
  C   C1880     1.0  0.47939  0.94978  0.32125  1.0000
  C   C1881     1.0  0.47409  0.94059  0.32203  1.0000
  C   C1882     1.0  0.47257  0.93216  0.33254  1.0000
  C   C1883     1.0  0.47614  0.93294  0.34229  1.0000
  H   H3021     1.0  0.48705  0.95763  0.33052  1.0000
  H   H3022     1.0  0.48095  0.95610  0.31303  1.0000
  H   H3023     1.0  0.46860  0.92497  0.33317  1.0000
  H   H3024     1.0  0.47490  0.92635  0.35037  1.0000
  H   H3025     1.0  0.42161  0.93611  0.40636  1.0000
  C   C1884     1.0  0.61724  0.94010  0.31043  1.0000
  H   H3026     1.0  0.51328  0.98743  0.26471  1.0000
  N   N189      1.0  0.50562  0.92211  0.29502  1.0000
  H   H3027     1.0  0.62053  0.94354  0.31626  1.0000
  H   H3028     1.0  0.53365  0.88104  0.29164  1.0000
  C   C1885     1.0  0.60101  0.94184  0.26126  1.0000
  H   H3029     1.0  0.34263  0.96658  0.46895  1.0000
  C   C1886     1.0  0.42236  0.93283  0.42902  1.0000
  H   H3030     1.0  0.60006  0.93978  0.30088  1.0000
  H   H3031     1.0  0.59874  0.96603  0.30135  1.0000
  C   C1887     1.0  0.37583  0.95946  0.44273  1.0000
  C   C1888     1.0  0.36663  0.95894  0.43813  1.0000
  C   C1889     1.0  0.35951  0.95082  0.44410  1.0000
  C   C1890     1.0  0.36177  0.94302  0.45454  1.0000
  C   C1891     1.0  0.37088  0.94366  0.45921  1.0000
  C   C1892     1.0  0.37780  0.95198  0.45341  1.0000
  H   H3032     1.0  0.36508  0.96471  0.42986  1.0000
  H   H3033     1.0  0.35255  0.95030  0.44041  1.0000
  H   H3034     1.0  0.37263  0.93764  0.46731  1.0000
  H   H3035     1.0  0.38479  0.95244  0.45709  1.0000
  C   C1893     1.0  0.45017  0.95906  0.41945  1.0000
  C   C1894     1.0  0.45507  0.96645  0.42282  1.0000
  C   C1895     1.0  0.46431  0.97135  0.41493  1.0000
  C   C1896     1.0  0.46843  0.96920  0.40349  1.0000
  C   C1897     1.0  0.46347  0.96187  0.40010  1.0000
  C   C1898     1.0  0.45448  0.95669  0.40811  1.0000
  H   H3036     1.0  0.45198  0.96810  0.43164  1.0000
  H   H3037     1.0  0.57856  0.90513  0.24501  1.0000
  H   H3038     1.0  0.46668  0.96005  0.39136  1.0000
  H   H3039     1.0  0.45085  0.95084  0.40550  1.0000
  C   C1899     1.0  0.43852  0.99181  0.40490  1.0000
  H   H3040     1.0  0.49969  0.92289  0.27959  1.0000
  C   C1900     1.0  0.63958  0.96645  0.48672  1.0000
  S   S757      1.0  0.49057  0.98936  0.36057  1.0000
  C   C1901     1.0  0.59925  0.92156  0.26564  1.0000
  C   C1902     1.0  0.53511  0.88401  0.27297  1.0000
  H   H3041     1.0  0.65165  0.92993  0.45897  1.0000
  C   C1903     1.0  0.62419  0.96821  0.38936  1.0000
  H   H3042     1.0  0.66083  0.93605  0.43755  1.0000
  H   H3043     1.0  0.57428  0.96967  0.39326  1.0000
  N   N190      1.0  0.61187  0.94976  0.30170  1.0000
  C   C1904     1.0  0.62998  0.97463  0.39314  1.0000
  C   C1905     1.0  0.53564  0.88695  0.28320  1.0000
  C   C1906     1.0  0.62080  0.99060  0.28102  1.0000
  H   H3044     1.0  0.42516  0.96945  0.25375  1.0000
  C   C1907     1.0  0.64478  0.97538  0.46579  1.0000
  H   H3045     1.0  0.56568  0.98613  0.40366  1.0000
  C   C1908     1.0  0.40113  0.93856  0.43183  1.0000
  H   H3046     1.0  0.66361  0.96465  0.36362  1.0000
  H   H3047     1.0  0.40565  0.95784  0.41556  1.0000
  H   H3048     1.0  0.57698  0.87932  0.27727  1.0000
  C   C1909     1.0  0.59197  0.88698  0.25734  1.0000
  H   H3049     1.0  0.52201  0.97838  0.29540  1.0000
  C   C1910     1.0  0.53798  0.89139  0.26195  1.0000
  Fe  Fe375     1.0  0.60510  0.96845  0.24913  1.0000
  H   H3050     1.0  0.43325  0.98521  0.41031  1.0000
  H   H3051     1.0  0.39343  0.94382  0.42794  1.0000
  H   H3052     1.0  0.53463  0.95862  0.29432  1.0000
  N   N191      1.0  0.53909  0.97201  0.29968  1.0000
  H   H3053     1.0  0.57414  0.97966  0.37921  1.0000
  H   H3054     1.0  0.49476  0.93621  0.28498  1.0000
  C   C1911     1.0  0.60788  0.98743  0.30054  1.0000
  H   H3055     1.0  0.51549  0.90543  0.24897  1.0000
  C   C1912     1.0  0.55016  0.98250  0.35604  1.0000
  H   H3056     1.0  0.52048  0.95144  0.34245  1.0000
  S   S758      1.0  0.65118  0.96964  0.41697  1.0000
  H   H3057     1.0  0.59498  0.95430  0.31322  1.0000
  H   H3058     1.0  0.63287  0.97114  0.40135  1.0000
  C   C1913     1.0  0.49495  0.99036  0.27358  1.0000
  Fe  Fe376     1.0  0.60184  0.98268  0.33400  1.0000
  H   H3059     1.0  0.48814  0.92394  0.29271  1.0000
  H   H3060     1.0  0.52098  0.98150  0.36362  1.0000
  H   H3061     1.0  0.43104  0.93368  0.42294  1.0000
  H   H3062     1.0  0.49840  0.93648  0.30402  1.0000
  C   C1914     1.0  0.63148  0.96205  0.47264  1.0000
  H   H3063     1.0  0.57240  0.97775  0.31195  1.0000
  C   C1915     1.0  0.63764  0.96936  0.46338  1.0000
  H   H3064     1.0  0.57930  0.90881  0.25808  1.0000
  C   C1916     1.0  0.62028  0.97263  0.37875  1.0000
  H   H3065     1.0  0.57716  0.88499  0.24544  1.0000
  C   C1917     1.0  0.58837  0.99225  0.38075  1.0000
  S   S759      1.0  0.47170  0.99462  0.28453  1.0000
  H   H3066     1.0  0.42223  0.92330  0.43186  1.0000
  C   C1918     1.0  0.60668  0.94482  0.29495  1.0000
  H   H3067     1.0  0.54264  0.90801  0.25291  1.0000
  C   C1919     1.0  0.62225  0.98357  0.37192  1.0000
  H   H3068     1.0  0.61743  0.96312  0.28693  1.0000
  C   C1920     1.0  0.54463  0.97672  0.34103  1.0000
  C   C1921     1.0  0.62108  0.95581  0.29368  1.0000
  C   C1922     1.0  0.57543  0.90339  0.25474  1.0000
  H   H3069     1.0  0.64634  0.94521  0.45946  1.0000
  S   S760      1.0  0.49223  0.97403  0.34129  1.0000
  H   H3070     1.0  0.51229  0.90528  0.29003  1.0000
  C   C1923     1.0  0.57098  0.98328  0.29377  1.0000
  H   H3071     1.0  0.54123  0.97601  0.28087  1.0000
  H   H3072     1.0  0.52343  0.92306  0.29352  1.0000
  H   H3073     1.0  0.59524  0.92469  0.32625  1.0000
  C   C1924     1.0  0.53911  0.95955  0.30078  1.0000
  H   H3074     1.0  0.50024  0.90564  0.30274  1.0000
  C   C1925     1.0  0.62809  0.98998  0.37568  1.0000
  S   S761      1.0  0.60839  0.96707  0.26678  1.0000
  C   C1926     1.0  0.41318  0.93531  0.41291  1.0000
  C   C1927     1.0  0.43351  0.96852  0.24741  1.0000
  H   H3075     1.0  0.66073  0.95841  0.45319  1.0000
  H   H3076     1.0  0.61353  0.93880  0.28971  1.0000
  H   H3077     1.0  0.50770  0.92391  0.31147  1.0000
  H   H3078     1.0  0.36033  0.97764  0.45362  1.0000
  H   H3079     1.0  0.40031  0.94181  0.43984  1.0000
  C   C1928     1.0  0.53894  0.89734  0.28252  1.0000
  H   H3080     1.0  0.42209  0.93598  0.43693  1.0000
  H   H3081     1.0  0.54706  0.97435  0.33256  1.0000
  C   C1929     1.0  0.54541  0.97669  0.28769  1.0000
  C   C1930     1.0  0.33366  0.97177  0.46999  1.0000
  H   H3082     1.0  0.52910  0.93923  0.33579  1.0000
  H   H3083     1.0  0.56468  0.89154  0.27534  1.0000
  C   C1931     1.0  0.41307  0.95230  0.41974  1.0000
  C   C1932     1.0  0.51646  0.92626  0.28834  1.0000
  H   H3084     1.0  0.59564  0.88841  0.24766  1.0000
  H   H3085     1.0  0.59165  0.98509  0.40281  1.0000
  S   S762      1.0  0.57938  0.97014  0.28971  1.0000
  N   N192      1.0  0.53131  0.93798  0.35315  1.0000
  C   C1933     1.0  0.53219  0.94591  0.36009  1.0000
  C   C1934     1.0  0.52146  0.93205  0.35939  1.0000
  C   C1935     1.0  0.54248  0.92901  0.35153  1.0000
  C   C1936     1.0  0.52913  0.94497  0.34155  1.0000
  H   H3086     1.0  0.52409  0.95302  0.36120  1.0000
  H   H3087     1.0  0.53966  0.95037  0.35562  1.0000
  H   H3088     1.0  0.53359  0.94102  0.36900  1.0000
  H   H3089     1.0  0.52076  0.92585  0.35443  1.0000
  H   H3090     1.0  0.52259  0.92693  0.36832  1.0000
  H   H3091     1.0  0.51282  0.93850  0.36047  1.0000
  H   H3092     1.0  0.54245  0.92324  0.34579  1.0000
  H   H3093     1.0  0.54417  0.92329  0.36008  1.0000
  H   H3094     1.0  0.55015  0.93320  0.34725  1.0000
  H   H3095     1.0  0.53606  0.95008  0.33684  1.0000
  C   C1937     1.0  0.36282  0.98569  0.45395  1.0000
  Fe  Fe377     1.0  0.64790  0.97805  0.43233  1.0000
  S   S763      1.0  0.62455  0.99036  0.26594  1.0000
  H   H3096     1.0  0.56813  0.99127  0.27629  1.0000
  H   H3097     1.0  0.57639  0.87417  0.25898  1.0000
  S   S764      1.0  0.63958  0.99383  0.39044  1.0000
  H   H3098     1.0  0.44792  0.98703  0.40315  1.0000
  H   H3099     1.0  0.53611  0.98599  0.37101  1.0000
  S   S765      1.0  0.53754  0.88714  0.24932  1.0000
  C   C1938     1.0  0.60733  0.94090  0.24986  1.0000
  C   C1939     1.0  0.49771  0.92405  0.24427  1.0000
  C   C1940     1.0  0.57074  0.99168  0.39613  1.0000
  H   H3100     1.0  0.47435  0.98943  0.32336  1.0000
  H   H3101     1.0  0.54052  0.96930  0.31757  1.0000
  S   S766      1.0  0.34036  0.98370  0.48203  1.0000
  S   S767      1.0  0.40359  0.95894  0.48524  1.0000
  C   C1941     1.0  0.45599  0.97850  0.31463  1.0000
  C   C1942     1.0  0.40900  0.97797  0.48933  1.0000
  H   H3102     1.0  0.59771  0.97297  0.39552  1.0000
  C   C1943     1.0  0.56896  0.98488  0.30526  1.0000
  C   C1944     1.0  0.51801  0.91396  0.24420  1.0000
  H   H3103     1.0  0.57866  0.94799  0.25500  1.0000
  H   H3104     1.0  0.51839  0.91848  0.25090  1.0000
  H   H3105     1.0  0.56412  0.88642  0.25697  1.0000
  H   H3106     1.0  0.59602  0.89206  0.26093  1.0000
  C   C1945     1.0  0.66227  0.96606  0.38574  1.0000
  H   H3107     1.0  0.62793  0.95459  0.49120  1.0000
  H   H3108     1.0  0.56617  0.94165  0.25808  1.0000
  H   H3109     1.0  0.36040  0.94535  0.49233  1.0000
  C   C1946     1.0  0.61088  0.98670  0.28860  1.0000
  Fe  Fe378     1.0  0.61113  0.98537  0.25986  1.0000
  S   S768      1.0  0.59421  0.98751  0.35171  1.0000
  H   H3110     1.0  0.36095  0.98671  0.43223  1.0000
  H   H3111     1.0  0.60539  0.98336  0.28523  1.0000
  H   H3112     1.0  0.52055  0.97779  0.24846  1.0000
  C   C1947     1.0  0.57393  0.88377  0.25516  1.0000
  H   H3113     1.0  0.60736  0.91230  0.25149  1.0000
  H   H3114     1.0  0.56567  0.90656  0.25669  1.0000
  H   H3115     1.0  0.47377  0.98976  0.30865  1.0000
  H   H3116     1.0  0.49452  0.91584  0.24897  1.0000
  H   H3117     1.0  0.49265  0.98543  0.26867  1.0000
  H   H3118     1.0  0.46203  0.96892  0.33550  1.0000
  H   H3119     1.0  0.65376  0.96615  0.38385  1.0000
  C   C1948     1.0  0.60979  0.93018  0.24637  1.0000
  Fe  Fe379     1.0  0.59064  0.99314  0.24762  1.0000
  H   H3120     1.0  0.65498  0.93560  0.46966  1.0000
  H   H3121     1.0  0.65533  0.95119  0.43877  1.0000
  C   C1949     1.0  0.45676  0.97817  0.33440  1.0000
  H   H3122     1.0  0.45762  0.98315  0.30522  1.0000
  H   H3123     1.0  0.37227  0.99404  0.43118  1.0000
  H   H3124     1.0  0.35086  0.93265  0.48683  1.0000
  C   C1950     1.0  0.47173  0.98492  0.31796  1.0000
  H   H3125     1.0  0.65657  0.98448  0.36867  1.0000
  H   H3126     1.0  0.35986  0.98675  0.46323  1.0000
  H   H3127     1.0  0.44729  0.97785  0.33777  1.0000
  H   H3128     1.0  0.59673  0.98707  0.37622  1.0000
  C   C1951     1.0  0.50663  0.99140  0.27141  1.0000
  N   N193      1.0  0.45909  0.98459  0.32198  1.0000
  H   H3129     1.0  0.33534  0.93340  0.49220  1.0000
  C   C1952     1.0  0.45480  0.96555  0.24275  1.0000
  H   H3130     1.0  0.51639  0.97963  0.71491  1.0000
  H   H3131     1.0  0.47554  0.96273  0.66102  1.0000
  C   C1953     1.0  0.47036  0.99317  0.58074  1.0000
  Fe  Fe380     1.0  0.66250  0.97591  0.52249  1.0000
  S   S769      1.0  0.40107  0.96902  0.54648  1.0000
  H   H3132     1.0  0.46091  0.97453  0.59094  1.0000
  Fe  Fe381     1.0  0.43077  0.98007  0.73942  1.0000
  S   S770      1.0  0.37856  0.97374  0.56840  1.0000
  H   H3133     1.0  0.56086  0.98624  0.66238  1.0000
  Fe  Fe382     1.0  0.39680  0.97747  0.56206  1.0000
  S   S771      1.0  0.40830  0.97164  0.57563  1.0000
  Fe  Fe383     1.0  0.38232  0.96707  0.55184  1.0000
  S   S772      1.0  0.37871  0.95120  0.54837  1.0000
  C   C1954     1.0  0.52780  0.99278  0.68458  1.0000
  H   H3134     1.0  0.58440  0.97362  0.72087  1.0000
  C   C1955     1.0  0.46443  0.94685  0.65986  1.0000
  C   C1956     1.0  0.57623  0.95468  0.73457  1.0000
  S   S773      1.0  0.43702  0.97285  0.65709  1.0000
  H   H3135     1.0  0.58581  0.95378  0.73381  1.0000
  C   C1957     1.0  0.39462  0.96880  0.50460  1.0000
  H   H3136     1.0  0.53278  0.97086  0.72629  1.0000
  C   C1958     1.0  0.49105  0.98067  0.66834  1.0000
  C   C1959     1.0  0.56060  0.96425  0.67402  1.0000
  H   H3137     1.0  0.34420  0.97008  0.54071  1.0000
  H   H3138     1.0  0.34461  0.93930  0.51642  1.0000
  C   C1960     1.0  0.44345  0.99479  0.67344  1.0000
  C   C1961     1.0  0.55036  0.96413  0.65958  1.0000
  H   H3139     1.0  0.57426  0.97052  0.71435  1.0000
  S   S774      1.0  0.47862  0.97661  0.60810  1.0000
  C   C1962     1.0  0.60298  0.99235  0.54590  1.0000
  C   C1963     1.0  0.33976  0.94979  0.55989  1.0000
  H   H3140     1.0  0.54165  0.96608  0.66571  1.0000
  H   H3141     1.0  0.57388  0.95662  0.65452  1.0000
  H   H3142     1.0  0.44656  0.98096  0.58751  1.0000
  Fe  Fe384     1.0  0.56128  0.99218  0.58585  1.0000
  H   H3143     1.0  0.49759  0.97306  0.67204  1.0000
  C   C1964     1.0  0.48634  0.94269  0.73133  1.0000
  Fe  Fe385     1.0  0.44445  0.98368  0.71400  1.0000
  S   S775      1.0  0.46044  0.97004  0.71835  1.0000
  Fe  Fe386     1.0  0.51896  0.96040  0.67943  1.0000
  C   C1965     1.0  0.45440  0.98298  0.58894  1.0000
  S   S776      1.0  0.40187  0.99304  0.51740  1.0000
  S   S777      1.0  0.48524  0.94585  0.67877  1.0000
  Fe  Fe387     1.0  0.39359  0.98689  0.53653  1.0000
  C   C1966     1.0  0.51505  0.95998  0.73109  1.0000
  H   H3144     1.0  0.51093  0.98975  0.72437  1.0000
  H   H3145     1.0  0.49241  0.98100  0.68999  1.0000
  S   S778      1.0  0.43135  0.97253  0.72412  1.0000
  H   H3146     1.0  0.58238  0.96620  0.59138  1.0000
  H   H3147     1.0  0.48415  0.93861  0.64480  1.0000
  S   S779      1.0  0.64619  0.96878  0.52839  1.0000
  Fe  Fe388     1.0  0.51893  0.93822  0.69861  1.0000
  H   H3148     1.0  0.57783  0.94139  0.59797  1.0000
  S   S780      1.0  0.51763  0.93141  0.71811  1.0000
  Fe  Fe389     1.0  0.52952  0.93666  0.67303  1.0000
  C   C1967     1.0  0.35152  0.95120  0.49449  1.0000
  S   S781      1.0  0.54475  0.92683  0.66143  1.0000
  S   S782      1.0  0.58387  0.99163  0.65823  1.0000
  H   H3149     1.0  0.52569  0.98101  0.73591  1.0000
  H   H3150     1.0  0.58888  0.93951  0.57208  1.0000
  S   S783      1.0  0.53354  0.94543  0.68503  1.0000
  S   S784      1.0  0.51618  0.92791  0.68711  1.0000
  S   S785      1.0  0.44514  0.97827  0.62171  1.0000
  C   C1968     1.0  0.34426  0.93534  0.50929  1.0000
  Fe  Fe390     1.0  0.50325  0.94437  0.68119  1.0000
  C   C1969     1.0  0.57954  0.99275  0.63706  1.0000
  C   C1970     1.0  0.52594  0.97227  0.73437  1.0000
  C   C1971     1.0  0.55178  0.93562  0.64881  1.0000
  C   C1972     1.0  0.56354  0.93124  0.64366  1.0000
  C   C1973     1.0  0.56948  0.93812  0.63373  1.0000
  H   H3151     1.0  0.61030  0.97998  0.72304  1.0000
  H   H3152     1.0  0.56809  0.92253  0.64745  1.0000
  H   H3153     1.0  0.57861  0.93470  0.62988  1.0000
  C   C1974     1.0  0.56364  0.94937  0.62879  1.0000
  Fe  Fe391     1.0  0.63652  0.98665  0.53184  1.0000
  S   S786      1.0  0.45327  0.94014  0.72970  1.0000
  Fe  Fe392     1.0  0.64410  0.97628  0.50976  1.0000
  C   C1975     1.0  0.51060  0.98095  0.72349  1.0000
  S   S787      1.0  0.57140  0.95775  0.61640  1.0000
  H   H3154     1.0  0.47685  0.97038  0.64588  1.0000
  C   C1976     1.0  0.46153  0.93995  0.71534  1.0000
  C   C1977     1.0  0.45699  0.94763  0.70588  1.0000
  Fe  Fe393     1.0  0.46101  0.98611  0.61713  1.0000
  C   C1978     1.0  0.47596  0.94289  0.69267  1.0000
  C   C1979     1.0  0.48049  0.93511  0.70211  1.0000
  C   C1980     1.0  0.47318  0.93343  0.71341  1.0000
  H   H3155     1.0  0.48114  0.96732  0.68846  1.0000
  S   S788      1.0  0.55509  0.93804  0.74155  1.0000
  H   H3156     1.0  0.48964  0.93041  0.70071  1.0000
  H   H3157     1.0  0.47670  0.92748  0.72072  1.0000
  H   H3158     1.0  0.55205  0.97722  0.73291  1.0000
  H   H3159     1.0  0.49057  0.93526  0.72669  1.0000
  H   H3160     1.0  0.47136  0.97223  0.67852  1.0000
  H   H3161     1.0  0.51805  0.95265  0.73822  1.0000
  C   C1981     1.0  0.46261  0.98644  0.56805  1.0000
  C   C1982     1.0  0.48597  0.98844  0.68588  1.0000
  H   H3162     1.0  0.33877  0.95980  0.57244  1.0000
  C   C1983     1.0  0.52962  0.97218  0.69417  1.0000
  S   S789      1.0  0.65316  0.99327  0.52739  1.0000
  H   H3163     1.0  0.35278  0.92888  0.50737  1.0000
  C   C1984     1.0  0.52891  0.92729  0.73585  1.0000
  H   H3164     1.0  0.53988  0.96580  0.70747  1.0000
  H   H3165     1.0  0.46254  0.97013  0.65549  1.0000
  Fe  Fe394     1.0  0.37310  0.99153  0.55708  1.0000
  H   H3166     1.0  0.55620  0.96431  0.72675  1.0000
  H   H3167     1.0  0.58498  0.96664  0.56575  1.0000
  S   S790      1.0  0.37504  0.98458  0.54117  1.0000
  C   C1985     1.0  0.60473  0.98662  0.56621  1.0000
  S   S791      1.0  0.44468  0.99482  0.69565  1.0000
  N   N194      1.0  0.56976  0.96716  0.73324  1.0000
  C   C1986     1.0  0.57827  0.96221  0.57246  1.0000
  H   H3168     1.0  0.44799  0.95269  0.70739  1.0000
  S   S792      1.0  0.51625  0.95230  0.66617  1.0000
  C   C1987     1.0  0.43904  0.97892  0.66790  1.0000
  H   H3169     1.0  0.47878  0.99166  0.69308  1.0000
  C   C1988     1.0  0.60205  0.98497  0.72731  1.0000
  H   H3170     1.0  0.55426  0.98633  0.65079  1.0000
  C   C1989     1.0  0.44019  0.97721  0.68813  1.0000
  C   C1990     1.0  0.43844  0.97245  0.67953  1.0000
  N   N195      1.0  0.55908  0.96923  0.66180  1.0000
  C   C1991     1.0  0.46648  0.95702  0.63947  1.0000
  H   H3171     1.0  0.43953  0.97224  0.69710  1.0000
  H   H3172     1.0  0.43651  0.96377  0.68193  1.0000
  H   H3173     1.0  0.58861  0.98611  0.57919  1.0000
  C   C1992     1.0  0.39445  0.97603  0.51196  1.0000
  S   S793      1.0  0.57811  0.98724  0.69093  1.0000
  S   S794      1.0  0.63284  0.99373  0.51364  1.0000
  C   C1993     1.0  0.46412  0.94890  0.69450  1.0000
  C   C1994     1.0  0.55721  0.96793  0.73385  1.0000
  H   H3174     1.0  0.38881  0.97519  0.52067  1.0000
  C   C1995     1.0  0.33751  0.99242  0.54320  1.0000
  C   C1996     1.0  0.59246  0.98801  0.56996  1.0000
  C   C1997     1.0  0.59268  0.94404  0.57649  1.0000
  C   C1998     1.0  0.36370  0.95082  0.55270  1.0000
  C   C1999     1.0  0.35626  0.95649  0.56157  1.0000
  C   C2000     1.0  0.34439  0.95576  0.56530  1.0000
  H   H3175     1.0  0.57023  0.98343  0.72039  1.0000
  C   C2001     1.0  0.34711  0.94431  0.55083  1.0000
  C   C2002     1.0  0.35913  0.94469  0.54735  1.0000
  H   H3176     1.0  0.35974  0.96115  0.56579  1.0000
  C   C2003     1.0  0.59898  0.98321  0.73964  1.0000
  H   H3177     1.0  0.34361  0.93959  0.54670  1.0000
  H   H3178     1.0  0.36489  0.94025  0.54051  1.0000
  S   S795      1.0  0.54708  0.98581  0.70902  1.0000
  H   H3179     1.0  0.57535  0.95060  0.72774  1.0000
  H   H3180     1.0  0.61016  0.98382  0.57265  1.0000
  H   H3181     1.0  0.46905  0.97779  0.56905  1.0000
  C   C2004     1.0  0.48996  0.98285  0.60851  1.0000
  C   C2005     1.0  0.57051  0.96634  0.65353  1.0000
  H   H3182     1.0  0.46763  0.97801  0.69151  1.0000
  C   C2006     1.0  0.61003  0.98883  0.55419  1.0000
  S   S796      1.0  0.64120  0.96317  0.50136  1.0000
  S   S797      1.0  0.66112  0.98211  0.50363  1.0000
  C   C2007     1.0  0.41310  0.98035  0.58223  1.0000
  C   C2008     1.0  0.41823  0.97484  0.59203  1.0000
  C   C2009     1.0  0.42195  0.98143  0.59772  1.0000
  H   H3183     1.0  0.35161  0.95586  0.50120  1.0000
  H   H3184     1.0  0.45137  0.98675  0.59694  1.0000
  H   H3185     1.0  0.52896  0.96549  0.74183  1.0000
  H   H3186     1.0  0.41925  0.96541  0.59530  1.0000
  H   H3187     1.0  0.42577  0.97708  0.60531  1.0000
  C   C2010     1.0  0.40873  0.98533  0.49665  1.0000
  H   H3188     1.0  0.45518  0.95192  0.66222  1.0000
  H   H3189     1.0  0.59687  0.93721  0.58329  1.0000
  C   C2011     1.0  0.54614  0.93982  0.72247  1.0000
  C   C2012     1.0  0.53779  0.93841  0.71719  1.0000
  C   C2013     1.0  0.52905  0.93227  0.72394  1.0000
  C   C2014     1.0  0.48384  0.94693  0.64724  1.0000
  C   C2015     1.0  0.55484  0.98218  0.66009  1.0000
  H   H3190     1.0  0.55274  0.94476  0.71731  1.0000
  H   H3191     1.0  0.53797  0.94228  0.70801  1.0000
  C   C2016     1.0  0.58899  0.95901  0.58754  1.0000
  N   N196      1.0  0.48124  0.98477  0.67777  1.0000
  H   H3192     1.0  0.57417  0.95824  0.56780  1.0000
  Fe  Fe395     1.0  0.56095  0.97554  0.60942  1.0000
  C   C2017     1.0  0.54571  0.93513  0.73450  1.0000
  C   C2018     1.0  0.33218  0.98626  0.57537  1.0000
  H   H3193     1.0  0.33718  0.93024  0.51283  1.0000
  H   H3194     1.0  0.49587  0.98776  0.66326  1.0000
  H   H3195     1.0  0.34506  0.97972  0.52643  1.0000
  H   H3196     1.0  0.54894  0.96778  0.65047  1.0000
  H   H3197     1.0  0.38969  0.98404  0.59823  1.0000
  H   H3198     1.0  0.59624  0.96293  0.58121  1.0000
  H   H3199     1.0  0.38895  0.96258  0.50761  1.0000
  H   H3200     1.0  0.50414  0.96924  0.60193  1.0000
  H   H3201     1.0  0.54594  0.98464  0.66577  1.0000
  N   N197      1.0  0.34212  0.94447  0.49866  1.0000
  H   H3202     1.0  0.57732  0.96997  0.65507  1.0000
  H   H3203     1.0  0.56368  0.95447  0.67567  1.0000
  C   C2019     1.0  0.40215  0.96947  0.49342  1.0000
  H   H3204     1.0  0.56972  0.97002  0.64421  1.0000
  H   H3205     1.0  0.55215  0.96632  0.68047  1.0000
  H   H3206     1.0  0.33169  0.97715  0.57901  1.0000
  C   C2020     1.0  0.53642  0.97338  0.70120  1.0000
  S   S798      1.0  0.54784  0.98841  0.61949  1.0000
  C   C2021     1.0  0.47165  0.96478  0.65321  1.0000
  C   C2022     1.0  0.50187  0.97737  0.60498  1.0000
  S   S799      1.0  0.51898  0.97960  0.67551  1.0000
  H   H3207     1.0  0.56613  0.98150  0.74192  1.0000
  H   H3208     1.0  0.54721  0.96236  0.62988  1.0000
  H   H3209     1.0  0.52745  0.96383  0.69544  1.0000
  H   H3210     1.0  0.45463  0.98501  0.56625  1.0000
  C   C2023     1.0  0.48709  0.99335  0.61242  1.0000
  H   H3211     1.0  0.46641  0.94903  0.63666  1.0000
  S   S800      1.0  0.62540  0.98760  0.55016  1.0000
  Fe  Fe396     1.0  0.45694  0.97749  0.73425  1.0000
  C   C2024     1.0  0.57424  0.94794  0.59061  1.0000
  H   H3212     1.0  0.33395  0.97110  0.53205  1.0000
  H   H3213     1.0  0.58511  0.98397  0.63760  1.0000
  H   H3214     1.0  0.50639  0.95918  0.73032  1.0000
  C   C2025     1.0  0.33881  0.97628  0.53450  1.0000
  N   N198      1.0  0.47160  0.95388  0.64995  1.0000
  H   H3215     1.0  0.50155  0.98119  0.72290  1.0000
  H   H3216     1.0  0.34324  0.98641  0.54917  1.0000
  H   H3217     1.0  0.45719  0.96213  0.64129  1.0000
  H   H3218     1.0  0.57126  0.96927  0.57617  1.0000
  S   S801      1.0  0.55060  0.97855  0.59569  1.0000
  H   H3219     1.0  0.48946  0.95201  0.63979  1.0000
  H   H3220     1.0  0.46408  0.93862  0.65769  1.0000
  Fe  Fe397     1.0  0.44726  0.95939  0.72949  1.0000
  C   C2026     1.0  0.53863  0.98438  0.70016  1.0000
  C   C2027     1.0  0.47510  0.97516  0.68435  1.0000
  S   S802      1.0  0.57217  0.98841  0.59917  1.0000
  H   H3221     1.0  0.47297  0.98891  0.71781  1.0000
  C   C2028     1.0  0.40167  0.98417  0.50810  1.0000
  C   C2029     1.0  0.53717  0.92875  0.74112  1.0000
  Fe  Fe398     1.0  0.44118  0.98405  0.63886  1.0000
  H   H3222     1.0  0.52145  0.95858  0.72272  1.0000
  N   N199      1.0  0.41269  0.94100  0.52556  1.0000
  C   C2030     1.0  0.41121  0.93821  0.53850  1.0000
  C   C2031     1.0  0.40132  0.94202  0.52265  1.0000
  C   C2032     1.0  0.42168  0.93150  0.52054  1.0000
  C   C2033     1.0  0.41650  0.95228  0.52053  1.0000
  H   H3223     1.0  0.41953  0.93761  0.54108  1.0000
  H   H3224     1.0  0.40838  0.92973  0.54260  1.0000
  H   H3225     1.0  0.40429  0.94512  0.54254  1.0000
  H   H3226     1.0  0.39786  0.93388  0.52678  1.0000
  H   H3227     1.0  0.56715  0.96791  0.67597  1.0000
  H   H3228     1.0  0.40220  0.94366  0.51296  1.0000
  H   H3229     1.0  0.43036  0.93043  0.52263  1.0000
  H   H3230     1.0  0.42302  0.93343  0.51077  1.0000
  H   H3231     1.0  0.41902  0.92288  0.52405  1.0000
  H   H3232     1.0  0.41004  0.95960  0.52432  1.0000
  H   H3233     1.0  0.41736  0.95486  0.51081  1.0000
  H   H3234     1.0  0.42515  0.95181  0.52235  1.0000
  C   C2034     1.0  0.42056  0.99364  0.59365  1.0000
  H   H3235     1.0  0.59269  0.95265  0.59492  1.0000
  H   H3236     1.0  0.46058  0.95492  0.68723  1.0000
  H   H3237     1.0  0.39446  0.94943  0.52591  1.0000
  C   C2035     1.0  0.52570  0.98173  0.68556  1.0000
  N   N200      1.0  0.51428  0.97159  0.73335  1.0000
  H   H3238     1.0  0.47766  0.94692  0.72887  1.0000
  H   H3239     1.0  0.57000  0.94340  0.58665  1.0000
  H   H3240     1.0  0.59980  0.94783  0.56976  1.0000
  C   C2036     1.0  0.57490  0.97398  0.72172  1.0000
  C   C2037     1.0  0.55182  0.95374  0.63378  1.0000
  H   H3241     1.0  0.53677  0.95023  0.64762  1.0000
  H   H3242     1.0  0.52238  0.92230  0.74107  1.0000
  H   H3243     1.0  0.48801  0.94444  0.65495  1.0000
  H   H3244     1.0  0.55327  0.95436  0.66076  1.0000
  H   H3245     1.0  0.47708  0.98475  0.58208  1.0000
  C   C2038     1.0  0.53417  0.99413  0.69200  1.0000
  H   H3246     1.0  0.47154  0.96252  0.63188  1.0000
  S   S803      1.0  0.50473  0.95394  0.69389  1.0000
  H   H3247     1.0  0.56716  0.95471  0.59469  1.0000
  C   C2039     1.0  0.54590  0.94688  0.64384  1.0000
  N   N201      1.0  0.58354  0.95329  0.58177  1.0000
  H   H3248     1.0  0.46807  0.94426  0.66791  1.0000
  H   H3249     1.0  0.35115  0.98264  0.57256  1.0000
  H   H3250     1.0  0.49205  0.94919  0.72771  1.0000
  C   C2040     1.0  0.34317  0.98938  0.57178  1.0000
  C   C2041     1.0  0.51087  0.98238  0.60548  1.0000
  H   H3251     1.0  0.52005  0.97813  0.60280  1.0000
  C   C2042     1.0  0.38346  0.99226  0.60053  1.0000
  H   H3252     1.0  0.38774  0.99217  0.57756  1.0000
  H   H3253     1.0  0.55305  0.96278  0.74234  1.0000
  C   C2043     1.0  0.47711  0.99069  0.73333  1.0000
  H   H3254     1.0  0.37408  0.98019  0.59151  1.0000
  C   C2044     1.0  0.44262  0.98844  0.68511  1.0000
  H   H3255     1.0  0.48786  0.97782  0.66204  1.0000
  H   H3256     1.0  0.41425  0.99169  0.49355  1.0000
  H   H3257     1.0  0.37880  0.98999  0.60989  1.0000
  C   C2045     1.0  0.44156  0.99011  0.66491  1.0000
  C   C2046     1.0  0.36819  0.98860  0.59362  1.0000
  H   H3258     1.0  0.36276  0.98645  0.60268  1.0000
  S   S804      1.0  0.45799  0.99001  0.63484  1.0000
  H   H3259     1.0  0.36208  0.99198  0.58743  1.0000
  C   C2047     1.0  0.41188  0.99253  0.57806  1.0000
  S   S805      1.0  0.56980  0.99416  0.56641  1.0000
  C   C2048     1.0  0.59062  0.99390  0.54970  1.0000
  H   H3260     1.0  0.60701  0.99410  0.53660  1.0000
  H   H3261     1.0  0.57547  0.99311  0.62078  1.0000
  H   H3262     1.0  0.46659  0.99249  0.56015  1.0000
  C   C2049     1.0  0.58532  0.99184  0.56176  1.0000
  N   N202      1.0  0.45957  0.99134  0.57871  1.0000
  Fe  Fe399     1.0  0.53827  0.99275  0.60485  1.0000
  C   C2050     1.0  0.50793  0.99288  0.60948  1.0000
  S   S806      1.0  0.44244  0.99241  0.72882  1.0000
  H   H3263     1.0  0.66289  0.94197  0.51543  1.0000
  C   C2051     1.0  0.59447  0.99316  0.72052  1.0000
  C   C2052     1.0  0.47754  0.99324  0.72126  1.0000
  H   H3264     1.0  0.46917  0.99256  0.66619  1.0000
  Fe  Fe400     1.0  0.58957  0.69630  0.95661  1.0000
  S   S807      1.0  0.57063  0.70497  0.95648  1.0000
  S   S808      1.0  0.60315  0.70717  0.94803  1.0000
  Fe  Fe401     1.0  0.58420  0.67205  0.96831  1.0000
  S   S809      1.0  0.56491  0.67893  0.96871  1.0000
  H   H3265     1.0  0.53695  0.92489  0.75035  1.0000
  Fe  Fe402     1.0  0.57068  0.68906  0.95046  1.0000
  S   S810      1.0  0.56384  0.69116  0.93444  1.0000
  Fe  Fe403     1.0  0.56713  0.69382  0.97464  1.0000
  H   H3266     1.0  0.53107  0.73201  0.96463  1.0000
  S   S811      1.0  0.58988  0.68091  0.94947  1.0000
  S   S812      1.0  0.58615  0.68655  0.97538  1.0000
  S   S813      1.0  0.50018  0.95360  0.85301  1.0000
  C   C2053     1.0  0.47230  0.94250  0.78575  1.0000
  Fe  Fe404     1.0  0.50586  0.68674  0.97276  1.0000
  S   S814      1.0  0.48684  0.69269  0.97182  1.0000
  H   H3267     1.0  0.47581  0.92685  0.75828  1.0000
  Fe  Fe405     1.0  0.51145  0.67086  0.95591  1.0000
  S   S815      1.0  0.49284  0.67493  0.95377  1.0000
  S   S816      1.0  0.47965  0.98489  0.80858  1.0000
  Fe  Fe406     1.0  0.49341  0.69356  0.95256  1.0000
  S   S817      1.0  0.48700  0.70752  0.93794  1.0000
  Fe  Fe407     1.0  0.48799  0.67356  0.97330  1.0000
  C   C2054     1.0  0.45916  0.98749  0.85661  1.0000
  S   S818      1.0  0.51233  0.68970  0.95334  1.0000
  S   S819      1.0  0.50669  0.66747  0.97567  1.0000
  Fe  Fe408     1.0  0.50775  0.77381  0.96265  1.0000
  H   H3268     1.0  0.50290  0.93838  0.74368  1.0000
  S   S820      1.0  0.51947  0.78682  0.95598  1.0000
  Fe  Fe409     1.0  0.49453  0.76078  0.95452  1.0000
  S   S821      1.0  0.48664  0.75218  0.97284  1.0000
  S   S822      1.0  0.49096  0.75842  0.93826  1.0000
  Fe  Fe410     1.0  0.48374  0.76989  0.97690  1.0000
  H   H3269     1.0  0.60483  0.97685  0.74487  1.0000
  Fe  Fe411     1.0  0.50474  0.74932  0.97587  1.0000
  S   S823      1.0  0.55366  0.69928  0.99004  1.0000
  S   S824      1.0  0.48995  0.77889  0.95826  1.0000
  S   S825      1.0  0.51298  0.75644  0.95716  1.0000
  H   H3270     1.0  0.59461  0.72085  0.98281  1.0000
  Fe  Fe412     1.0  0.44077  0.98759  0.80074  1.0000
  H   H3271     1.0  0.47698  0.93882  0.82387  1.0000
  Fe  Fe413     1.0  0.57758  0.76484  0.96476  1.0000
  S   S826      1.0  0.58417  0.75010  0.97884  1.0000
  S   S827      1.0  0.58359  0.76182  0.94638  1.0000
  H   H3272     1.0  0.52771  0.91190  0.82655  1.0000
  H   H3273     1.0  0.46501  0.83435  0.95742  1.0000
  H   H3274     1.0  0.48033  0.97703  0.86182  1.0000
  H   H3275     1.0  0.48531  0.97685  0.78699  1.0000
  S   S828      1.0  0.55858  0.76757  0.97417  1.0000
  S   S829      1.0  0.58100  0.77930  0.97087  1.0000
  S   S830      1.0  0.52290  0.94019  0.86512  1.0000
  H   H3276     1.0  0.54875  0.97811  0.77628  1.0000
  S   S831      1.0  0.49779  0.93139  0.87600  1.0000
  C   C2055     1.0  0.51264  0.68909  0.92330  1.0000
  Fe  Fe414     1.0  0.51006  0.93763  0.88253  1.0000
  S   S832      1.0  0.51852  0.92682  0.89774  1.0000
  Fe  Fe415     1.0  0.51009  0.93504  0.85844  1.0000
  S   S833      1.0  0.51672  0.92152  0.84724  1.0000
  H   H3277     1.0  0.48672  0.92654  0.94663  1.0000
  Fe  Fe416     1.0  0.52766  0.85393  0.95388  1.0000
  S   S834      1.0  0.51351  0.85220  0.94629  1.0000
  S   S835      1.0  0.54624  0.84334  0.94977  1.0000
  Fe  Fe417     1.0  0.51042  0.86901  0.97049  1.0000
  S   S836      1.0  0.49479  0.86822  0.96455  1.0000
  C   C2056     1.0  0.48205  0.81461  0.95648  1.0000
  Fe  Fe418     1.0  0.50342  0.84910  0.96503  1.0000
  S   S837      1.0  0.49468  0.83385  0.97433  1.0000
  Fe  Fe419     1.0  0.50636  0.87148  0.94635  1.0000
  S   S838      1.0  0.49750  0.88406  0.93211  1.0000
  S   S839      1.0  0.51799  0.84972  0.97260  1.0000
  S   S840      1.0  0.52152  0.87357  0.95231  1.0000
  H   H3278     1.0  0.50346  0.94166  0.83133  1.0000
  C   C2057     1.0  0.51432  0.98761  0.85469  1.0000
  S   S841      1.0  0.43668  0.96214  0.84180  1.0000
  C   C2058     1.0  0.49591  0.93831  0.83101  1.0000
  C   C2059     1.0  0.46596  0.80492  0.96647  1.0000
  H   H3279     1.0  0.48439  0.90260  0.97367  1.0000
  H   H3280     1.0  0.56221  0.98454  0.79724  1.0000
  H   H3281     1.0  0.50632  0.93230  0.80370  1.0000
  H   H3282     1.0  0.57957  0.70902  0.90882  1.0000
  S   S842      1.0  0.43598  0.97003  0.80781  1.0000
  Fe  Fe420     1.0  0.52329  0.93431  0.77856  1.0000
  H   H3283     1.0  0.54069  0.91936  0.80765  1.0000
  S   S843      1.0  0.41496  0.98763  0.75229  1.0000
  S   S844      1.0  0.55056  0.94002  0.79966  1.0000
  H   H3284     1.0  0.54361  0.75304  0.98195  1.0000
  C   C2060     1.0  0.47696  0.93027  0.74860  1.0000
  H   H3285     1.0  0.52047  0.66711  0.91961  1.0000
  S   S845      1.0  0.54266  0.92636  0.77692  1.0000
  Fe  Fe421     1.0  0.45443  0.96323  0.79844  1.0000
  H   H3286     1.0  0.46527  0.80328  0.95811  1.0000
  H   H3287     1.0  0.48991  0.91533  0.78394  1.0000
  S   S846      1.0  0.52081  0.97360  0.85137  1.0000
  H   H3288     1.0  0.46223  0.81838  0.98208  1.0000
  H   H3289     1.0  0.52196  0.66989  0.99160  1.0000
  C   C2061     1.0  0.47083  0.99473  0.83759  1.0000
  H   H3290     1.0  0.51655  0.72553  0.95086  1.0000
  H   H3291     1.0  0.48261  0.99440  0.74715  1.0000
  H   H3292     1.0  0.57468  0.97954  0.78618  1.0000
  H   H3293     1.0  0.47209  0.79707  0.97046  1.0000
  C   C2062     1.0  0.56672  0.96147  0.78445  1.0000
  H   H3294     1.0  0.48042  0.92258  0.74427  1.0000
  C   C2063     1.0  0.48741  0.92463  0.78408  1.0000
  H   H3295     1.0  0.40762  0.95219  0.79359  1.0000
  H   H3296     1.0  0.48562  0.95519  0.74691  1.0000
  H   H3297     1.0  0.50644  0.89699  0.94626  1.0000
  H   H3298     1.0  0.48435  0.93546  0.80966  1.0000
  H   H3299     1.0  0.47955  0.97303  0.84892  1.0000
  C   C2064     1.0  0.47097  0.81752  0.97581  1.0000
  H   H3300     1.0  0.49660  0.97275  0.74396  1.0000
  H   H3301     1.0  0.54523  0.72633  0.95614  1.0000
  H   H3302     1.0  0.49062  0.68587  0.92786  1.0000
  S   S847      1.0  0.52005  0.97835  0.76225  1.0000
  C   C2065     1.0  0.52662  0.92635  0.83428  1.0000
  C   C2066     1.0  0.53030  0.93677  0.83266  1.0000
  C   C2067     1.0  0.53794  0.94076  0.82214  1.0000
  C   C2068     1.0  0.54163  0.93455  0.81307  1.0000
  C   C2069     1.0  0.53786  0.92418  0.81465  1.0000
  C   C2070     1.0  0.53054  0.91997  0.82534  1.0000
  H   H3303     1.0  0.52724  0.94181  0.83947  1.0000
  H   H3304     1.0  0.54076  0.94881  0.82095  1.0000
  H   H3305     1.0  0.49593  0.92928  0.75668  1.0000
  S   S848      1.0  0.45738  0.94957  0.78803  1.0000
  Fe  Fe422     1.0  0.54211  0.94120  0.78500  1.0000
  C   C2071     1.0  0.46584  0.95580  0.85506  1.0000
  C   C2072     1.0  0.45851  0.95731  0.84730  1.0000
  C   C2073     1.0  0.44619  0.96006  0.85120  1.0000
  H   H3306     1.0  0.56130  0.95780  0.78093  1.0000
  H   H3307     1.0  0.46123  0.82502  0.95043  1.0000
  H   H3308     1.0  0.47531  0.95358  0.85210  1.0000
  H   H3309     1.0  0.46237  0.95618  0.83840  1.0000
  S   S849      1.0  0.51053  0.92265  0.78331  1.0000
  N   N203      1.0  0.55969  0.97208  0.78899  1.0000
  C   C2074     1.0  0.51277  0.91476  0.90697  1.0000
  C   C2075     1.0  0.50159  0.91357  0.90707  1.0000
  C   C2076     1.0  0.49712  0.90398  0.91467  1.0000
  C   C2077     1.0  0.50382  0.89547  0.92217  1.0000
  C   C2078     1.0  0.51513  0.89649  0.92188  1.0000
  C   C2079     1.0  0.51954  0.90618  0.91438  1.0000
  H   H3310     1.0  0.49626  0.92018  0.90148  1.0000
  H   H3311     1.0  0.48837  0.90323  0.91484  1.0000
  H   H3312     1.0  0.52042  0.88990  0.92753  1.0000
  H   H3313     1.0  0.52821  0.90705  0.91434  1.0000
  H   H3314     1.0  0.52925  0.81172  0.97799  1.0000
  C   C2080     1.0  0.52407  0.99045  0.78849  1.0000
  H   H3315     1.0  0.47424  0.82559  0.97464  1.0000
  H   H3316     1.0  0.53241  0.84626  0.99046  1.0000
  S   S850      1.0  0.45877  0.98094  0.79044  1.0000
  H   H3317     1.0  0.55017  0.98943  0.78240  1.0000
  C   C2081     1.0  0.53775  0.66786  0.94166  1.0000
  H   H3318     1.0  0.50462  0.98210  0.74617  1.0000
  H   H3319     1.0  0.44464  0.96142  0.87931  1.0000
  H   H3320     1.0  0.55295  0.96200  0.80597  1.0000
  C   C2082     1.0  0.54803  0.80835  0.97645  1.0000
  C   C2083     1.0  0.53726  0.81486  0.97368  1.0000
  C   C2084     1.0  0.53684  0.82530  0.96504  1.0000
  C   C2085     1.0  0.54709  0.82956  0.95954  1.0000
  C   C2086     1.0  0.55792  0.82292  0.96215  1.0000
  C   C2087     1.0  0.55842  0.81222  0.97052  1.0000
  H   H3321     1.0  0.52635  0.75034  0.97691  1.0000
  H   H3322     1.0  0.52857  0.83002  0.96260  1.0000
  H   H3323     1.0  0.56588  0.82615  0.95782  1.0000
  H   H3324     1.0  0.56678  0.80715  0.97260  1.0000
  H   H3325     1.0  0.51060  0.69890  0.92059  1.0000
  C   C2088     1.0  0.43009  0.98743  0.76563  1.0000
  H   H3326     1.0  0.41964  0.94045  0.79770  1.0000
  S   S851      1.0  0.54630  0.95363  0.76767  1.0000
  H   H3327     1.0  0.48612  0.78814  0.98575  1.0000
  C   C2089     1.0  0.49279  0.94257  0.78373  1.0000
  S   S852      1.0  0.58462  0.98795  0.76053  1.0000
  H   H3328     1.0  0.47864  0.94594  0.75972  1.0000
  Fe  Fe423     1.0  0.56541  0.75392  0.98876  1.0000
  H   H3329     1.0  0.50859  0.68687  0.93281  1.0000
  N   N204      1.0  0.47055  0.99075  0.85034  1.0000
  H   H3330     1.0  0.49814  0.98309  0.86555  1.0000
  Fe  Fe424     1.0  0.58623  0.76458  0.98570  1.0000
  H   H3331     1.0  0.54352  0.66758  0.92320  1.0000
  H   H3332     1.0  0.43188  0.70264  0.97394  1.0000
  H   H3333     1.0  0.49780  0.71886  0.98119  1.0000
  C   C2090     1.0  0.51311  0.79977  0.96139  1.0000
  C   C2091     1.0  0.50650  0.79935  0.97293  1.0000
  C   C2092     1.0  0.50115  0.80984  0.97701  1.0000
  C   C2093     1.0  0.50240  0.82076  0.96955  1.0000
  C   C2094     1.0  0.50917  0.82112  0.95808  1.0000
  C   C2095     1.0  0.51447  0.81067  0.95401  1.0000
  H   H3334     1.0  0.50554  0.79094  0.97867  1.0000
  H   H3335     1.0  0.50744  0.66627  0.91574  1.0000
  H   H3336     1.0  0.50995  0.82947  0.95217  1.0000
  H   H3337     1.0  0.51926  0.81111  0.94498  1.0000
  C   C2096     1.0  0.48817  0.72153  0.93838  1.0000
  C   C2097     1.0  0.48595  0.73095  0.92897  1.0000
  C   C2098     1.0  0.48688  0.74221  0.92904  1.0000
  C   C2099     1.0  0.48992  0.74415  0.93856  1.0000
  C   C2100     1.0  0.49212  0.73473  0.94803  1.0000
  C   C2101     1.0  0.49132  0.72338  0.94791  1.0000
  H   H3338     1.0  0.48349  0.72957  0.92161  1.0000
  H   H3339     1.0  0.48516  0.74947  0.92172  1.0000
  H   H3340     1.0  0.49439  0.73620  0.95545  1.0000
  H   H3341     1.0  0.49298  0.71614  0.95525  1.0000
  H   H3342     1.0  0.45716  0.80532  0.97262  1.0000
  H   H3343     1.0  0.47906  0.92289  0.96172  1.0000
  H   H3344     1.0  0.53939  0.83246  0.98609  1.0000
  H   H3345     1.0  0.49414  0.92417  0.95830  1.0000
  N   N205      1.0  0.47023  0.81578  0.96445  1.0000
  H   H3346     1.0  0.52436  0.98719  0.79769  1.0000
  S   S853      1.0  0.47304  0.66648  0.98639  1.0000
  C   C2102     1.0  0.48089  0.94851  0.78504  1.0000
  H   H3347     1.0  0.49700  0.92901  0.83609  1.0000
  S   S854      1.0  0.51141  0.69494  0.98403  1.0000
  C   C2103     1.0  0.46198  0.82603  0.95904  1.0000
  H   H3348     1.0  0.56672  0.96720  0.75158  1.0000
  N   N206      1.0  0.44401  0.69688  0.98544  1.0000
  Fe  Fe425     1.0  0.54472  0.93962  0.75978  1.0000
  H   H3349     1.0  0.43661  0.98143  0.76068  1.0000
  H   H3350     1.0  0.57013  0.95432  0.79153  1.0000
  H   H3351     1.0  0.53538  0.70340  0.94846  1.0000
  H   H3352     1.0  0.50291  0.91176  0.93794  1.0000
  H   H3353     1.0  0.54442  0.97682  0.80243  1.0000
  Fe  Fe426     1.0  0.52679  0.95940  0.76975  1.0000
  C   C2104     1.0  0.55408  0.68188  0.93730  1.0000
  C   C2105     1.0  0.54736  0.67885  0.94866  1.0000
  C   C2106     1.0  0.53919  0.67189  0.95084  1.0000
  C   C2107     1.0  0.55499  0.98112  0.77942  1.0000
  C   C2108     1.0  0.49251  0.71318  0.98765  1.0000
  C   C2109     1.0  0.55274  0.67775  0.92812  1.0000
  H   H3354     1.0  0.54809  0.68224  0.95572  1.0000
  H   H3355     1.0  0.49605  0.89183  0.96722  1.0000
  H   H3356     1.0  0.47712  0.80995  0.98013  1.0000
  H   H3357     1.0  0.55793  0.68008  0.91931  1.0000
  C   C2110     1.0  0.59763  0.72228  0.94793  1.0000
  C   C2111     1.0  0.60345  0.73047  0.93946  1.0000
  C   C2112     1.0  0.59892  0.74260  0.93883  1.0000
  C   C2113     1.0  0.58880  0.74660  0.94695  1.0000
  C   C2114     1.0  0.58302  0.73841  0.95554  1.0000
  C   C2115     1.0  0.58737  0.72626  0.95594  1.0000
  H   H3358     1.0  0.61149  0.72745  0.93337  1.0000
  H   H3359     1.0  0.60348  0.74888  0.93228  1.0000
  H   H3360     1.0  0.57515  0.74147  0.96180  1.0000
  H   H3361     1.0  0.58289  0.71999  0.96257  1.0000
  H   H3362     1.0  0.53381  0.66982  0.95960  1.0000
  C   C2116     1.0  0.52557  0.73398  0.98964  1.0000
  C   C2117     1.0  0.53816  0.71162  0.94784  1.0000
  H   H3363     1.0  0.48570  0.82252  0.95498  1.0000
  H   H3364     1.0  0.48770  0.94352  0.83573  1.0000
  Fe  Fe427     1.0  0.51194  0.95857  0.86135  1.0000
  C   C2118     1.0  0.54976  0.96902  0.79869  1.0000
  H   H3365     1.0  0.54787  0.70927  0.94707  1.0000
  S   S855      1.0  0.52253  0.94830  0.78784  1.0000
  H   H3366     1.0  0.57445  0.70968  0.98435  1.0000
  C   C2119     1.0  0.49599  0.93055  0.78357  1.0000
  H   H3367     1.0  0.50677  0.66803  0.93018  1.0000
  C   C2120     1.0  0.49294  0.90142  0.96715  1.0000
  H   H3368     1.0  0.58330  0.72321  0.90306  1.0000
  H   H3369     1.0  0.48182  0.81346  0.94774  1.0000
  H   H3370     1.0  0.47416  0.90650  0.95702  1.0000
  Fe  Fe428     1.0  0.44424  0.96852  0.82273  1.0000
  C   C2121     1.0  0.48542  0.93437  0.81877  1.0000
  H   H3371     1.0  0.52946  0.99471  0.84466  1.0000
  H   H3372     1.0  0.48568  0.89501  0.95156  1.0000
  N   N207      1.0  0.53189  0.71691  0.95816  1.0000
  C   C2122     1.0  0.51904  0.71952  0.95900  1.0000
  C   C2123     1.0  0.53556  0.72795  0.95686  1.0000
  S   S856      1.0  0.46229  0.96002  0.81403  1.0000
  C   C2124     1.0  0.53481  0.70855  0.96895  1.0000
  H   H3373     1.0  0.51585  0.71133  0.96050  1.0000
  C   C2125     1.0  0.44855  0.96015  0.87042  1.0000
  H   H3374     1.0  0.51405  0.72385  0.96647  1.0000
  C   C2126     1.0  0.48315  0.90466  0.95132  1.0000
  H   H3375     1.0  0.45297  0.82717  0.96483  1.0000
  S   S857      1.0  0.50126  0.76621  0.98172  1.0000
  S   S858      1.0  0.50031  0.95667  0.87948  1.0000
  H   H3376     1.0  0.52036  0.97465  0.78676  1.0000
  H   H3377     1.0  0.49299  0.95268  0.80325  1.0000
  H   H3378     1.0  0.52963  0.71190  0.97702  1.0000
  H   H3379     1.0  0.54430  0.70699  0.96898  1.0000
  H   H3380     1.0  0.53291  0.69984  0.96984  1.0000
  N   N208      1.0  0.53626  0.90298  0.87454  1.0000
  C   C2127     1.0  0.52324  0.90621  0.87778  1.0000
  C   C2128     1.0  0.54027  0.89001  0.87752  1.0000
  C   C2129     1.0  0.54116  0.90838  0.88114  1.0000
  C   C2130     1.0  0.54032  0.90735  0.86175  1.0000
  H   H3381     1.0  0.52002  0.91592  0.87620  1.0000
  H   H3382     1.0  0.51979  0.90270  0.88728  1.0000
  H   H3383     1.0  0.51915  0.90290  0.87251  1.0000
  H   H3384     1.0  0.53661  0.88570  0.87276  1.0000
  H   H3385     1.0  0.55006  0.88724  0.87515  1.0000
  H   H3386     1.0  0.53736  0.88648  0.88713  1.0000
  H   H3387     1.0  0.55098  0.90603  0.87908  1.0000
  H   H3388     1.0  0.53800  0.90554  0.89082  1.0000
  H   H3389     1.0  0.53838  0.91819  0.87900  1.0000
  H   H3390     1.0  0.55011  0.90518  0.85896  1.0000
  H   H3391     1.0  0.53730  0.91711  0.85919  1.0000
  H   H3392     1.0  0.53673  0.90352  0.85649  1.0000
  N   N209      1.0  0.50797  0.68369  0.91654  1.0000
  C   C2131     1.0  0.49502  0.68810  0.91838  1.0000
  C   C2132     1.0  0.51344  0.68686  0.90390  1.0000
  C   C2133     1.0  0.51077  0.67071  0.92065  1.0000
  C   C2134     1.0  0.54467  0.67062  0.93033  1.0000
  H   H3393     1.0  0.49258  0.69790  0.91561  1.0000
  H   H3394     1.0  0.49113  0.68428  0.91339  1.0000
  H   H3395     1.0  0.52322  0.68369  0.90226  1.0000
  H   H3396     1.0  0.51012  0.68293  0.89852  1.0000
  H   H3397     1.0  0.51149  0.69661  0.90058  1.0000
  H   H3398     1.0  0.45754  0.98077  0.85292  1.0000
  S   S859      1.0  0.44527  0.96562  0.74575  1.0000
  C   C2135     1.0  0.54004  0.74546  0.98660  1.0000
  C   C2136     1.0  0.44121  0.70233  0.97374  1.0000
  H   H3399     1.0  0.44696  0.69727  0.96701  1.0000
  H   H3400     1.0  0.56217  0.98329  0.77173  1.0000
  Fe  Fe429     1.0  0.48912  0.95054  0.87136  1.0000
  C   C2137     1.0  0.48687  0.98564  0.78499  1.0000
  C   C2138     1.0  0.47559  0.93064  0.78499  1.0000
  S   S860      1.0  0.46950  0.95736  0.87606  1.0000
  C   C2139     1.0  0.53024  0.74389  0.98373  1.0000
  N   N210      1.0  0.55323  0.79678  0.94299  1.0000
  C   C2140     1.0  0.54622  0.79452  0.95518  1.0000
  C   C2141     1.0  0.55704  0.80797  0.94052  1.0000
  C   C2142     1.0  0.54597  0.79758  0.93470  1.0000
  C   C2143     1.0  0.56370  0.78698  0.94162  1.0000
  H   H3401     1.0  0.54307  0.78622  0.95731  1.0000
  H   H3402     1.0  0.53830  0.80178  0.95663  1.0000
  H   H3403     1.0  0.55151  0.79364  0.96165  1.0000
  H   H3404     1.0  0.56217  0.81009  0.93132  1.0000
  H   H3405     1.0  0.54935  0.81553  0.94181  1.0000
  H   H3406     1.0  0.56276  0.80752  0.94648  1.0000
  H   H3407     1.0  0.55115  0.79869  0.92545  1.0000
  H   H3408     1.0  0.53830  0.80521  0.93513  1.0000
  H   H3409     1.0  0.54240  0.78951  0.93677  1.0000
  H   H3410     1.0  0.56930  0.78828  0.93255  1.0000
  H   H3411     1.0  0.56113  0.77839  0.94348  1.0000
  H   H3412     1.0  0.56939  0.78607  0.94777  1.0000
  H   H3413     1.0  0.53633  0.71777  0.93951  1.0000
  C   C2144     1.0  0.53155  0.66694  0.99157  1.0000
  H   H3414     1.0  0.54371  0.96566  0.79564  1.0000
  N   N211      1.0  0.49542  0.93912  0.81875  1.0000
  C   C2145     1.0  0.44126  0.96130  0.86281  1.0000
  S   S861      1.0  0.50915  0.87763  0.98518  1.0000
  C   C2146     1.0  0.48774  0.92107  0.95549  1.0000
  C   C2147     1.0  0.58852  0.98996  0.74514  1.0000
  C   C2148     1.0  0.50652  0.93214  0.81286  1.0000
  S   S862      1.0  0.52537  0.94621  0.76083  1.0000
  H   H3415     1.0  0.47836  0.95773  0.78546  1.0000
  H   H3416     1.0  0.49099  0.98712  0.76621  1.0000
  H   H3417     1.0  0.51423  0.93563  0.81245  1.0000
  S   S863      1.0  0.46691  0.77753  0.98860  1.0000
  H   H3418     1.0  0.48596  0.95728  0.81692  1.0000
  C   C2149     1.0  0.56731  0.97674  0.79339  1.0000
  Fe  Fe430     1.0  0.46459  0.97855  0.80715  1.0000
  N   N212      1.0  0.42436  0.95268  0.78149  1.0000
  C   C2150     1.0  0.43520  0.94430  0.77708  1.0000
  C   C2151     1.0  0.42742  0.96033  0.78729  1.0000
  C   C2152     1.0  0.41586  0.94608  0.79007  1.0000
  C   C2153     1.0  0.41900  0.96001  0.77155  1.0000
  H   H3419     1.0  0.44189  0.94903  0.77078  1.0000
  H   H3420     1.0  0.43333  0.93849  0.77244  1.0000
  H   H3421     1.0  0.43944  0.93859  0.78439  1.0000
  H   H3422     1.0  0.41963  0.96721  0.79023  1.0000
  H   H3423     1.0  0.43106  0.95508  0.79511  1.0000
  H   H3424     1.0  0.43431  0.96495  0.78126  1.0000
  H   H3425     1.0  0.41334  0.94023  0.78597  1.0000
  H   H3426     1.0  0.41091  0.96661  0.77447  1.0000
  H   H3427     1.0  0.41657  0.95459  0.76690  1.0000
  H   H3428     1.0  0.42520  0.96507  0.76495  1.0000
  N   N213      1.0  0.49179  0.90839  0.95524  1.0000
  H   H3429     1.0  0.46895  0.92599  0.78558  1.0000
  H   H3430     1.0  0.59383  0.71015  0.89950  1.0000
  C   C2154     1.0  0.49391  0.95161  0.81240  1.0000
  H   H3431     1.0  0.57128  0.96999  0.80037  1.0000
  C   C2155     1.0  0.46083  0.95744  0.86657  1.0000
  H   H3432     1.0  0.51025  0.90869  0.94982  1.0000
  H   H3433     1.0  0.48259  0.90919  0.94207  1.0000
  C   C2156     1.0  0.52167  0.98748  0.77037  1.0000
  N   N214      1.0  0.59155  0.71223  0.91713  1.0000
  C   C2157     1.0  0.60119  0.71855  0.91399  1.0000
  C   C2158     1.0  0.58198  0.71705  0.92636  1.0000
  C   C2159     1.0  0.59614  0.69954  0.92157  1.0000
  C   C2160     1.0  0.58686  0.71374  0.90664  1.0000
  H   H3434     1.0  0.59800  0.72821  0.91094  1.0000
  H   H3435     1.0  0.60850  0.71529  0.90691  1.0000
  H   H3436     1.0  0.58525  0.71613  0.93435  1.0000
  H   H3437     1.0  0.57827  0.72660  0.92333  1.0000
  H   H3438     1.0  0.57462  0.71235  0.92907  1.0000
  H   H3439     1.0  0.58905  0.69450  0.92425  1.0000
  H   H3440     1.0  0.59991  0.69811  0.92939  1.0000
  H   H3441     1.0  0.60329  0.69555  0.91481  1.0000
  H   H3442     1.0  0.43177  0.96335  0.86589  1.0000
  H   H3443     1.0  0.49944  0.94722  0.78312  1.0000
  C   C2161     1.0  0.52189  0.98333  0.78231  1.0000
  H   H3444     1.0  0.60504  0.71728  0.92173  1.0000
  H   H3445     1.0  0.53330  0.73458  0.94893  1.0000
  H   H3446     1.0  0.49947  0.90388  0.97041  1.0000
  H   H3447     1.0  0.57297  0.72463  0.98521  1.0000
  H   H3448     1.0  0.59606  0.70588  0.98207  1.0000
  H   H3449     1.0  0.50816  0.92273  0.81758  1.0000
  C   C2162     1.0  0.50336  0.90640  0.94697  1.0000
  H   H3450     1.0  0.57442  0.96348  0.77726  1.0000
  H   H3451     1.0  0.50160  0.95525  0.81179  1.0000
  H   H3452     1.0  0.49595  0.80955  0.98590  1.0000
  Fe  Fe431     1.0  0.56264  0.78026  0.98205  1.0000
  H   H3453     1.0  0.48675  0.92477  0.82285  1.0000
  H   H3454     1.0  0.48843  0.80681  0.96018  1.0000
  H   H3455     1.0  0.43744  0.71305  0.99171  1.0000
  S   S864      1.0  0.44695  0.98695  0.81675  1.0000
  C   C2163     1.0  0.48032  0.98040  0.85228  1.0000
  C   C2164     1.0  0.47987  0.94874  0.74998  1.0000
  H   H3456     1.0  0.57274  0.94931  0.74327  1.0000
  H   H3457     1.0  0.53272  0.77908  0.99248  1.0000
  N   N215      1.0  0.48495  0.93855  0.74423  1.0000
  H   H3458     1.0  0.44255  0.71152  0.97069  1.0000
  H   H3459     1.0  0.53620  0.67275  0.98393  1.0000
  H   H3460     1.0  0.45895  0.98364  0.86614  1.0000
  C   C2165     1.0  0.41885  0.99196  0.76317  1.0000
  S   S865      1.0  0.51293  0.73232  0.98656  1.0000
  H   H3461     1.0  0.44160  0.98683  0.77654  1.0000
  C   C2166     1.0  0.49659  0.93246  0.74701  1.0000
  S   S866      1.0  0.54828  0.79543  0.98739  1.0000
  C   C2167     1.0  0.50291  0.99005  0.86161  1.0000
  C   C2168     1.0  0.43295  0.99054  0.77465  1.0000
  H   H3462     1.0  0.52237  0.68588  0.92233  1.0000
  C   C2169     1.0  0.49007  0.99143  0.77324  1.0000
  C   C2170     1.0  0.48558  0.99126  0.79409  1.0000
  C   C2171     1.0  0.57339  0.71544  0.99047  1.0000
  H   H3463     1.0  0.49557  0.85979  0.99195  1.0000
  H   H3464     1.0  0.50802  0.96658  0.75210  1.0000
  C   C2172     1.0  0.59444  0.71178  0.98826  1.0000
  H   H3465     1.0  0.46979  0.98765  0.83393  1.0000
  H   H3466     1.0  0.46805  0.93462  0.74673  1.0000
  H   H3467     1.0  0.46249  0.69158  0.97818  1.0000
  C   C2173     1.0  0.45645  0.69663  0.98477  1.0000
  C   C2174     1.0  0.44221  0.68468  0.98910  1.0000
  H   H3468     1.0  0.47663  0.72686  0.98866  1.0000
  H   H3469     1.0  0.47109  0.95355  0.74803  1.0000
  H   H3470     1.0  0.48909  0.98249  0.84776  1.0000
  H   H3471     1.0  0.43284  0.68452  0.99004  1.0000
  C   C2175     1.0  0.49746  0.70123  0.99136  1.0000
  H   H3472     1.0  0.44781  0.67923  0.98266  1.0000
  C   C2176     1.0  0.50549  0.97330  0.74436  1.0000
  H   H3473     1.0  0.45816  0.70567  0.98229  1.0000
  C   C2177     1.0  0.48049  0.71769  0.99181  1.0000
  S   S867      1.0  0.46987  0.97999  0.74278  1.0000
  H   H3474     1.0  0.58009  0.97137  0.74268  1.0000
  C   C2178     1.0  0.57070  0.97203  0.74278  1.0000
  H   H3475     1.0  0.50064  0.92469  0.74283  1.0000
  H   H3476     1.0  0.66485  0.02520  0.46582  1.0000
  C   C2179     1.0  0.75247  0.06440  0.37831  1.0000
  H   H3477     1.0  0.98566  0.18508  0.39004  1.0000
  S   S868      1.0  0.72318  0.06859  0.45751  1.0000
  H   H3478     1.0  0.77076  0.09034  0.47851  1.0000
  H   H3479     1.0  0.97803  0.23502  0.46683  1.0000
  Fe  Fe432     1.0  0.75810  0.02153  0.40309  1.0000
  S   S869      1.0  0.75193  0.03085  0.41795  1.0000
  S   S870      1.0  0.77740  0.01767  0.39449  1.0000
  Fe  Fe433     1.0  0.73301  0.02017  0.40343  1.0000
  S   S871      1.0  0.72490  0.02945  0.41844  1.0000
  H   H3480     1.0  0.94158  0.17148  0.47281  1.0000
  Fe  Fe434     1.0  0.73740  0.04140  0.40876  1.0000
  S   S872      1.0  0.73421  0.06103  0.40620  1.0000
  Fe  Fe435     1.0  0.74030  0.01801  0.42595  1.0000
  H   H3481     1.0  0.90011  0.07969  0.46997  1.0000
  S   S873      1.0  0.74442  0.03302  0.39312  1.0000
  H   H3482     1.0  0.88504  0.08425  0.46822  1.0000
  Fe  Fe436     1.0  0.82741  0.05934  0.42681  1.0000
  S   S874      1.0  0.81762  0.05325  0.44513  1.0000
  S   S875      1.0  0.84166  0.06917  0.42356  1.0000
  Fe  Fe437     1.0  0.81288  0.04992  0.41573  1.0000
  S   S876      1.0  0.80204  0.04299  0.43322  1.0000
  S   S877      1.0  0.81070  0.04773  0.39860  1.0000
  Fe  Fe438     1.0  0.80153  0.06005  0.43741  1.0000
  S   S878      1.0  0.78438  0.07113  0.44508  1.0000
  Fe  Fe439     1.0  0.81929  0.03695  0.43889  1.0000
  S   S879      1.0  0.82638  0.01901  0.44867  1.0000
  S   S880      1.0  0.81112  0.06758  0.41945  1.0000
  S   S881      1.0  0.83029  0.04247  0.42106  1.0000
  H   H3483     1.0  0.77178  0.07234  0.36531  1.0000
  H   H3484     1.0  0.88785  0.06993  0.45022  1.0000
  H   H3485     1.0  0.74708  0.05760  0.38197  1.0000
  H   H3486     1.0  0.89282  0.06919  0.46897  1.0000
  C   C2180     1.0  0.81342  0.00693  0.47615  1.0000
  Fe  Fe440     1.0  0.87370  0.05429  0.47568  1.0000
  H   H3487     1.0  0.82959  0.02804  0.38827  1.0000
  S   S882      1.0  0.86307  0.07009  0.46532  1.0000
  H   H3488     1.0  0.81317  0.06787  0.46445  1.0000
  C   C2181     1.0  0.88930  0.07909  0.44711  1.0000
  S   S883      1.0  0.91497  0.05401  0.47590  1.0000
  Fe  Fe441     1.0  0.88684  0.02861  0.47839  1.0000
  C   C2182     1.0  0.95767  0.15727  0.45512  1.0000
  H   H3489     1.0  0.90289  0.09505  0.43854  1.0000
  H   H3490     1.0  0.79525  0.05679  0.48325  1.0000
  S   S884      1.0  0.89143  0.04537  0.46667  1.0000
  S   S885      1.0  0.98844  0.19661  0.45049  1.0000
  S   S886      1.0  0.98058  0.17739  0.44123  1.0000
  C   C2183     1.0  0.94189  0.16007  0.44529  1.0000
  C   C2184     1.0  0.89380  0.07844  0.46549  1.0000
  S   S887      1.0  0.96431  0.20418  0.44025  1.0000
  C   C2185     1.0  0.94915  0.16480  0.44902  1.0000
  H   H3491     1.0  0.93972  0.07883  0.47844  1.0000
  H   H3492     1.0  0.83328  0.07725  0.48298  1.0000
  H   H3493     1.0  0.84080  0.00162  0.46666  1.0000
  Fe  Fe442     1.0  0.96206  0.18580  0.44884  1.0000
  S   S888      1.0  0.86845  0.03747  0.48623  1.0000
  H   H3494     1.0  0.96260  0.25016  0.41806  1.0000
  H   H3495     1.0  0.97909  0.30417  0.48101  1.0000
  H   H3496     1.0  0.96867  0.23000  0.43797  1.0000
  C   C2186     1.0  0.92865  0.06802  0.47741  1.0000
  H   H3497     1.0  0.77758  0.00547  0.44213  1.0000
  H   H3498     1.0  0.93374  0.06633  0.46891  1.0000
  C   C2187     1.0  0.81998  0.06471  0.46984  1.0000
  H   H3499     1.0  0.81764  0.00124  0.46959  1.0000
  H   H3500     1.0  0.93947  0.14590  0.47779  1.0000
  Fe  Fe443     1.0  0.98332  0.19583  0.43443  1.0000
  C   C2188     1.0  0.84879  0.01860  0.47027  1.0000
  H   H3501     1.0  0.71431  0.01556  0.45079  1.0000
  H   H3502     1.0  0.81212  0.08777  0.48347  1.0000
  H   H3503     1.0  0.98224  0.23269  0.43858  1.0000
  H   H3504     1.0  0.78733  0.99906  0.48838  1.0000
  C   C2189     1.0  0.78376  0.07196  0.45940  1.0000
  C   C2190     1.0  0.79042  0.06291  0.46646  1.0000
  C   C2191     1.0  0.78997  0.06373  0.47789  1.0000
  C   C2192     1.0  0.78287  0.07360  0.48224  1.0000
  C   C2193     1.0  0.77621  0.08266  0.47518  1.0000
  C   C2194     1.0  0.77655  0.08177  0.46380  1.0000
  H   H3505     1.0  0.79584  0.05522  0.46316  1.0000
  S   S889      1.0  0.73205  0.01988  0.48917  1.0000
  H   H3506     1.0  0.80715  0.01845  0.43915  1.0000
  H   H3507     1.0  0.77142  0.08880  0.45831  1.0000
  C   C2195     1.0  0.84809  0.06852  0.43517  1.0000
  C   C2196     1.0  0.85250  0.07817  0.43479  1.0000
  C   C2197     1.0  0.85737  0.07833  0.44394  1.0000
  C   C2198     1.0  0.85830  0.06866  0.45341  1.0000
  C   C2199     1.0  0.85426  0.05875  0.45370  1.0000
  C   C2200     1.0  0.84898  0.05877  0.44465  1.0000
  H   H3508     1.0  0.85188  0.08570  0.42749  1.0000
  H   H3509     1.0  0.86031  0.08606  0.44371  1.0000
  H   H3510     1.0  0.85490  0.05126  0.46103  1.0000
  H   H3511     1.0  0.84572  0.05122  0.44492  1.0000
  Fe  Fe444     1.0  0.96920  0.20364  0.45687  1.0000
  H   H3512     1.0  0.98974  0.23106  0.48193  1.0000
  C   C2201     1.0  0.95872  0.14499  0.45768  1.0000
  H   H3513     1.0  0.78651  0.01534  0.46935  1.0000
  C   C2202     1.0  0.78635  0.02599  0.39626  1.0000
  C   C2203     1.0  0.78510  0.02904  0.40699  1.0000
  C   C2204     1.0  0.79266  0.03556  0.40797  1.0000
  C   C2205     1.0  0.80116  0.03934  0.39813  1.0000
  C   C2206     1.0  0.80228  0.03631  0.38746  1.0000
  C   C2207     1.0  0.79513  0.02943  0.38662  1.0000
  H   H3514     1.0  0.77852  0.02617  0.41456  1.0000
  H   H3515     1.0  0.79191  0.03768  0.41627  1.0000
  H   H3516     1.0  0.80887  0.03914  0.37984  1.0000
  H   H3517     1.0  0.79626  0.02694  0.37837  1.0000
  C   C2208     1.0  0.83120  0.07002  0.48044  1.0000
  C   C2209     1.0  0.69005  0.01845  0.41651  1.0000
  C   C2210     1.0  0.70154  0.01962  0.41045  1.0000
  H   H3518     1.0  0.92633  0.17746  0.47848  1.0000
  S   S890      1.0  0.73082  0.03339  0.46209  1.0000
  H   H3519     1.0  0.96942  0.20104  0.48111  1.0000
  H   H3520     1.0  0.68554  0.02299  0.42362  1.0000
  H   H3521     1.0  0.70577  0.02497  0.41300  1.0000
  H   H3522     1.0  0.83914  0.99743  0.41447  1.0000
  C   C2211     1.0  0.82069  0.01154  0.40534  1.0000
  C   C2212     1.0  0.72370  0.06794  0.44311  1.0000
  C   C2213     1.0  0.72154  0.05803  0.44107  1.0000
  C   C2214     1.0  0.72429  0.05620  0.42963  1.0000
  C   C2215     1.0  0.72889  0.06444  0.42014  1.0000
  C   C2216     1.0  0.73021  0.07485  0.42206  1.0000
  C   C2217     1.0  0.72760  0.07661  0.43359  1.0000
  H   H3523     1.0  0.71785  0.05169  0.44833  1.0000
  H   H3524     1.0  0.72294  0.04831  0.42822  1.0000
  H   H3525     1.0  0.73367  0.08131  0.41471  1.0000
  H   H3526     1.0  0.72908  0.08441  0.43515  1.0000
  H   H3527     1.0  0.74798  0.07173  0.38304  1.0000
  S   S891      1.0  0.95884  0.09520  0.47827  1.0000
  H   H3528     1.0  0.84167  0.02125  0.47778  1.0000
  C   C2218     1.0  0.76476  0.05510  0.39246  1.0000
  H   H3529     1.0  0.81699  0.05794  0.47761  1.0000
  H   H3530     1.0  0.96450  0.18073  0.42503  1.0000
  C   C2219     1.0  0.68448  0.01132  0.41352  1.0000
  S   S892      1.0  0.74758  0.00766  0.41179  1.0000
  H   H3531     1.0  0.82843  0.06363  0.48868  1.0000
  H   H3532     1.0  0.81651  0.01732  0.41183  1.0000
  C   C2220     1.0  0.70798  0.99953  0.45510  1.0000
  H   H3533     1.0  0.75516  0.01444  0.49120  1.0000
  H   H3534     1.0  0.81940  0.00247  0.40977  1.0000
  C   C2221     1.0  0.97281  0.21835  0.47310  1.0000
  C   C2222     1.0  0.67315  0.00182  0.47082  1.0000
  C   C2223     1.0  0.76070  0.00633  0.48890  1.0000
  H   H3535     1.0  0.74915  0.08406  0.48784  1.0000
  H   H3536     1.0  0.99509  0.22322  0.39767  1.0000
  H   H3537     1.0  0.97146  0.19304  0.41901  1.0000
  C   C2224     1.0  0.96038  0.28610  0.48602  1.0000
  H   H3538     1.0  0.81637  0.01538  0.47255  1.0000
  H   H3539     1.0  0.97165  0.19515  0.39339  1.0000
  C   C2225     1.0  0.97936  0.18948  0.39703  1.0000
  C   C2226     1.0  0.68552  0.02524  0.48262  1.0000
  H   H3540     1.0  0.79967  0.00647  0.46216  1.0000
  H   H3541     1.0  0.83386  0.00781  0.38423  1.0000
  C   C2227     1.0  0.89221  0.99883  0.48019  1.0000
  H   H3542     1.0  0.90627  0.09445  0.45226  1.0000
  S   S893      1.0  0.73978  0.00830  0.44453  1.0000
  C   C2228     1.0  0.70171  0.00714  0.39787  1.0000
  H   H3543     1.0  0.84405  0.02428  0.39139  1.0000
  H   H3544     1.0  0.98852  0.30768  0.44948  1.0000
  H   H3545     1.0  0.99273  0.16878  0.40576  1.0000
  N   N216      1.0  0.66716  0.00866  0.46115  1.0000
  H   H3546     1.0  0.81907  0.08706  0.45743  1.0000
  H   H3547     1.0  0.79795  0.02618  0.48192  1.0000
  H   H3548     1.0  0.68207  0.00313  0.44770  1.0000
  H   H3549     1.0  0.97585  0.16803  0.39831  1.0000
  N   N217      1.0  0.97900  0.32047  0.48502  1.0000
  C   C2229     1.0  0.94314  0.14785  0.44758  1.0000
  C   C2230     1.0  0.85859  0.00250  0.48358  1.0000
  H   H3550     1.0  0.78935  0.99806  0.42375  1.0000
  H   H3551     1.0  0.88054  0.08509  0.44941  1.0000
  C   C2231     1.0  0.67332  0.02588  0.48656  1.0000
  C   C2232     1.0  0.82394  0.00837  0.44293  1.0000
  C   C2233     1.0  0.70752  0.01378  0.40126  1.0000
  H   H3552     1.0  0.96524  0.13915  0.46244  1.0000
  H   H3553     1.0  0.70981  0.99662  0.42051  1.0000
  Fe  Fe445     1.0  0.89799  0.04723  0.48161  1.0000
  S   S894      1.0  0.95256  0.12506  0.45672  1.0000
  C   C2234     1.0  0.81372  0.01035  0.43874  1.0000
  H   H3554     1.0  0.84485  0.02131  0.46237  1.0000
  H   H3555     1.0  0.95834  0.24503  0.45053  1.0000
  C   C2235     1.0  0.81092  0.08028  0.48061  1.0000
  C   C2236     1.0  0.83836  0.00431  0.39174  1.0000
  H   H3556     1.0  0.86033  0.00527  0.45445  1.0000
  H   H3557     1.0  0.96687  0.16640  0.41302  1.0000
  H   H3558     1.0  0.89127  0.09945  0.45055  1.0000
  H   H3559     1.0  0.95926  0.19246  0.41372  1.0000
  N   N218      1.0  0.85391  0.00577  0.47279  1.0000
  C   C2237     1.0  0.95143  0.14029  0.45391  1.0000
  H   H3560     1.0  0.89216  0.08075  0.43735  1.0000
  C   C2238     1.0  0.79513  0.01772  0.48626  1.0000
  H   H3561     1.0  0.99080  0.17915  0.41461  1.0000
  H   H3562     1.0  0.77606  0.99976  0.41899  1.0000
  N   N219      1.0  0.89806  0.08074  0.45257  1.0000
  H   H3563     1.0  0.67181  0.01627  0.44268  1.0000
  C   C2239     1.0  0.97511  0.23570  0.43357  1.0000
  C   C2240     1.0  0.96224  0.27994  0.47715  1.0000
  H   H3564     1.0  0.82787  0.09073  0.46512  1.0000
  C   C2241     1.0  0.69350  0.01470  0.48591  1.0000
  H   H3565     1.0  0.84916  0.00704  0.40734  1.0000
  C   C2242     1.0  0.97815  0.25557  0.42664  1.0000
  H   H3566     1.0  0.96329  0.16090  0.45805  1.0000
  S   S895      1.0  0.96468  0.22078  0.46253  1.0000
  H   H3567     1.0  0.91618  0.07320  0.45374  1.0000
  H   H3568     1.0  0.67916  0.00660  0.47211  1.0000
  S   S896      1.0  0.99250  0.20253  0.41588  1.0000
  H   H3569     1.0  0.95504  0.26111  0.42674  1.0000
  C   C2243     1.0  0.95951  0.25164  0.42721  1.0000
  H   H3570     1.0  0.74831  0.05476  0.43155  1.0000
  H   H3571     1.0  0.73310  0.00183  0.47264  1.0000
  N   N220      1.0  0.97569  0.18076  0.40777  1.0000
  H   H3572     1.0  0.97768  0.31681  0.46908  1.0000
  C   C2244     1.0  0.97859  0.22681  0.47328  1.0000
  H   H3573     1.0  0.90850  0.06309  0.45258  1.0000
  N   N221      1.0  0.96944  0.24831  0.43318  1.0000
  H   H3574     1.0  0.97424  0.26514  0.42622  1.0000
  C   C2245     1.0  0.96982  0.17299  0.40501  1.0000
  H   H3575     1.0  0.91305  0.07394  0.43982  1.0000
  N   N222      1.0  0.76475  0.05951  0.37980  1.0000
  H   H3576     1.0  0.96086  0.25977  0.44542  1.0000
  H   H3577     1.0  0.98378  0.16687  0.42045  1.0000
  C   C2246     1.0  0.90945  0.07242  0.44949  1.0000
  H   H3578     1.0  0.75208  0.06786  0.36888  1.0000
  S   S897      1.0  0.97446  0.26327  0.46421  1.0000
  S   S898      1.0  0.76254  0.01829  0.46612  1.0000
  H   H3579     1.0  0.81699  0.00250  0.48415  1.0000
  C   C2247     1.0  0.84469  0.99924  0.47455  1.0000
  S   S899      1.0  0.67037  0.00939  0.42185  1.0000
  C   C2248     1.0  0.76598  0.00592  0.47714  1.0000
  H   H3580     1.0  0.76028  0.06217  0.39751  1.0000
  N   N223      1.0  0.80045  0.00889  0.47881  1.0000
  H   H3581     1.0  0.96135  0.32775  0.48229  1.0000
  C   C2249     1.0  0.97274  0.27155  0.47469  1.0000
  C   C2250     1.0  0.89969  0.09298  0.44827  1.0000
  C   C2251     1.0  0.82590  0.08330  0.46281  1.0000
  N   N224      1.0  0.82200  0.07457  0.47344  1.0000
  H   H3582     1.0  0.78531  0.01965  0.48813  1.0000
  H   H3583     1.0  0.98936  0.26268  0.47953  1.0000
  H   H3584     1.0  0.98180  0.25425  0.41745  1.0000
  H   H3585     1.0  0.68875  0.03270  0.47663  1.0000
  H   H3586     1.0  0.93528  0.16586  0.44061  1.0000
  C   C2252     1.0  0.98512  0.22462  0.48187  1.0000
  H   H3587     1.0  0.73625  0.07070  0.48905  1.0000
  H   H3588     1.0  0.93754  0.14422  0.44461  1.0000
  H   H3589     1.0  0.97908  0.23394  0.42459  1.0000
  Fe  Fe446     1.0  0.74415  0.02790  0.47319  1.0000
  S   S900      1.0  0.96540  0.18576  0.46618  1.0000
  H   H3590     1.0  0.79942  0.02131  0.46239  1.0000
  H   H3591     1.0  0.75996  0.04785  0.39638  1.0000
  H   H3592     1.0  0.70616  0.00279  0.39061  1.0000
  C   C2253     1.0  0.91875  0.06305  0.48297  1.0000
  S   S901      1.0  0.94699  0.18016  0.44640  1.0000
  H   H3593     1.0  0.98576  0.25323  0.43091  1.0000
  H   H3594     1.0  0.83582  0.01188  0.41753  1.0000
  N   N225      1.0  0.76129  0.05503  0.44043  1.0000
  C   C2254     1.0  0.76976  0.05757  0.42911  1.0000
  C   C2255     1.0  0.76768  0.04699  0.44940  1.0000
  C   C2256     1.0  0.75264  0.04938  0.43888  1.0000
  C   C2257     1.0  0.75504  0.06616  0.44435  1.0000
  H   H3595     1.0  0.77442  0.04939  0.42581  1.0000
  H   H3596     1.0  0.77655  0.06165  0.43000  1.0000
  H   H3597     1.0  0.76522  0.06382  0.42225  1.0000
  H   H3598     1.0  0.77418  0.05101  0.45092  1.0000
  H   H3599     1.0  0.76149  0.04477  0.45798  1.0000
  H   H3600     1.0  0.77255  0.03851  0.44671  1.0000
  Fe  Fe447     1.0  0.95450  0.11499  0.47489  1.0000
  H   H3601     1.0  0.74552  0.04835  0.44693  1.0000
  H   H3602     1.0  0.75682  0.04046  0.43697  1.0000
  H   H3603     1.0  0.74862  0.06457  0.45290  1.0000
  H   H3604     1.0  0.75001  0.07237  0.43786  1.0000
  H   H3605     1.0  0.76126  0.07076  0.44550  1.0000
  H   H3606     1.0  0.82819  0.06022  0.46441  1.0000
  S   S902      1.0  0.88797  0.01280  0.47128  1.0000
  Fe  Fe448     1.0  0.98433  0.17870  0.45783  1.0000
  H   H3607     1.0  0.72498  0.99770  0.41714  1.0000
  H   H3608     1.0  0.95277  0.24632  0.43199  1.0000
  H   H3609     1.0  0.93036  0.16649  0.46976  1.0000
  H   H3610     1.0  0.97225  0.24773  0.45008  1.0000
  H   H3611     1.0  0.77002  0.05255  0.36409  1.0000
  H   H3612     1.0  0.77389  0.05162  0.39393  1.0000
  C   C2258     1.0  0.77154  0.06884  0.37488  1.0000
  H   H3613     1.0  0.95552  0.28165  0.47222  1.0000
  C   C2259     1.0  0.77025  0.04968  0.37359  1.0000
  H   H3614     1.0  0.78084  0.06546  0.37594  1.0000
  C   C2260     1.0  0.96499  0.25032  0.44531  1.0000
  H   H3615     1.0  0.74710  0.99763  0.47666  1.0000
  H   H3616     1.0  0.83959  0.06539  0.47541  1.0000
  H   H3617     1.0  0.77963  0.04606  0.37420  1.0000
  H   H3618     1.0  0.76759  0.07639  0.37938  1.0000
  H   H3619     1.0  0.76566  0.04224  0.37743  1.0000
  H   H3620     1.0  0.75848  0.06435  0.48424  1.0000
  C   C2261     1.0  0.69032  0.00574  0.40411  1.0000
  S   S903      1.0  0.72261  0.01345  0.39476  1.0000
  C   C2262     1.0  0.98620  0.17356  0.41234  1.0000
  Fe  Fe449     1.0  0.71823  0.02688  0.47851  1.0000
  H   H3621     1.0  0.80375  0.08378  0.47563  1.0000
  Fe  Fe450     1.0  0.72559  0.05025  0.46866  1.0000
  C   C2263     1.0  0.71675  0.00613  0.45134  1.0000
  H   H3622     1.0  0.83403  0.07921  0.45704  1.0000
  C   C2264     1.0  0.93278  0.16922  0.47667  1.0000
  C   C2265     1.0  0.98139  0.26936  0.48112  1.0000
  H   H3623     1.0  0.68605  0.00037  0.40160  1.0000
  H   H3624     1.0  0.98386  0.19542  0.39891  1.0000
  C   C2266     1.0  0.96737  0.18703  0.41676  1.0000
  S   S904      1.0  0.74005  0.04519  0.47853  1.0000
  H   H3625     1.0  0.96185  0.17813  0.40152  1.0000
  H   H3626     1.0  0.95076  0.15071  0.48101  1.0000
  S   S905      1.0  0.71180  0.04421  0.48418  1.0000
  S   S906      1.0  0.70868  0.01292  0.47998  1.0000
  C   C2267     1.0  0.89732  0.99758  0.48960  1.0000
  H   H3627     1.0  0.69884  0.00388  0.45748  1.0000
  H   H3628     1.0  0.86534  0.00750  0.48266  1.0000
  C   C2268     1.0  0.77069  0.00120  0.44179  1.0000
  C   C2269     1.0  0.67606  0.01134  0.45020  1.0000
  Fe  Fe451     1.0  0.99333  0.25728  0.45504  1.0000
  C   C2270     1.0  0.83965  0.00678  0.41043  1.0000
  N   N226      1.0  0.83334  0.01163  0.40070  1.0000
  H   H3629     1.0  0.80767  0.07397  0.48870  1.0000
  H   H3630     1.0  0.66712  0.03388  0.48367  1.0000
  C   C2271     1.0  0.79701  0.99766  0.48518  1.0000
  H   H3631     1.0  0.66668  0.00009  0.47933  1.0000
  N   N227      1.0  0.93305  0.15980  0.48744  1.0000
  C   C2272     1.0  0.97372  0.20769  0.48131  1.0000
  H   H3632     1.0  0.83131  0.02950  0.40196  1.0000
  H   H3633     1.0  0.85560  0.02377  0.46862  1.0000
  C   C2273     1.0  0.98199  0.31259  0.47668  1.0000
  H   H3634     1.0  0.68159  0.01684  0.45114  1.0000
  C   C2274     1.0  0.79629  0.01321  0.46769  1.0000
  H   H3635     1.0  0.87076  0.00741  0.46130  1.0000
  C   C2275     1.0  0.83466  0.02387  0.39532  1.0000
  H   H3636     1.0  0.85147  0.00442  0.49137  1.0000
  C   C2276     1.0  0.86356  0.00275  0.46275  1.0000
  H   H3637     1.0  0.81572  0.01480  0.39819  1.0000
  H   H3638     1.0  0.80348  0.00281  0.43199  1.0000
  C   C2277     1.0  0.81163  0.00149  0.43468  1.0000
  C   C2278     1.0  0.93207  0.07509  0.48281  1.0000
  C   C2279     1.0  0.72866  0.00043  0.44874  1.0000
  H   H3639     1.0  0.83739  0.00119  0.48217  1.0000
  H   H3640     1.0  0.84794  0.00404  0.38815  1.0000
  S   S907      1.0  0.88040  0.05725  0.48995  1.0000
  H   H3641     1.0  0.76475  0.00784  0.43637  1.0000
  C   C2280     1.0  0.94170  0.14907  0.48453  1.0000
  H   H3642     1.0  0.76523  0.99925  0.45088  1.0000
  H   H3643     1.0  0.91844  0.15397  0.48591  1.0000
  S   S908      1.0  0.96728  0.11615  0.48461  1.0000
  H   H3644     1.0  0.95360  0.25789  0.48915  1.0000
  C   C2281     1.0  0.97940  0.27532  0.49019  1.0000
  H   H3645     1.0  0.99166  0.31041  0.47297  1.0000
  H   H3646     1.0  0.95221  0.29252  0.48794  1.0000
  C   C2282     1.0  0.83228  0.99776  0.44259  1.0000
  S   S909      1.0  0.93883  0.11617  0.49008  1.0000
  H   H3647     1.0  0.96499  0.06175  0.48818  1.0000
  H   H3648     1.0  0.89927  0.00514  0.49113  1.0000
  Fe  Fe452     1.0  0.97023  0.09643  0.48953  1.0000
  C   C2283     1.0  0.97983  0.20573  0.49011  1.0000
  C   C2284     1.0  0.77376  0.99558  0.47429  1.0000
  C   C2285     1.0  0.98529  0.21428  0.49059  1.0000
  H   H3649     1.0  0.97411  0.24660  0.48891  1.0000
  H   H3650     1.0  0.95877  0.23657  0.48932  1.0000
  H   H3651     1.0  0.97189  0.15423  0.49029  1.0000
  C   C2286     1.0  0.96608  0.32326  0.48956  1.0000
  H   H3652     1.0  0.84027  0.99623  0.44568  1.0000
  S   S910      1.0  0.98828  0.08460  0.48993  1.0000
  H   H3653     1.0  0.77801  0.99526  0.46523  1.0000
  H   H3654     1.0  0.83737  0.99505  0.39554  1.0000
  H   H3655     1.0  0.99470  0.31239  0.49178  1.0000
  C   C2287     1.0  0.92125  0.15707  0.49233  1.0000
  S   S911      1.0  0.89505  0.02948  0.49255  1.0000
  H   H3656     1.0  0.94198  0.14171  0.49242  1.0000
  H   H3657     1.0  0.88432  0.01206  0.52155  1.0000
  H   H3658     1.0  0.96274  0.31512  0.49419  1.0000
  H   H3659     1.0  0.68066  0.01637  0.51871  1.0000
  S   S912      1.0  0.72355  0.03936  0.51214  1.0000
  H   H3660     1.0  0.80097  0.02438  0.54881  1.0000
  H   H3661     1.0  0.69935  0.04339  0.51268  1.0000
  Fe  Fe453     1.0  0.97169  0.17855  0.51737  1.0000
  H   H3662     1.0  0.81875  0.99560  0.57176  1.0000
  S   S913      1.0  0.96798  0.17138  0.50384  1.0000
  Fe  Fe454     1.0  0.96681  0.19110  0.53747  1.0000
  S   S914      1.0  0.98562  0.19197  0.53441  1.0000
  S   S915      1.0  0.95440  0.20047  0.55128  1.0000
  Fe  Fe455     1.0  0.98478  0.19715  0.51547  1.0000
  C   C2288     1.0  0.99132  0.09809  0.50338  1.0000
  H   H3663     1.0  0.90465  0.06149  0.49836  1.0000
  C   C2289     1.0  0.69408  0.02408  0.52849  1.0000
  S   S916      1.0  0.96558  0.19762  0.51862  1.0000
  S   S917      1.0  0.97084  0.17184  0.53680  1.0000
  C   C2290     1.0  0.98479  0.20522  0.56566  1.0000
  S   S918      1.0  0.76880  0.02539  0.53350  1.0000
  S   S919      1.0  0.99092  0.17869  0.51273  1.0000
  H   H3664     1.0  0.97389  0.14155  0.53148  1.0000
  C   C2291     1.0  0.99177  0.12283  0.53222  1.0000
  H   H3665     1.0  0.91445  0.16495  0.49465  1.0000
  S   S920      1.0  0.80202  0.02580  0.52345  1.0000
  N   N228      1.0  0.99208  0.13449  0.52421  1.0000
  C   C2292     1.0  0.99049  0.31908  0.55408  1.0000
  S   S921      1.0  0.94780  0.12602  0.51436  1.0000
  C   C2293     1.0  0.67717  0.00580  0.49775  1.0000
  H   H3666     1.0  0.77413  0.99541  0.54642  1.0000
  H   H3667     1.0  0.77666  0.00738  0.52009  1.0000
  H   H3668     1.0  0.70195  0.01264  0.51034  1.0000
  H   H3669     1.0  0.97384  0.25178  0.50148  1.0000
  H   H3670     1.0  0.81039  0.00517  0.54286  1.0000
  H   H3671     1.0  0.67291  0.03022  0.52264  1.0000
  S   S922      1.0  0.95582  0.09591  0.50581  1.0000
  N   N229      1.0  0.87415  0.99924  0.52405  1.0000
  C   C2294     1.0  0.99630  0.29677  0.54846  1.0000
  H   H3672     1.0  0.99083  0.21374  0.54239  1.0000
  H   H3673     1.0  0.79784  0.01454  0.49485  1.0000
  C   C2295     1.0  0.82255  0.01327  0.55298  1.0000
  H   H3674     1.0  0.70032  0.02570  0.49909  1.0000
  H   H3675     1.0  0.97706  0.21066  0.56194  1.0000
  H   H3676     1.0  0.95240  0.04790  0.50052  1.0000
  C   C2296     1.0  0.96225  0.14109  0.50112  1.0000
  H   H3677     1.0  0.99179  0.22302  0.56879  1.0000
  C   C2297     1.0  0.82646  0.01145  0.50434  1.0000
  C   C2298     1.0  0.83675  0.03892  0.54010  1.0000
  C   C2299     1.0  0.69096  0.04122  0.51286  1.0000
  H   H3678     1.0  0.98559  0.19592  0.56527  1.0000
  H   H3679     1.0  0.86750  0.01491  0.51205  1.0000
  H   H3680     1.0  0.85463  0.03547  0.54211  1.0000
  Fe  Fe456     1.0  0.99128  0.27681  0.53484  1.0000
  H   H3681     1.0  0.68381  0.04607  0.51898  1.0000
  H   H3682     1.0  0.74849  0.03287  0.50133  1.0000
  Fe  Fe457     1.0  0.97639  0.25880  0.53895  1.0000
  S   S923      1.0  0.97913  0.25943  0.51976  1.0000
  S   S924      1.0  0.96605  0.24746  0.55393  1.0000
  C   C2300     1.0  0.86567  0.00318  0.53440  1.0000
  H   H3683     1.0  0.94817  0.04656  0.51625  1.0000
  Fe  Fe458     1.0  0.97631  0.27897  0.51772  1.0000
  H   H3684     1.0  0.99724  0.12782  0.50835  1.0000
  H   H3685     1.0  0.95401  0.05956  0.52536  1.0000
  S   S925      1.0  0.97184  0.27853  0.53716  1.0000
  C   C2301     1.0  0.70146  0.02229  0.50828  1.0000
  H   H3686     1.0  0.92123  0.14995  0.50046  1.0000
  Fe  Fe459     1.0  0.78325  0.03457  0.52289  1.0000
  H   H3687     1.0  0.98212  0.30617  0.49976  1.0000
  H   H3688     1.0  0.74119  0.08614  0.50235  1.0000
  S   S926      1.0  0.81913  0.02098  0.49361  1.0000
  H   H3689     1.0  0.94780  0.07230  0.51545  1.0000
  C   C2302     1.0  0.66914  0.01607  0.49397  1.0000
  H   H3690     1.0  0.81211  0.00951  0.57612  1.0000
  C   C2303     1.0  0.73653  0.06731  0.49853  1.0000
  H   H3691     1.0  0.98324  0.12035  0.53350  1.0000
  C   C2304     1.0  0.84676  0.03985  0.51614  1.0000
  H   H3692     1.0  0.97779  0.23627  0.50194  1.0000
  H   H3693     1.0  0.86886  0.99876  0.54264  1.0000
  C   C2305     1.0  0.83537  0.99721  0.52385  1.0000
  H   H3694     1.0  0.94535  0.16594  0.49282  1.0000
  C   C2306     1.0  0.83676  0.00884  0.51972  1.0000
  S   S927      1.0  0.78453  0.05147  0.52616  1.0000
  H   H3695     1.0  0.85694  0.00121  0.53557  1.0000
  H   H3696     1.0  0.97636  0.32310  0.54504  1.0000
  H   H3697     1.0  0.98429  0.14451  0.53776  1.0000
  C   C2307     1.0  0.95667  0.24136  0.51628  1.0000
  C   C2308     1.0  0.96652  0.15131  0.49886  1.0000
  C   C2309     1.0  0.68931  0.00505  0.49358  1.0000
  H   H3698     1.0  0.75594  0.06378  0.51551  1.0000
  Fe  Fe460     1.0  0.95201  0.11562  0.50023  1.0000
  N   N230      1.0  0.95928  0.24411  0.50327  1.0000
  H   H3699     1.0  0.69187  0.99919  0.52581  1.0000
  C   C2310     1.0  0.97181  0.24470  0.49870  1.0000
  H   H3700     1.0  0.86419  0.01287  0.53350  1.0000
  H   H3701     1.0  0.83293  0.03869  0.54935  1.0000
  H   H3702     1.0  0.68682  0.02821  0.53507  1.0000
  H   H3703     1.0  0.67406  0.99830  0.50370  1.0000
  H   H3704     1.0  0.98157  0.13197  0.51382  1.0000
  C   C2311     1.0  0.81016  0.00113  0.55233  1.0000
  Fe  Fe461     1.0  0.94399  0.09634  0.49420  1.0000
  C   C2312     1.0  0.98659  0.30525  0.54506  1.0000
  C   C2313     1.0  0.82512  0.99981  0.50841  1.0000
  H   H3705     1.0  0.69521  0.01435  0.53138  1.0000
  C   C2314     1.0  0.83227  0.01596  0.50999  1.0000
  C   C2315     1.0  0.95177  0.25561  0.49897  1.0000
  H   H3706     1.0  0.98153  0.30332  0.54003  1.0000
  N   N231      1.0  0.81133  0.00945  0.55861  1.0000
  H   H3707     1.0  0.76635  0.02805  0.50959  1.0000
  S   S928      1.0  0.81405  0.04313  0.53770  1.0000
  C   C2316     1.0  0.95595  0.06531  0.51647  1.0000
  H   H3708     1.0  0.69546  0.99690  0.49621  1.0000
  H   H3709     1.0  0.96262  0.22599  0.50208  1.0000
  C   C2317     1.0  0.80131  0.01981  0.55807  1.0000
  Fe  Fe462     1.0  0.87686  0.03948  0.49967  1.0000
  N   N232      1.0  0.99567  0.20938  0.55912  1.0000
  C   C2318     1.0  0.74877  0.08043  0.49741  1.0000
  H   H3710     1.0  0.70243  0.02608  0.52880  1.0000
  H   H3711     1.0  0.86110  0.00261  0.51394  1.0000
  H   H3712     1.0  0.91082  0.07369  0.50803  1.0000
  C   C2319     1.0  0.76287  0.99637  0.49780  1.0000
  Fe  Fe463     1.0  0.80574  0.03317  0.50408  1.0000
  H   H3713     1.0  0.93014  0.17187  0.49866  1.0000
  N   N233      1.0  0.69172  0.02836  0.51652  1.0000
  H   H3714     1.0  0.98598  0.27336  0.49533  1.0000
  H   H3715     1.0  0.80302  0.00030  0.57546  1.0000
  Fe  Fe464     1.0  0.80386  0.04324  0.52475  1.0000
  C   C2320     1.0  0.77472  0.99846  0.52363  1.0000
  C   C2321     1.0  0.95695  0.23476  0.49911  1.0000
  H   H3716     1.0  0.96221  0.23270  0.51968  1.0000
  C   C2322     1.0  0.95743  0.21392  0.55121  1.0000
  C   C2323     1.0  0.95184  0.21922  0.56084  1.0000
  C   C2324     1.0  0.95446  0.22959  0.56140  1.0000
  C   C2325     1.0  0.96256  0.23491  0.55225  1.0000
  C   C2326     1.0  0.96806  0.22977  0.54246  1.0000
  C   C2327     1.0  0.96553  0.21923  0.54197  1.0000
  H   H3717     1.0  0.94557  0.21519  0.56799  1.0000
  H   H3718     1.0  0.95019  0.23349  0.56900  1.0000
  H   H3719     1.0  0.97441  0.23378  0.53540  1.0000
  H   H3720     1.0  0.96983  0.21524  0.53446  1.0000
  C   C2328     1.0  0.81131  0.00349  0.57104  1.0000
  H   H3721     1.0  0.97349  0.04410  0.50183  1.0000
  C   C2329     1.0  0.99011  0.13434  0.51274  1.0000
  H   H3722     1.0  0.82894  0.04314  0.51420  1.0000
  Fe  Fe465     1.0  0.72674  0.03765  0.49352  1.0000
  H   H3723     1.0  0.71016  0.02342  0.50862  1.0000
  H   H3724     1.0  0.94728  0.24085  0.52009  1.0000
  H   H3725     1.0  0.82363  0.01985  0.55724  1.0000
  H   H3726     1.0  0.83306  0.02505  0.50702  1.0000
  H   H3727     1.0  0.95391  0.07335  0.49390  1.0000
  H   H3728     1.0  0.84101  0.01249  0.52421  1.0000
  N   N234      1.0  0.95964  0.05852  0.50710  1.0000
  C   C2330     1.0  0.86941  0.00513  0.51337  1.0000
  Fe  Fe466     1.0  0.78950  0.05656  0.50649  1.0000
  S   S929      1.0  0.96610  0.29069  0.50437  1.0000
  C   C2331     1.0  0.96364  0.15794  0.50752  1.0000
  C   C2332     1.0  0.95669  0.15419  0.51855  1.0000
  C   C2333     1.0  0.95226  0.14405  0.52074  1.0000
  C   C2334     1.0  0.95483  0.13762  0.51195  1.0000
  H   H3729     1.0  0.68916  0.04476  0.50387  1.0000
  C   C2335     1.0  0.98273  0.14364  0.52943  1.0000
  H   H3730     1.0  0.95431  0.15937  0.52521  1.0000
  H   H3731     1.0  0.94648  0.14141  0.52913  1.0000
  C   C2336     1.0  0.92569  0.07715  0.49390  1.0000
  H   H3732     1.0  0.75690  0.05152  0.49583  1.0000
  C   C2337     1.0  0.73630  0.03458  0.51789  1.0000
  C   C2338     1.0  0.73515  0.03365  0.52990  1.0000
  C   C2339     1.0  0.74519  0.03057  0.53462  1.0000
  C   C2340     1.0  0.75645  0.02880  0.52730  1.0000
  C   C2341     1.0  0.75766  0.02964  0.51525  1.0000
  C   C2342     1.0  0.74757  0.03233  0.51058  1.0000
  H   H3733     1.0  0.72647  0.03529  0.53560  1.0000
  H   H3734     1.0  0.74422  0.02978  0.54395  1.0000
  Fe  Fe467     1.0  0.98971  0.17339  0.53204  1.0000
  H   H3735     1.0  0.85053  0.04028  0.50690  1.0000
  H   H3736     1.0  0.83030  0.00568  0.55338  1.0000
  S   S930      1.0  0.78671  0.04021  0.50330  1.0000
  C   C2343     1.0  0.85406  0.03768  0.52400  1.0000
  H   H3737     1.0  0.94223  0.25555  0.50225  1.0000
  C   C2344     1.0  0.83447  0.04148  0.52030  1.0000
  C   C2345     1.0  0.95010  0.05283  0.50768  1.0000
  C   C2346     1.0  0.82943  0.04109  0.53226  1.0000
  C   C2347     1.0  0.98368  0.31642  0.54790  1.0000
  C   C2348     1.0  0.96886  0.28363  0.49269  1.0000
  S   S931      1.0  0.86950  0.03523  0.51920  1.0000
  H   H3738     1.0  0.82293  0.01750  0.54350  1.0000
  C   C2349     1.0  0.68044  0.02596  0.51637  1.0000
  C   C2350     1.0  0.91579  0.07220  0.49943  1.0000
  H   H3739     1.0  0.67843  0.02928  0.50744  1.0000
  C   C2351     1.0  0.84903  0.03711  0.53599  1.0000
  H   H3740     1.0  0.95846  0.24814  0.51977  1.0000
  H   H3741     1.0  0.80208  0.02644  0.56247  1.0000
  H   H3742     1.0  0.96293  0.06975  0.51628  1.0000
  S   S932      1.0  0.80894  0.05003  0.50528  1.0000
  H   H3743     1.0  0.74014  0.06873  0.51904  1.0000
  H   H3744     1.0  0.98029  0.19751  0.49646  1.0000
  H   H3745     1.0  0.96437  0.13616  0.49433  1.0000
  C   C2352     1.0  0.97050  0.04944  0.50872  1.0000
  H   H3746     1.0  0.98984  0.14314  0.50662  1.0000
  S   S933      1.0  0.99147  0.21224  0.50263  1.0000
  C   C2353     1.0  0.99404  0.22185  0.55957  1.0000
  H   H3747     1.0  0.77435  0.99506  0.51614  1.0000
  H   H3748     1.0  0.76576  0.99962  0.52953  1.0000
  H   H3749     1.0  0.75873  0.99683  0.50686  1.0000
  H   H3750     1.0  0.96912  0.04328  0.51746  1.0000
  S   S934      1.0  0.93016  0.08514  0.50156  1.0000
  S   S935      1.0  0.99545  0.25706  0.53813  1.0000
  H   H3751     1.0  0.78524  0.00350  0.53811  1.0000
  H   H3752     1.0  0.79778  0.99888  0.51944  1.0000
  H   H3753     1.0  0.98676  0.22765  0.55531  1.0000
  H   H3754     1.0  0.82032  0.99640  0.50429  1.0000
  H   H3755     1.0  0.88937  0.99797  0.53055  1.0000
  H   H3756     1.0  0.98208  0.10231  0.50393  1.0000
  H   H3757     1.0  0.97787  0.05355  0.50816  1.0000
  H   H3758     1.0  0.98227  0.15244  0.52330  1.0000
  H   H3759     1.0  0.75695  0.08129  0.49927  1.0000
  H   H3760     1.0  0.76619  0.06063  0.49591  1.0000
  H   H3761     1.0  0.79272  0.01723  0.56235  1.0000
  C   C2354     1.0  0.74759  0.06350  0.51350  1.0000
  H   H3762     1.0  0.74667  0.05419  0.51644  1.0000
  S   S936      1.0  0.78191  0.07439  0.49667  1.0000
  H   H3763     1.0  0.99293  0.12275  0.54105  1.0000
  C   C2355     1.0  0.91227  0.06527  0.49396  1.0000
  S   S937      1.0  0.99530  0.27921  0.51520  1.0000
  H   H3764     1.0  0.93682  0.15689  0.50447  1.0000
  C   C2356     1.0  0.99652  0.08903  0.49720  1.0000
  H   H3765     1.0  0.94761  0.23394  0.50250  1.0000
  C   C2357     1.0  0.93648  0.16380  0.49623  1.0000
  H   H3766     1.0  0.72380  0.99682  0.49416  1.0000
  H   H3767     1.0  0.96896  0.07125  0.49481  1.0000
  H   H3768     1.0  0.95342  0.26287  0.50187  1.0000
  H   H3769     1.0  0.98287  0.32025  0.50138  1.0000
  H   H3770     1.0  0.98265  0.20571  0.57509  1.0000
  H   H3771     1.0  0.73547  0.05804  0.50092  1.0000
  H   H3772     1.0  0.94173  0.05949  0.50670  1.0000
  C   C2358     1.0  0.88547  0.00237  0.52271  1.0000
  C   C2359     1.0  0.96200  0.06655  0.49549  1.0000
  C   C2360     1.0  0.98494  0.31454  0.49492  1.0000
  H   H3773     1.0  0.80178  0.99805  0.55628  1.0000
  H   H3774     1.0  0.99382  0.10837  0.51403  1.0000
  N   N235      1.0  0.74765  0.06801  0.50083  1.0000
  H   H3775     1.0  0.72869  0.07247  0.50376  1.0000
  C   C2361     1.0  0.75774  0.06082  0.49387  1.0000
  H   H3776     1.0  0.87576  0.00267  0.50534  1.0000
  H   H3777     1.0  0.89204  0.99977  0.51488  1.0000
  C   C2362     1.0  0.66564  0.52508  0.02088  1.0000
  H   H3778     1.0  0.99527  0.52779  0.24129  1.0000
  Fe  Fe468     1.0  0.75193  0.41461  0.03578  1.0000
  S   S938      1.0  0.74531  0.43231  0.04052  1.0000
  S   S939      1.0  0.76717  0.40121  0.04206  1.0000
  Fe  Fe469     1.0  0.74385  0.43881  0.02176  1.0000
  S   S940      1.0  0.74711  0.45622  0.01117  1.0000
  H   H3779     1.0  0.95045  0.45986  0.09717  1.0000
  C   C2363     1.0  0.99112  0.44740  0.16840  1.0000
  H   H3780     1.0  0.66627  0.51831  0.01633  1.0000
  S   S941      1.0  0.97786  0.51185  0.21887  1.0000
  H   H3781     1.0  0.83847  0.47923  0.99545  1.0000
  H   H3782     1.0  0.76355  0.43771  0.06990  1.0000
  C   C2364     1.0  0.82173  0.44943  0.06315  1.0000
  H   H3783     1.0  0.89240  0.49948  0.10004  1.0000
  S   S942      1.0  0.73404  0.41036  0.04039  1.0000
  H   H3784     1.0  0.82487  0.45733  0.06284  1.0000
  H   H3785     1.0  0.94814  0.43187  0.11941  1.0000
  C   C2365     1.0  0.71037  0.46496  0.06859  1.0000
  C   C2366     1.0  0.95098  0.45031  0.10123  1.0000
  H   H3786     1.0  0.70847  0.47104  0.02965  1.0000
  C   C2367     1.0  0.98521  0.45562  0.14975  1.0000
  S   S943      1.0  0.71035  0.49713  0.00332  1.0000
  S   S944      1.0  0.95806  0.51104  0.20528  1.0000
  H   H3787     1.0  0.97764  0.43739  0.23692  1.0000
  H   H3788     1.0  0.85352  0.46729  0.02613  1.0000
  Fe  Fe470     1.0  0.73367  0.41870  0.02143  1.0000
  H   H3789     1.0  0.99273  0.47753  0.12962  1.0000
  S   S945      1.0  0.68689  0.53596  0.03456  1.0000
  H   H3790     1.0  0.76099  0.46468  0.06699  1.0000
  H   H3791     1.0  0.89625  0.49964  0.07889  1.0000
  N   N236      1.0  0.85424  0.48493  0.02588  1.0000
  C   C2368     1.0  0.68470  0.43414  0.00567  1.0000
  H   H3792     1.0  0.73326  0.45559  0.07078  1.0000
  H   H3793     1.0  0.86679  0.49351  0.01235  1.0000
  H   H3794     1.0  0.87393  0.39952  0.99504  1.0000
  S   S946      1.0  0.95672  0.47809  0.20556  1.0000
  C   C2369     1.0  0.74132  0.44861  0.06884  1.0000
  S   S947      1.0  0.98714  0.51853  0.18355  1.0000
  Fe  Fe471     1.0  0.82045  0.43003  0.02315  1.0000
  S   S948      1.0  0.81596  0.43799  0.03891  1.0000
  S   S949      1.0  0.80949  0.43850  0.00966  1.0000
  Fe  Fe472     1.0  0.83814  0.40940  0.03309  1.0000
  S   S950      1.0  0.83512  0.41524  0.05000  1.0000
  S   S951      1.0  0.84942  0.39246  0.02842  1.0000
  Fe  Fe473     1.0  0.81595  0.41968  0.04935  1.0000
  S   S952      1.0  0.80070  0.41607  0.06427  1.0000
  Fe  Fe474     1.0  0.83542  0.43310  0.03804  1.0000
  S   S953      1.0  0.84372  0.44696  0.03944  1.0000
  S   S954      1.0  0.81895  0.41206  0.03370  1.0000
  S   S955      1.0  0.83998  0.42695  0.02114  1.0000
  Fe  Fe475     1.0  0.81138  0.49396  0.02942  1.0000
  S   S956      1.0  0.81051  0.50446  0.04239  1.0000
  S   S957      1.0  0.82344  0.49555  0.01149  1.0000
  Fe  Fe476     1.0  0.79267  0.48096  0.04561  1.0000
  S   S958      1.0  0.79012  0.49019  0.06010  1.0000
  S   S959      1.0  0.78127  0.46892  0.04609  1.0000
  Fe  Fe477     1.0  0.79091  0.50633  0.04563  1.0000
  S   S960      1.0  0.77716  0.52305  0.04610  1.0000
  Fe  Fe478     1.0  0.80993  0.48736  0.05562  1.0000
  S   S961      1.0  0.82061  0.47901  0.06953  1.0000
  S   S962      1.0  0.79185  0.49727  0.03153  1.0000
  S   S963      1.0  0.81247  0.47663  0.04231  1.0000
  Fe  Fe479     1.0  0.96910  0.49080  0.12458  1.0000
  S   S964      1.0  0.95014  0.50001  0.12516  1.0000
  S   S965      1.0  0.98319  0.50134  0.11827  1.0000
  Fe  Fe480     1.0  0.96289  0.46702  0.13597  1.0000
  S   S966      1.0  0.94338  0.47426  0.13767  1.0000
  S   S967      1.0  0.96995  0.44771  0.14257  1.0000
  Fe  Fe481     1.0  0.94861  0.48452  0.11916  1.0000
  S   S968      1.0  0.94155  0.48687  0.10285  1.0000
  Fe  Fe482     1.0  0.94676  0.48892  0.14351  1.0000
  S   S969      1.0  0.93637  0.49682  0.15922  1.0000
  S   S970      1.0  0.96803  0.47617  0.11716  1.0000
  S   S971      1.0  0.96579  0.48088  0.14321  1.0000
  Fe  Fe483     1.0  0.88475  0.47446  0.06275  1.0000
  S   S972      1.0  0.88384  0.46074  0.07949  1.0000
  S   S973      1.0  0.87048  0.49098  0.06051  1.0000
  Fe  Fe484     1.0  0.90784  0.46052  0.05073  1.0000
  S   S974      1.0  0.90892  0.44581  0.06676  1.0000
  S   S975      1.0  0.92056  0.45862  0.03338  1.0000
  Fe  Fe485     1.0  0.88968  0.44772  0.06786  1.0000
  S   S976      1.0  0.88196  0.43212  0.07008  1.0000
  Fe  Fe486     1.0  0.90310  0.46032  0.07694  1.0000
  S   S977      1.0  0.90784  0.45961  0.09412  1.0000
  S   S978      1.0  0.88898  0.46151  0.05129  1.0000
  S   S979      1.0  0.90367  0.47493  0.06069  1.0000
  H   H3795     1.0  0.95247  0.45097  0.12866  1.0000
  C   C2370     1.0  0.97911  0.44676  0.15192  1.0000
  C   C2371     1.0  0.97970  0.43770  0.16197  1.0000
  C   C2372     1.0  0.95101  0.44821  0.18662  1.0000
  H   H3796     1.0  0.84243  0.37054  0.00343  1.0000
  H   H3797     1.0  0.96094  0.43107  0.12461  1.0000
  H   H3798     1.0  0.70581  0.43548  0.00752  1.0000
  H   H3799     1.0  0.97521  0.43066  0.16356  1.0000
  H   H3800     1.0  0.67203  0.47031  0.03622  1.0000
  C   C2373     1.0  0.76732  0.48943  0.02085  1.0000
  C   C2374     1.0  0.83583  0.40041  0.99968  1.0000
  C   C2375     1.0  0.93171  0.47963  0.10071  1.0000
  C   C2376     1.0  0.93063  0.48065  0.08919  1.0000
  C   C2377     1.0  0.92332  0.47463  0.08700  1.0000
  C   C2378     1.0  0.91704  0.46751  0.09634  1.0000
  C   C2379     1.0  0.91798  0.46662  0.10788  1.0000
  C   C2380     1.0  0.92523  0.47269  0.11008  1.0000
  H   H3801     1.0  0.93558  0.48604  0.08189  1.0000
  H   H3802     1.0  0.92268  0.47539  0.07807  1.0000
  H   H3803     1.0  0.91304  0.46122  0.11518  1.0000
  H   H3804     1.0  0.92575  0.47208  0.11901  1.0000
  C   C2381     1.0  0.83437  0.48258  0.06683  1.0000
  C   C2382     1.0  0.84354  0.47413  0.07129  1.0000
  C   C2383     1.0  0.85459  0.47672  0.06938  1.0000
  C   C2384     1.0  0.85651  0.48784  0.06317  1.0000
  C   C2385     1.0  0.84729  0.49640  0.05883  1.0000
  C   C2386     1.0  0.83626  0.49373  0.06058  1.0000
  H   H3805     1.0  0.84213  0.46550  0.07617  1.0000
  H   H3806     1.0  0.86157  0.47011  0.07285  1.0000
  H   H3807     1.0  0.84870  0.50505  0.05408  1.0000
  H   H3808     1.0  0.82913  0.50038  0.05733  1.0000
  C   C2387     1.0  0.79968  0.44955  0.01645  1.0000
  C   C2388     1.0  0.78865  0.44771  0.02318  1.0000
  C   C2389     1.0  0.78247  0.45426  0.03181  1.0000
  C   C2390     1.0  0.78741  0.46254  0.03376  1.0000
  C   C2391     1.0  0.79787  0.46511  0.02627  1.0000
  C   C2392     1.0  0.80406  0.45854  0.01772  1.0000
  H   H3809     1.0  0.78537  0.44055  0.02245  1.0000
  H   H3810     1.0  0.77427  0.45236  0.03736  1.0000
  H   H3811     1.0  0.80156  0.47172  0.02744  1.0000
  H   H3812     1.0  0.81270  0.45982  0.01283  1.0000
  C   C2393     1.0  0.85324  0.44245  0.04922  1.0000
  C   C2394     1.0  0.85813  0.43053  0.05318  1.0000
  C   C2395     1.0  0.86641  0.42729  0.06029  1.0000
  C   C2396     1.0  0.86997  0.43598  0.06324  1.0000
  C   C2397     1.0  0.86464  0.44784  0.05972  1.0000
  C   C2398     1.0  0.85628  0.45106  0.05277  1.0000
  H   H3813     1.0  0.85578  0.42381  0.05052  1.0000
  H   H3814     1.0  0.87037  0.41807  0.06315  1.0000
  H   H3815     1.0  0.86704  0.45455  0.06229  1.0000
  H   H3816     1.0  0.85215  0.46023  0.05019  1.0000
  C   C2399     1.0  0.95136  0.48362  0.19254  1.0000
  C   C2400     1.0  0.94282  0.49416  0.19112  1.0000
  C   C2401     1.0  0.93822  0.49812  0.18089  1.0000
  C   C2402     1.0  0.94216  0.49160  0.17203  1.0000
  C   C2403     1.0  0.95074  0.48110  0.17346  1.0000
  C   C2404     1.0  0.95541  0.47720  0.18361  1.0000
  H   H3817     1.0  0.93962  0.49918  0.19796  1.0000
  H   H3818     1.0  0.93157  0.50625  0.17986  1.0000
  H   H3819     1.0  0.95368  0.47587  0.16683  1.0000
  H   H3820     1.0  0.96227  0.46925  0.18444  1.0000
  Fe  Fe487     1.0  0.71366  0.50254  0.01794  1.0000
  H   H3821     1.0  0.83381  0.44898  0.00433  1.0000
  C   C2405     1.0  0.83419  0.47157  0.99852  1.0000
  H   H3822     1.0  0.72524  0.47308  0.00901  1.0000
  H   H3823     1.0  0.91458  0.42339  0.03968  1.0000
  H   H3824     1.0  0.96259  0.42265  0.20401  1.0000
  H   H3825     1.0  0.75379  0.50019  0.00523  1.0000
  H   H3826     1.0  0.70176  0.45263  0.04037  1.0000
  H   H3827     1.0  0.67522  0.43762  0.00548  1.0000
  N   N237      1.0  0.75181  0.45374  0.06328  1.0000
  H   H3828     1.0  0.96332  0.49981  0.17577  1.0000
  H   H3829     1.0  0.68879  0.45263  0.01062  1.0000
  H   H3830     1.0  0.73496  0.48775  0.99387  1.0000
  C   C2406     1.0  0.80444  0.39668  0.00596  1.0000
  H   H3831     1.0  0.88767  0.49302  0.07370  1.0000
  S   S980      1.0  0.99746  0.44891  0.17913  1.0000
  H   H3832     1.0  0.86927  0.50516  0.08297  1.0000
  C   C2407     1.0  0.84167  0.37912  0.00505  1.0000
  H   H3833     1.0  0.68654  0.45225  0.04333  1.0000
  C   C2408     1.0  0.69470  0.40960  0.02861  1.0000
  C   C2409     1.0  0.79738  0.51892  0.99706  1.0000
  H   H3834     1.0  0.81691  0.45513  0.08411  1.0000
  N   N238      1.0  0.80162  0.39523  0.01890  1.0000
  H   H3835     1.0  0.83178  0.40832  0.99417  1.0000
  H   H3836     1.0  0.70457  0.44863  0.07611  1.0000
  C   C2410     1.0  0.91716  0.45738  0.01226  1.0000
  C   C2411     1.0  0.91301  0.46294  0.02188  1.0000
  C   C2412     1.0  0.90249  0.47153  0.02256  1.0000
  C   C2413     1.0  0.89599  0.47436  0.01387  1.0000
  C   C2414     1.0  0.90406  0.42900  0.02122  1.0000
  H   H3837     1.0  0.92533  0.45073  0.01171  1.0000
  H   H3838     1.0  0.89943  0.47611  0.02974  1.0000
  H   H3839     1.0  0.88789  0.48107  0.01447  1.0000
  H   H3840     1.0  0.93966  0.45193  0.12342  1.0000
  C   C2415     1.0  0.86191  0.48083  0.03447  1.0000
  H   H3841     1.0  0.94674  0.45741  0.18765  1.0000
  C   C2416     1.0  0.68822  0.47296  0.04611  1.0000
  H   H3842     1.0  0.74529  0.46800  0.07245  1.0000
  H   H3843     1.0  0.99112  0.52427  0.22977  1.0000
  H   H3844     1.0  0.69982  0.54661  0.01243  1.0000
  H   H3845     1.0  0.80201  0.51375  0.01394  1.0000
  H   H3846     1.0  0.77819  0.42808  0.99550  1.0000
  H   H3847     1.0  0.79335  0.45725  0.07793  1.0000
  C   C2417     1.0  0.84477  0.39113  0.01652  1.0000
  C   C2418     1.0  0.83969  0.40128  0.00918  1.0000
  H   H3848     1.0  0.99563  0.53889  0.16965  1.0000
  H   H3849     1.0  0.69804  0.48403  0.02466  1.0000
  H   H3850     1.0  0.98683  0.48619  0.15288  1.0000
  C   C2419     1.0  0.84573  0.38002  0.01449  1.0000
  H   H3851     1.0  0.83878  0.40987  0.01073  1.0000
  Fe  Fe488     1.0  0.98451  0.42111  0.21783  1.0000
  H   H3852     1.0  0.75704  0.48459  0.00620  1.0000
  H   H3853     1.0  0.84948  0.37213  0.02028  1.0000
  C   C2420     1.0  0.76242  0.44413  0.06150  1.0000
  H   H3854     1.0  0.81113  0.40213  0.00164  1.0000
  H   H3855     1.0  0.91356  0.45559  0.99638  1.0000
  N   N239      1.0  0.95479  0.44080  0.19745  1.0000
  C   C2421     1.0  0.72041  0.45597  0.04819  1.0000
  H   H3856     1.0  0.85062  0.50297  0.02748  1.0000
  H   H3857     1.0  0.70976  0.41449  0.03061  1.0000
  C   C2422     1.0  0.75391  0.52312  0.02223  1.0000
  C   C2423     1.0  0.76373  0.52824  0.01759  1.0000
  C   C2424     1.0  0.77079  0.52834  0.02496  1.0000
  C   C2425     1.0  0.76802  0.52336  0.03700  1.0000
  C   C2426     1.0  0.75831  0.51810  0.04161  1.0000
  C   C2427     1.0  0.75125  0.51798  0.03423  1.0000
  H   H3858     1.0  0.99398  0.50349  0.16257  1.0000
  H   H3859     1.0  0.77841  0.53223  0.02135  1.0000
  H   H3860     1.0  0.75626  0.51409  0.05089  1.0000
  H   H3861     1.0  0.74381  0.51384  0.03786  1.0000
  H   H3862     1.0  0.80817  0.38803  0.00328  1.0000
  N   N240      1.0  0.89852  0.43064  0.03336  1.0000
  Fe  Fe489     1.0  0.72946  0.51533  0.02254  1.0000
  H   H3863     1.0  0.76054  0.49721  0.02348  1.0000
  H   H3864     1.0  0.77060  0.44761  0.05790  1.0000
  H   H3865     1.0  0.68548  0.43240  0.01497  1.0000
  N   N241      1.0  0.95624  0.44671  0.11168  1.0000
  C   C2428     1.0  0.79058  0.41246  0.05868  1.0000
  C   C2429     1.0  0.78473  0.42078  0.05035  1.0000
  C   C2430     1.0  0.77690  0.41764  0.04569  1.0000
  C   C2431     1.0  0.77532  0.40603  0.04902  1.0000
  C   C2432     1.0  0.78127  0.39775  0.05723  1.0000
  C   C2433     1.0  0.78870  0.40100  0.06221  1.0000
  H   H3866     1.0  0.78636  0.42959  0.04744  1.0000
  H   H3867     1.0  0.77255  0.42401  0.03913  1.0000
  H   H3868     1.0  0.78014  0.38876  0.05976  1.0000
  H   H3869     1.0  0.79327  0.39453  0.06856  1.0000
  C   C2434     1.0  0.88766  0.49228  0.10195  1.0000
  H   H3870     1.0  0.77481  0.48821  0.02501  1.0000
  H   H3871     1.0  0.67690  0.48368  0.02853  1.0000
  C   C2435     1.0  0.70634  0.41120  0.02510  1.0000
  H   H3872     1.0  0.72435  0.45254  0.04029  1.0000
  S   S981      1.0  0.96184  0.49150  0.22965  1.0000
  H   H3873     1.0  0.80343  0.41288  0.01728  1.0000
  C   C2436     1.0  0.97879  0.44369  0.24143  1.0000
  H   H3874     1.0  0.97420  0.50436  0.14348  1.0000
  H   H3875     1.0  0.85602  0.48993  0.00710  1.0000
  H   H3876     1.0  0.70783  0.42866  0.99551  1.0000
  S   S982      1.0  0.71867  0.48506  0.05926  1.0000
  H   H3877     1.0  0.96062  0.45428  0.20132  1.0000
  C   C2437     1.0  0.87347  0.50439  0.09034  1.0000
  N   N242      1.0  0.69039  0.46933  0.03485  1.0000
  C   C2438     1.0  0.72124  0.46725  0.04830  1.0000
  H   H3878     1.0  0.74231  0.44228  0.07731  1.0000
  H   H3879     1.0  0.86700  0.48744  0.03378  1.0000
  Fe  Fe490     1.0  0.70283  0.52131  0.03195  1.0000
  C   C2439     1.0  0.96818  0.44916  0.10824  1.0000
  H   H3880     1.0  0.68916  0.41173  0.03680  1.0000
  C   C2440     1.0  0.75028  0.46163  0.05182  1.0000
  H   H3881     1.0  0.76951  0.50981  0.00489  1.0000
  Fe  Fe491     1.0  0.96295  0.49135  0.21087  1.0000
  H   H3882     1.0  0.98501  0.51655  0.15559  1.0000
  C   C2441     1.0  0.80786  0.43706  0.07303  1.0000
  S   S983      1.0  0.72533  0.43683  0.02480  1.0000
  H   H3883     1.0  0.69382  0.39969  0.00523  1.0000
  H   H3884     1.0  0.88586  0.41997  0.03687  1.0000
  H   H3885     1.0  0.96629  0.51570  0.15157  1.0000
  H   H3886     1.0  0.96789  0.45867  0.10413  1.0000
  H   H3887     1.0  0.72597  0.47237  0.04056  1.0000
  C   C2442     1.0  0.68880  0.54206  0.99811  1.0000
  C   C2443     1.0  0.71344  0.40866  0.01441  1.0000
  C   C2444     1.0  0.80139  0.45814  0.07085  1.0000
  C   C2445     1.0  0.74010  0.45158  0.99382  1.0000
  H   H3888     1.0  0.74905  0.45683  0.04576  1.0000
  C   C2446     1.0  0.94878  0.45346  0.12063  1.0000
  H   H3889     1.0  0.81975  0.45057  0.05443  1.0000
  C   C2447     1.0  0.75317  0.46064  0.07099  1.0000
  H   H3890     1.0  0.99546  0.46317  0.15642  1.0000
  C   C2448     1.0  0.70923  0.45382  0.06836  1.0000
  H   H3891     1.0  0.80367  0.46647  0.07069  1.0000
  H   H3892     1.0  0.84181  0.47862  0.02088  1.0000
  H   H3893     1.0  0.98790  0.48426  0.16785  1.0000
  S   S984      1.0  0.89104  0.47221  0.99416  1.0000
  H   H3894     1.0  0.98619  0.43106  0.17790  1.0000
  H   H3895     1.0  0.80661  0.44587  0.09162  1.0000
  H   H3896     1.0  0.86835  0.47241  0.03317  1.0000
  H   H3897     1.0  0.84033  0.49975  0.02127  1.0000
  C   C2449     1.0  0.90749  0.43157  0.03900  1.0000
  H   H3898     1.0  0.94809  0.46310  0.11715  1.0000
  C   C2450     1.0  0.88915  0.44157  0.03302  1.0000
  C   C2451     1.0  0.98580  0.43799  0.17017  1.0000
  H   H3899     1.0  0.88486  0.44308  0.04203  1.0000
  H   H3900     1.0  0.87913  0.37789  0.99860  1.0000
  N   N243      1.0  0.88221  0.49308  0.09217  1.0000
  C   C2452     1.0  0.78028  0.48068  0.00482  1.0000
  H   H3901     1.0  0.78303  0.48142  0.99512  1.0000
  H   H3902     1.0  0.68092  0.47142  0.02151  1.0000
  H   H3903     1.0  0.83981  0.49487  0.03671  1.0000
  S   S985      1.0  0.96581  0.42075  0.22751  1.0000
  H   H3904     1.0  0.80018  0.43538  0.08035  1.0000
  N   N244      1.0  0.97771  0.50116  0.16071  1.0000
  C   C2453     1.0  0.83339  0.45313  0.99502  1.0000
  C   C2454     1.0  0.98193  0.48829  0.16158  1.0000
  C   C2455     1.0  0.96969  0.50601  0.15244  1.0000
  C   C2456     1.0  0.97131  0.50355  0.17244  1.0000
  C   C2457     1.0  0.79251  0.38820  0.02425  1.0000
  H   H3905     1.0  0.82455  0.47516  0.99910  1.0000
  C   C2458     1.0  0.71642  0.47165  0.05858  1.0000
  H   H3906     1.0  0.97447  0.48374  0.16473  1.0000
  H   H3907     1.0  0.78416  0.39266  0.02121  1.0000
  H   H3908     1.0  0.68737  0.42551  0.00305  1.0000
  H   H3909     1.0  0.78901  0.52460  0.00009  1.0000
  H   H3910     1.0  0.81916  0.39437  0.02016  1.0000
  H   H3911     1.0  0.76954  0.44916  0.99558  1.0000
  H   H3912     1.0  0.69346  0.46010  0.99568  1.0000
  H   H3913     1.0  0.89423  0.48376  0.10352  1.0000
  H   H3914     1.0  0.86793  0.47851  0.01191  1.0000
  H   H3915     1.0  0.68389  0.51960  0.02231  1.0000
  H   H3916     1.0  0.94090  0.45047  0.20899  1.0000
  H   H3917     1.0  0.95625  0.44527  0.09434  1.0000
  H   H3918     1.0  0.70664  0.46837  0.07654  1.0000
  H   H3919     1.0  0.68097  0.46935  0.05279  1.0000
  H   H3920     1.0  0.96262  0.42858  0.11019  1.0000
  H   H3921     1.0  0.95272  0.42477  0.19460  1.0000
  H   H3922     1.0  0.94181  0.44891  0.10355  1.0000
  H   H3923     1.0  0.73968  0.44381  0.06302  1.0000
  H   H3924     1.0  0.97245  0.46393  0.22624  1.0000
  S   S986      1.0  0.70118  0.50266  0.03541  1.0000
  S   S987      1.0  0.74538  0.52277  0.01279  1.0000
  C   C2459     1.0  0.95951  0.42846  0.19604  1.0000
  H   H3925     1.0  0.93738  0.43810  0.20626  1.0000
  H   H3926     1.0  0.71157  0.47628  0.99583  1.0000
  H   H3927     1.0  0.74777  0.44434  0.99357  1.0000
  H   H3928     1.0  0.84164  0.47449  0.03626  1.0000
  C   C2460     1.0  0.84753  0.47594  0.02734  1.0000
  C   C2461     1.0  0.98790  0.50682  0.15639  1.0000
  H   H3929     1.0  0.95864  0.44861  0.17891  1.0000
  S   S988      1.0  0.99059  0.41819  0.19937  1.0000
  H   H3930     1.0  0.76190  0.43910  0.05529  1.0000
  C   C2462     1.0  0.67959  0.47387  0.03007  1.0000
  S   S989      1.0  0.71411  0.52152  0.01389  1.0000
  H   H3931     1.0  0.79025  0.38690  0.03403  1.0000
  H   H3932     1.0  0.89277  0.44944  0.02791  1.0000
  H   H3933     1.0  0.82176  0.43941  0.08577  1.0000
  H   H3934     1.0  0.94715  0.43571  0.21587  1.0000
  H   H3935     1.0  0.67704  0.56480  0.99573  1.0000
  C   C2463     1.0  0.69362  0.45631  0.03684  1.0000
  H   H3936     1.0  0.69539  0.45323  0.02855  1.0000
  C   C2464     1.0  0.87626  0.48321  0.09501  1.0000
  S   S990      1.0  0.75219  0.42146  0.01652  1.0000
  C   C2465     1.0  0.70895  0.40434  0.00735  1.0000
  H   H3937     1.0  0.97693  0.49964  0.17905  1.0000
  H   H3938     1.0  0.79904  0.45914  0.06231  1.0000
  C   C2466     1.0  0.84591  0.49613  0.02792  1.0000
  H   H3939     1.0  0.96186  0.50194  0.15546  1.0000
  H   H3940     1.0  0.75432  0.45502  0.07974  1.0000
  C   C2467     1.0  0.89335  0.42044  0.04024  1.0000
  C   C2468     1.0  0.80465  0.51260  0.00497  1.0000
  H   H3941     1.0  0.78834  0.47975  0.00800  1.0000
  S   S991      1.0  0.71821  0.51707  0.04045  1.0000
  Fe  Fe492     1.0  0.98090  0.49216  0.22371  1.0000
  H   H3942     1.0  0.69735  0.56223  0.00680  1.0000
  C   C2469     1.0  0.86157  0.48680  0.01378  1.0000
  H   H3943     1.0  0.76344  0.48153  0.02481  1.0000
  C   C2470     1.0  0.71440  0.44924  0.05822  1.0000
  N   N245      1.0  0.81130  0.44791  0.07280  1.0000
  H   H3944     1.0  0.89750  0.42821  0.01676  1.0000
  S   S992      1.0  0.98245  0.49008  0.20550  1.0000
  H   H3945     1.0  0.94451  0.44475  0.18437  1.0000
  C   C2471     1.0  0.99108  0.45605  0.15802  1.0000
  H   H3946     1.0  0.98532  0.46218  0.14168  1.0000
  H   H3947     1.0  0.68506  0.55532  0.01372  1.0000
  C   C2472     1.0  0.69730  0.40283  0.01081  1.0000
  H   H3948     1.0  0.86630  0.50521  0.09835  1.0000
  C   C2473     1.0  0.89148  0.49240  0.08129  1.0000
  C   C2474     1.0  0.89990  0.46859  0.00446  1.0000
  H   H3949     1.0  0.77706  0.47238  0.00883  1.0000
  C   C2475     1.0  0.96404  0.44522  0.19959  1.0000
  H   H3950     1.0  0.96715  0.42777  0.18841  1.0000
  Fe  Fe493     1.0  0.95881  0.51115  0.22370  1.0000
  H   H3951     1.0  0.83542  0.46725  0.00762  1.0000
  S   S993      1.0  0.71336  0.43514  0.05810  1.0000
  H   H3952     1.0  0.75804  0.46563  0.04738  1.0000
  S   S994      1.0  0.67507  0.40531  0.02506  1.0000
  H   H3953     1.0  0.97221  0.44699  0.11603  1.0000
  H   H3954     1.0  0.90002  0.41197  0.04005  1.0000
  H   H3955     1.0  0.77972  0.50302  0.99342  1.0000
  H   H3956     1.0  0.67865  0.45783  0.00098  1.0000
  H   H3957     1.0  0.99300  0.50513  0.14758  1.0000
  H   H3958     1.0  0.85662  0.47925  0.04365  1.0000
  H   H3959     1.0  0.91128  0.42091  0.02110  1.0000
  C   C2476     1.0  0.91053  0.46012  0.00360  1.0000
  H   H3960     1.0  0.79647  0.40107  0.00226  1.0000
  C   C2477     1.0  0.73778  0.45905  0.00156  1.0000
  H   H3961     1.0  0.97420  0.44396  0.10176  1.0000
  H   H3962     1.0  0.96838  0.51319  0.17222  1.0000
  C   C2478     1.0  0.69010  0.40562  0.02138  1.0000
  S   S995      1.0  0.73013  0.49611  0.02496  1.0000
  H   H3963     1.0  0.79552  0.37932  0.02207  1.0000
  H   H3964     1.0  0.88093  0.49279  0.11032  1.0000
  C   C2479     1.0  0.81426  0.44702  0.08410  1.0000
  Fe  Fe494     1.0  0.97762  0.50975  0.20110  1.0000
  H   H3965     1.0  0.81521  0.42913  0.07405  1.0000
  H   H3966     1.0  0.90795  0.43660  0.01578  1.0000
  H   H3967     1.0  0.96740  0.43955  0.20741  1.0000
  H   H3968     1.0  0.82926  0.44169  0.06412  1.0000
  H   H3969     1.0  0.97173  0.44548  0.19196  1.0000
  S   S996      1.0  0.72761  0.41166  0.00924  1.0000
  C   C2480     1.0  0.79720  0.40696  0.02195  1.0000
  H   H3970     1.0  0.88211  0.44119  0.02896  1.0000
  Fe  Fe495     1.0  0.71764  0.49823  0.04227  1.0000
  H   H3971     1.0  0.74245  0.46906  0.05294  1.0000
  C   C2481     1.0  0.72730  0.46770  0.00258  1.0000
  Fe  Fe496     1.0  0.66823  0.40480  0.00978  1.0000
  H   H3972     1.0  0.89817  0.48393  0.08235  1.0000
  H   H3973     1.0  0.87220  0.48345  0.08771  1.0000
  H   H3974     1.0  0.86910  0.48349  0.10310  1.0000
  C   C2482     1.0  0.95703  0.43398  0.11669  1.0000
  C   C2483     1.0  0.96519  0.45958  0.23191  1.0000
  H   H3975     1.0  0.78361  0.50109  0.00718  1.0000
  C   C2484     1.0  0.83694  0.38935  0.99753  1.0000
  H   H3976     1.0  0.88993  0.42099  0.04966  1.0000
  H   H3977     1.0  0.79611  0.40621  0.03154  1.0000
  N   N246      1.0  0.69371  0.55248  0.99628  1.0000
  H   H3978     1.0  0.90350  0.43314  0.04808  1.0000
  H   H3979     1.0  0.91177  0.43900  0.03394  1.0000
  Fe  Fe497     1.0  0.72739  0.42887  0.04328  1.0000
  H   H3980     1.0  0.88260  0.47453  0.09656  1.0000
  C   C2485     1.0  0.94458  0.44130  0.20758  1.0000
  H   H3981     1.0  0.80528  0.43769  0.06471  1.0000
  C   C2486     1.0  0.69400  0.55427  0.00778  1.0000
  H   H3982     1.0  0.87766  0.51205  0.08811  1.0000
  C   C2487     1.0  0.99588  0.49502  0.12404  1.0000
  C   C2488     1.0  0.67558  0.52578  0.02433  1.0000
  C   C2489     1.0  0.71953  0.46942  0.99525  1.0000
  H   H3983     1.0  0.79056  0.44049  0.99711  1.0000
  H   H3984     1.0  0.78847  0.41144  0.01974  1.0000
  H   H3985     1.0  0.69619  0.46975  0.04993  1.0000
  N   N247      1.0  0.69202  0.44231  0.99775  1.0000
  C   C2490     1.0  0.81529  0.50492  0.00124  1.0000
  C   C2491     1.0  0.76092  0.49254  0.00285  1.0000
  H   H3986     1.0  0.68580  0.48274  0.04495  1.0000
  H   H3987     1.0  0.69379  0.53407  0.00324  1.0000
  S   S997      1.0  0.99229  0.48221  0.23653  1.0000
  H   H3988     1.0  0.96398  0.45368  0.22692  1.0000
  N   N248      1.0  0.77117  0.49109  0.00790  1.0000
  H   H3989     1.0  0.86544  0.37765  0.99582  1.0000
  H   H3990     1.0  0.76593  0.53211  0.00830  1.0000
  S   S998      1.0  0.99031  0.43815  0.21323  1.0000
  C   C2492     1.0  0.77620  0.50171  0.00311  1.0000
  C   C2493     1.0  0.70016  0.47423  0.02636  1.0000
  H   H3991     1.0  0.67943  0.54346  0.00304  1.0000
  H   H3992     1.0  0.85393  0.45430  0.99852  1.0000
  H   H3993     1.0  0.98636  0.44753  0.23590  1.0000
  S   S999      1.0  0.94538  0.52217  0.23578  1.0000
  C   C2494     1.0  0.68805  0.45374  0.00142  1.0000
  H   H3994     1.0  0.81043  0.38743  0.03330  1.0000
  C   C2495     1.0  0.81235  0.38905  0.02351  1.0000
  H   H3995     1.0  0.95696  0.46658  0.23293  1.0000
  S   S1000     1.0  0.67085  0.38899  0.00228  1.0000
  H   H3996     1.0  0.71165  0.54254  0.99315  1.0000
  C   C2496     1.0  0.67472  0.53453  0.03030  1.0000
  C   C2497     1.0  0.70452  0.43721  0.99839  1.0000
  H   H3997     1.0  0.81632  0.38040  0.02090  1.0000
  H   H3998     1.0  0.82393  0.45582  0.99452  1.0000
  H   H3999     1.0  0.71439  0.40231  0.99911  1.0000
  H   H4000     1.0  0.70209  0.47171  0.01774  1.0000
  H   H4001     1.0  0.71035  0.44315  0.99267  1.0000
  H   H4002     1.0  0.76341  0.49404  0.99308  1.0000
  N   N249      1.0  0.96793  0.45294  0.24342  1.0000
  C   C2498     1.0  0.95244  0.52671  0.26942  1.0000
  H   H4003     1.0  0.96665  0.51437  0.24550  1.0000
  H   H4004     1.0  0.97483  0.42355  0.39033  1.0000
  C   C2499     1.0  0.94151  0.48770  0.28343  1.0000
  H   H4005     1.0  0.98791  0.63975  0.42040  1.0000
  H   H4006     1.0  0.97613  0.57636  0.30681  1.0000
  H   H4007     1.0  0.97876  0.33620  0.47131  1.0000
  H   H4008     1.0  0.96997  0.51642  0.26427  1.0000
  H   H4009     1.0  0.97430  0.55617  0.33631  1.0000
  H   H4010     1.0  0.99086  0.50916  0.25463  1.0000
  C   C2500     1.0  0.99115  0.41994  0.33004  1.0000
  Fe  Fe498     1.0  0.99283  0.53424  0.28324  1.0000
  H   H4011     1.0  0.97386  0.42609  0.35463  1.0000
  H   H4012     1.0  0.93927  0.48445  0.25719  1.0000
  C   C2501     1.0  0.93867  0.48219  0.26687  1.0000
  C   C2502     1.0  0.98190  0.43473  0.36809  1.0000
  H   H4013     1.0  0.94466  0.41989  0.24533  1.0000
  H   H4014     1.0  0.94439  0.47325  0.26914  1.0000
  H   H4015     1.0  0.96226  0.66058  0.48204  1.0000
  C   C2503     1.0  0.99312  0.43923  0.33047  1.0000
  C   C2504     1.0  0.97565  0.41875  0.38340  1.0000
  C   C2505     1.0  0.95860  0.41600  0.26739  1.0000
  H   H4016     1.0  0.94422  0.49422  0.28650  1.0000
  H   H4017     1.0  0.98028  0.49939  0.27745  1.0000
  Fe  Fe499     1.0  0.96940  0.42063  0.28768  1.0000
  S   S1001     1.0  0.97951  0.43304  0.27416  1.0000
  S   S1002     1.0  0.95526  0.41588  0.28249  1.0000
  Fe  Fe500     1.0  0.98209  0.41940  0.30650  1.0000
  C   C2506     1.0  0.95308  0.65265  0.46871  1.0000
  H   H4018     1.0  0.99202  0.65799  0.40633  1.0000
  Fe  Fe501     1.0  0.97640  0.44231  0.28869  1.0000
  S   S1003     1.0  0.96909  0.46195  0.28522  1.0000
  H   H4019     1.0  0.96271  0.63921  0.44276  1.0000
  H   H4020     1.0  0.96606  0.56061  0.30760  1.0000
  S   S1004     1.0  0.96508  0.43071  0.30195  1.0000
  C   C2507     1.0  0.97021  0.41516  0.26077  1.0000
  C   C2508     1.0  0.98745  0.61886  0.44889  1.0000
  S   S1005     1.0  0.99716  0.41164  0.40039  1.0000
  H   H4021     1.0  0.97057  0.61749  0.44746  1.0000
  Fe  Fe502     1.0  0.99508  0.42136  0.28110  1.0000
  H   H4022     1.0  0.98997  0.47628  0.31449  1.0000
  C   C2509     1.0  0.99434  0.50494  0.24690  1.0000
  C   C2510     1.0  0.99436  0.62657  0.44835  1.0000
  H   H4023     1.0  0.96939  0.41277  0.38693  1.0000
  Fe  Fe503     1.0  0.97169  0.52379  0.28727  1.0000
  S   S1006     1.0  0.98698  0.52592  0.27206  1.0000
  S   S1007     1.0  0.95370  0.52732  0.28344  1.0000
  Fe  Fe504     1.0  0.98725  0.51631  0.30552  1.0000
  H   H4024     1.0  0.94048  0.41803  0.26693  1.0000
  H   H4025     1.0  0.95933  0.44054  0.36611  1.0000
  C   C2511     1.0  0.96796  0.55655  0.31651  1.0000
  C   C2512     1.0  0.94945  0.41746  0.26182  1.0000
  C   C2513     1.0  0.99514  0.51869  0.32963  1.0000
  C   C2514     1.0  0.98977  0.63875  0.44619  1.0000
  S   S1008     1.0  0.97664  0.53373  0.29771  1.0000
  S   S1009     1.0  0.98034  0.50624  0.29695  1.0000
  C   C2515     1.0  0.97489  0.42018  0.36332  1.0000
  H   H4026     1.0  0.92496  0.50259  0.27200  1.0000
  C   C2516     1.0  0.93982  0.53093  0.25559  1.0000
  H   H4027     1.0  0.98113  0.43994  0.37465  1.0000
  H   H4028     1.0  0.93449  0.53674  0.27196  1.0000
  H   H4029     1.0  0.93666  0.50952  0.27071  1.0000
  H   H4030     1.0  0.98750  0.55872  0.29923  1.0000
  C   C2517     1.0  0.97150  0.63571  0.44444  1.0000
  H   H4031     1.0  0.93237  0.48719  0.28842  1.0000
  H   H4032     1.0  0.95990  0.43954  0.38103  1.0000
  H   H4033     1.0  0.94738  0.47894  0.28595  1.0000
  H   H4034     1.0  0.99115  0.42953  0.36638  1.0000
  C   C2518     1.0  0.97843  0.64339  0.44401  1.0000
  C   C2519     1.0  0.99639  0.62666  0.47974  1.0000
  H   H4035     1.0  0.96004  0.44195  0.25923  1.0000
  C   C2520     1.0  0.96974  0.46104  0.24960  1.0000
  C   C2521     1.0  0.94161  0.53196  0.26617  1.0000
  C   C2522     1.0  0.98886  0.55414  0.30824  1.0000
  H   H4036     1.0  0.96071  0.48291  0.26588  1.0000
  C   C2523     1.0  0.99324  0.51831  0.34168  1.0000
  H   H4037     1.0  0.98669  0.62741  0.48207  1.0000
  C   C2524     1.0  0.97945  0.47083  0.28066  1.0000
  H   H4038     1.0  0.92941  0.48159  0.27131  1.0000
  N   N250      1.0  0.97342  0.42698  0.37229  1.0000
  H   H4039     1.0  0.95769  0.49787  0.26735  1.0000
  C   C2525     1.0  0.98350  0.49011  0.27751  1.0000
  C   C2526     1.0  0.97549  0.48279  0.28097  1.0000
  C   C2527     1.0  0.95182  0.41850  0.24961  1.0000
  C   C2528     1.0  0.95452  0.49167  0.26433  1.0000
  C   C2529     1.0  0.97260  0.41608  0.24855  1.0000
  H   H4040     1.0  0.96625  0.48639  0.28413  1.0000
  H   H4041     1.0  0.97737  0.41370  0.26507  1.0000
  C   C2530     1.0  0.97594  0.62344  0.44708  1.0000
  S   S1010     1.0  0.98792  0.51073  0.32478  1.0000
  C   C2531     1.0  0.96162  0.52058  0.26179  1.0000
  H   H4042     1.0  0.99442  0.63136  0.40908  1.0000
  C   C2532     1.0  0.95975  0.51940  0.25119  1.0000
  H   H4043     1.0  0.95530  0.49486  0.25466  1.0000
  H   H4044     1.0  0.98475  0.41310  0.38212  1.0000
  H   H4045     1.0  0.97189  0.45632  0.25829  1.0000
  S   S1011     1.0  0.99306  0.43188  0.29455  1.0000
  C   C2533     1.0  0.93434  0.50274  0.26770  1.0000
  N   N251      1.0  0.94226  0.49107  0.27058  1.0000
  H   H4046     1.0  0.98737  0.51308  0.34798  1.0000
  H   H4047     1.0  0.94976  0.45410  0.25256  1.0000
  C   C2534     1.0  0.96127  0.43426  0.37435  1.0000
  H   H4048     1.0  0.98355  0.43623  0.31936  1.0000
  H   H4049     1.0  0.96832  0.41457  0.36596  1.0000
  S   S1012     1.0  0.98530  0.40808  0.29350  1.0000
  H   H4050     1.0  0.94909  0.65590  0.49084  1.0000
  H   H4051     1.0  0.97718  0.46527  0.24440  1.0000
  H   H4052     1.0  0.95633  0.44145  0.24609  1.0000
  H   H4053     1.0  0.98381  0.41423  0.36193  1.0000
  C   C2535     1.0  0.94876  0.52446  0.24816  1.0000
  C   C2536     1.0  0.98882  0.43218  0.32592  1.0000
  H   H4054     1.0  0.93494  0.50581  0.25802  1.0000
  S   S1013     1.0  0.98600  0.65704  0.46535  1.0000
  H   H4055     1.0  0.99595  0.47947  0.39036  1.0000
  H   H4056     1.0  0.98624  0.57350  0.31618  1.0000
  C   C2537     1.0  0.99146  0.46626  0.27666  1.0000
  H   H4057     1.0  0.98133  0.43848  0.24978  1.0000
  H   H4058     1.0  0.98053  0.44109  0.35970  1.0000
  H   H4059     1.0  0.99523  0.64453  0.44591  1.0000
  Fe  Fe505     1.0  0.99589  0.50880  0.28200  1.0000
  H   H4060     1.0  0.93133  0.53491  0.25330  1.0000
  H   H4061     1.0  0.96179  0.46822  0.25111  1.0000
  S   S1014     1.0  0.97307  0.65875  0.44073  1.0000
  C   C2538     1.0  0.95807  0.44740  0.25065  1.0000
  H   H4062     1.0  0.99374  0.47836  0.29876  1.0000
  H   H4063     1.0  0.94970  0.64530  0.47539  1.0000
  N   N252      1.0  0.97905  0.55877  0.31740  1.0000
  H   H4064     1.0  0.99106  0.44871  0.32747  1.0000
  C   C2539     1.0  0.99638  0.63476  0.41581  1.0000
  H   H4065     1.0  0.98987  0.55411  0.33011  1.0000
  H   H4066     1.0  0.99070  0.60653  0.48058  1.0000
  C   C2540     1.0  0.96337  0.41799  0.24292  1.0000
  S   S1015     1.0  0.99315  0.60357  0.45187  1.0000
  H   H4067     1.0  0.99749  0.55522  0.30887  1.0000
  C   C2541     1.0  0.99558  0.48541  0.27433  1.0000
  S   S1016     1.0  0.98614  0.41088  0.32437  1.0000
  H   H4068     1.0  0.96846  0.54690  0.31809  1.0000
  H   H4069     1.0  0.98967  0.54459  0.30898  1.0000
  H   H4070     1.0  0.95461  0.42869  0.37758  1.0000
  H   H4071     1.0  0.97066  0.57542  0.32240  1.0000
  H   H4072     1.0  0.96029  0.56016  0.32311  1.0000
  C   C2542     1.0  0.97795  0.57159  0.31562  1.0000
  H   H4073     1.0  0.98157  0.41548  0.24350  1.0000
  H   H4074     1.0  0.93172  0.65993  0.48212  1.0000
  C   C2543     1.0  0.98145  0.55281  0.32917  1.0000
  H   H4075     1.0  0.99500  0.46373  0.30766  1.0000
  H   H4076     1.0  0.96290  0.65013  0.46691  1.0000
  H   H4077     1.0  0.99699  0.52473  0.35494  1.0000
  C   C2544     1.0  0.98301  0.33149  0.47889  1.0000
  H   H4078     1.0  0.99447  0.45711  0.27613  1.0000
  C   C2545     1.0  0.99629  0.47266  0.30700  1.0000
  H   H4079     1.0  0.95057  0.65328  0.46034  1.0000
  H   H4080     1.0  0.98220  0.54313  0.33084  1.0000
  H   H4081     1.0  0.99214  0.39001  0.41587  1.0000
  H   H4082     1.0  0.98684  0.50553  0.24302  1.0000
  H   H4083     1.0  0.98104  0.33762  0.48492  1.0000
  S   S1017     1.0  0.99496  0.32916  0.44889  1.0000
  H   H4084     1.0  0.99269  0.32967  0.47529  1.0000
  H   H4085     1.0  0.99235  0.65957  0.48596  1.0000
  N   N253      1.0  0.97834  0.35716  0.58723  1.0000
  H   H4086     1.0  0.97486  0.39501  0.70869  1.0000
  S   S1018     1.0  0.97881  0.53453  0.71822  1.0000
  S   S1019     1.0  0.98972  0.52036  0.74190  1.0000
  H   H4087     1.0  0.98249  0.44689  0.67100  1.0000
  H   H4088     1.0  0.98676  0.60160  0.55192  1.0000
  C   C2546     1.0  0.97396  0.39979  0.69959  1.0000
  N   N254      1.0  0.97939  0.50811  0.68337  1.0000
  Fe  Fe506     1.0  0.99346  0.65888  0.54034  1.0000
  Fe  Fe507     1.0  0.97970  0.51689  0.73066  1.0000
  H   H4089     1.0  0.97962  0.63124  0.53230  1.0000
  H   H4090     1.0  0.98265  0.49210  0.67731  1.0000
  C   C2547     1.0  0.98889  0.66111  0.49475  1.0000
  H   H4091     1.0  0.96669  0.39723  0.69763  1.0000
  Fe  Fe508     1.0  0.98458  0.45260  0.72124  1.0000
  C   C2548     1.0  0.95807  0.49157  0.71286  1.0000
  H   H4092     1.0  0.98545  0.51221  0.66454  1.0000
  H   H4093     1.0  0.96894  0.42845  0.68495  1.0000
  H   H4094     1.0  0.96717  0.63130  0.54468  1.0000
  C   C2549     1.0  0.98601  0.43527  0.65904  1.0000
  C   C2550     1.0  0.95085  0.50705  0.72399  1.0000
  H   H4095     1.0  0.98229  0.39657  0.69343  1.0000
  S   S1020     1.0  0.98705  0.55474  0.73378  1.0000
  C   C2551     1.0  0.98361  0.49518  0.68476  1.0000
  S   S1021     1.0  0.96500  0.45803  0.72488  1.0000
  C   C2552     1.0  0.98147  0.41565  0.70111  1.0000
  H   H4096     1.0  0.98406  0.61247  0.56683  1.0000
  H   H4097     1.0  0.99001  0.62321  0.59500  1.0000
  S   S1022     1.0  0.96634  0.45030  0.70038  1.0000
  H   H4098     1.0  0.96768  0.34465  0.59030  1.0000
  Fe  Fe509     1.0  0.96755  0.46627  0.70574  1.0000
  C   C2553     1.0  0.98037  0.51168  0.69373  1.0000
  H   H4099     1.0  0.97787  0.52144  0.69274  1.0000
  H   H4100     1.0  0.98213  0.62816  0.56332  1.0000
  C   C2554     1.0  0.97685  0.36936  0.58847  1.0000
  H   H4101     1.0  0.94414  0.51457  0.72647  1.0000
  N   N255      1.0  0.98364  0.62050  0.54871  1.0000
  Fe  Fe510     1.0  0.96575  0.44164  0.71945  1.0000
  H   H4102     1.0  0.98545  0.37210  0.58552  1.0000
  C   C2555     1.0  0.97979  0.62073  0.56138  1.0000
  Fe  Fe511     1.0  0.99312  0.65701  0.56565  1.0000
  C   C2556     1.0  0.98668  0.51398  0.67260  1.0000
  C   C2557     1.0  0.94946  0.50135  0.71599  1.0000
  H   H4103     1.0  0.94168  0.50445  0.71230  1.0000
  H   H4104     1.0  0.96295  0.35409  0.60070  1.0000
  H   H4105     1.0  0.97753  0.49050  0.72895  1.0000
  S   S1023     1.0  0.98029  0.65429  0.55696  1.0000
  C   C2558     1.0  0.96104  0.50324  0.72856  1.0000
  C   C2559     1.0  0.97680  0.63101  0.54192  1.0000
  H   H4106     1.0  0.97326  0.37023  0.59779  1.0000
  C   C2560     1.0  0.96810  0.48759  0.71770  1.0000
  H   H4107     1.0  0.94884  0.47377  0.74077  1.0000
  S   S1024     1.0  0.96293  0.51049  0.73834  1.0000
  C   C2561     1.0  0.98764  0.43866  0.66862  1.0000
  H   H4108     1.0  0.97813  0.63928  0.54316  1.0000
  H   H4109     1.0  0.99285  0.60370  0.59047  1.0000
  H   H4110     1.0  0.97960  0.44092  0.65404  1.0000
  C   C2562     1.0  0.99462  0.65432  0.50379  1.0000
  H   H4111     1.0  0.95860  0.42631  0.70613  1.0000
  H   H4112     1.0  0.99174  0.35913  0.57135  1.0000
  H   H4113     1.0  0.99009  0.41250  0.69532  1.0000
  H   H4114     1.0  0.97883  0.41590  0.67972  1.0000
  Fe  Fe512     1.0  0.98603  0.44549  0.69857  1.0000
  H   H4115     1.0  0.98334  0.34936  0.60389  1.0000
  H   H4116     1.0  0.98023  0.42535  0.69979  1.0000
  Fe  Fe513     1.0  0.98991  0.53748  0.72873  1.0000
  H   H4117     1.0  0.98456  0.52372  0.67178  1.0000
  H   H4118     1.0  0.96574  0.50878  0.67486  1.0000
  S   S1025     1.0  0.98781  0.33335  0.55659  1.0000
  S   S1026     1.0  0.98518  0.43545  0.71723  1.0000
  H   H4119     1.0  0.98953  0.50868  0.69511  1.0000
  C   C2563     1.0  0.98660  0.34901  0.59442  1.0000
  C   C2564     1.0  0.99029  0.65643  0.51517  1.0000
  H   H4120     1.0  0.97483  0.48010  0.71534  1.0000
  C   C2565     1.0  0.96968  0.49353  0.72537  1.0000
  C   C2566     1.0  0.96681  0.35378  0.59127  1.0000
  S   S1027     1.0  0.95656  0.48461  0.70257  1.0000
  H   H4121     1.0  0.98459  0.60912  0.53743  1.0000
  C   C2567     1.0  0.98313  0.35648  0.57474  1.0000
  H   H4122     1.0  0.96036  0.35978  0.58605  1.0000
  H   H4123     1.0  0.99308  0.49231  0.68528  1.0000
  H   H4124     1.0  0.98796  0.33972  0.59369  1.0000
  C   C2568     1.0  0.98167  0.60967  0.54687  1.0000
  S   S1028     1.0  0.95510  0.42883  0.73132  1.0000
  H   H4125     1.0  0.97009  0.62164  0.56455  1.0000
  C   C2569     1.0  0.96692  0.51162  0.68237  1.0000
  H   H4126     1.0  0.97858  0.49045  0.69296  1.0000
  H   H4127     1.0  0.97709  0.36236  0.56903  1.0000
  H   H4128     1.0  0.96358  0.52135  0.68111  1.0000
  C   C2570     1.0  0.99633  0.62054  0.54465  1.0000
  H   H4129     1.0  0.98941  0.61134  0.49972  1.0000
  H   H4130     1.0  0.98457  0.34736  0.57348  1.0000
  H   H4131     1.0  0.96351  0.32912  0.49594  1.0000
  H   H4132     1.0  0.96323  0.41672  0.68380  1.0000
  C   C2571     1.0  0.97060  0.41869  0.68619  1.0000
  C   C2572     1.0  0.99642  0.43167  0.67463  1.0000
  H   H4133     1.0  0.97219  0.60929  0.54987  1.0000
  S   S1029     1.0  0.98735  0.46220  0.70237  1.0000
  H   H4134     1.0  0.98221  0.41174  0.71041  1.0000
  H   H4135     1.0  0.95283  0.41471  0.70480  1.0000
  H   H4136     1.0  0.97078  0.37578  0.58307  1.0000
  N   N256      1.0  0.97163  0.41269  0.69838  1.0000
  C   C2573     1.0  0.96051  0.41663  0.70665  1.0000
  H   H4137     1.0  0.96093  0.41223  0.71595  1.0000
  H   H4138     1.0  0.97453  0.50789  0.70192  1.0000
  H   H4139     1.0  0.96113  0.50752  0.69044  1.0000
  H   H4140     1.0  0.96987  0.43715  0.74101  1.0000
  S   S1030     1.0  0.99230  0.42128  0.64273  1.0000
  C   C2574     1.0  0.99309  0.42488  0.65558  1.0000
  H   H4141     1.0  0.99544  0.35126  0.59154  1.0000
  S   S1031     1.0  0.99348  0.45296  0.73499  1.0000
  S   S1032     1.0  0.99576  0.50775  0.71930  1.0000
  Fe  Fe514     1.0  0.99587  0.52578  0.70770  1.0000
  C   C2575     1.0  0.99589  0.62117  0.58690  1.0000
  C   C2576     1.0  0.99753  0.61013  0.58435  1.0000
  H   H4142     1.0  0.99621  0.51075  0.67266  1.0000
  H   H4143     1.0  0.71638  0.46634  0.89262  1.0000
  H   H4144     1.0  0.69293  0.48344  0.97256  1.0000
  H   H4145     1.0  0.86008  0.39965  0.99234  1.0000
  Fe  Fe515     1.0  0.72507  0.45677  0.96235  1.0000
  C   C2577     1.0  0.98041  0.43974  0.83509  1.0000
  H   H4146     1.0  0.86148  0.43931  0.94089  1.0000
  C   C2578     1.0  0.75934  0.52287  0.97937  1.0000
  C   C2579     1.0  0.91923  0.48631  0.96190  1.0000
  S   S1033     1.0  0.83966  0.51489  0.93240  1.0000
  H   H4147     1.0  0.96346  0.46185  0.83075  1.0000
  H   H4148     1.0  0.69436  0.50729  0.98571  1.0000
  S   S1034     1.0  0.72169  0.46055  0.94431  1.0000
  Fe  Fe516     1.0  0.71877  0.53317  0.92870  1.0000
  S   S1035     1.0  0.71105  0.55219  0.92956  1.0000
  S   S1036     1.0  0.71427  0.52391  0.91746  1.0000
  Fe  Fe517     1.0  0.72950  0.55242  0.92971  1.0000
  S   S1037     1.0  0.73877  0.56689  0.91958  1.0000
  C   C2580     1.0  0.86664  0.45202  0.91917  1.0000
  H   H4149     1.0  0.98402  0.42057  0.77242  1.0000
  C   C2581     1.0  0.84130  0.49149  0.94231  1.0000
  H   H4150     1.0  0.68975  0.57104  0.98856  1.0000
  H   H4151     1.0  0.93840  0.49556  0.95421  1.0000
  C   C2582     1.0  0.72240  0.50173  0.92974  1.0000
  H   H4152     1.0  0.93335  0.46605  0.95671  1.0000
  H   H4153     1.0  0.72905  0.48423  0.93916  1.0000
  C   C2583     1.0  0.98732  0.49638  0.78647  1.0000
  H   H4154     1.0  0.93907  0.47814  0.94691  1.0000
  S   S1038     1.0  0.79314  0.54747  0.91863  1.0000
  H   H4155     1.0  0.97084  0.48375  0.84237  1.0000
  H   H4156     1.0  0.72196  0.39892  0.97241  1.0000
  H   H4157     1.0  0.73479  0.44415  0.91230  1.0000
  H   H4158     1.0  0.72108  0.47404  0.91840  1.0000
  C   C2584     1.0  0.86869  0.38977  0.97358  1.0000
  C   C2585     1.0  0.87574  0.42324  0.95950  1.0000
  H   H4159     1.0  0.77104  0.43934  0.94348  1.0000
  Fe  Fe518     1.0  0.97679  0.46454  0.89146  1.0000
  H   H4160     1.0  0.96763  0.49074  0.81135  1.0000
  S   S1039     1.0  0.96891  0.45363  0.90885  1.0000
  Fe  Fe519     1.0  0.97050  0.48512  0.87188  1.0000
  H   H4161     1.0  0.93836  0.46940  0.97910  1.0000
  S   S1040     1.0  0.95471  0.49829  0.86627  1.0000
  H   H4162     1.0  0.95328  0.45296  0.76901  1.0000
  C   C2586     1.0  0.80182  0.47838  0.96225  1.0000
  H   H4163     1.0  0.91989  0.49167  0.95273  1.0000
  H   H4164     1.0  0.69618  0.51787  0.97194  1.0000
  S   S1041     1.0  0.97114  0.46586  0.87486  1.0000
  S   S1042     1.0  0.97485  0.48401  0.88902  1.0000
  C   C2587     1.0  0.81243  0.45686  0.95544  1.0000
  S   S1043     1.0  0.91893  0.47621  0.93789  1.0000
  C   C2588     1.0  0.95354  0.48432  0.83232  1.0000
  C   C2589     1.0  0.76093  0.50165  0.91934  1.0000
  Fe  Fe520     1.0  0.96959  0.43362  0.78794  1.0000
  S   S1044     1.0  0.98139  0.44466  0.77461  1.0000
  S   S1045     1.0  0.95824  0.42411  0.78377  1.0000
  Fe  Fe521     1.0  0.97634  0.43773  0.80884  1.0000
  H   H4165     1.0  0.91373  0.49214  0.96804  1.0000
  H   H4166     1.0  0.80415  0.41047  0.95927  1.0000
  Fe  Fe522     1.0  0.97449  0.45696  0.78708  1.0000
  S   S1046     1.0  0.96796  0.47647  0.78215  1.0000
  S   S1047     1.0  0.83765  0.43301  0.94710  1.0000
  H   H4167     1.0  0.96874  0.51970  0.78521  1.0000
  S   S1048     1.0  0.96159  0.44676  0.79947  1.0000
  H   H4168     1.0  0.76148  0.51464  0.93377  1.0000
  Fe  Fe523     1.0  0.98256  0.52372  0.80663  1.0000
  H   H4169     1.0  0.97331  0.53923  0.75519  1.0000
  S   S1049     1.0  0.96310  0.52527  0.81321  1.0000
  H   H4170     1.0  0.75147  0.38670  0.98005  1.0000
  H   H4171     1.0  0.75799  0.49506  0.91665  1.0000
  S   S1050     1.0  0.99024  0.52616  0.78730  1.0000
  H   H4172     1.0  0.82743  0.47313  0.97892  1.0000
  C   C2590     1.0  0.78728  0.44549  0.96900  1.0000
  H   H4173     1.0  0.88980  0.44456  0.92014  1.0000
  H   H4174     1.0  0.98651  0.53011  0.87488  1.0000
  H   H4175     1.0  0.67271  0.54555  0.98045  1.0000
  H   H4176     1.0  0.70731  0.42997  0.96177  1.0000
  H   H4177     1.0  0.96359  0.52329  0.75543  1.0000
  H   H4178     1.0  0.93731  0.47059  0.75341  1.0000
  C   C2591     1.0  0.97586  0.44201  0.84643  1.0000
  H   H4179     1.0  0.77437  0.46031  0.98329  1.0000
  Fe  Fe524     1.0  0.74099  0.46025  0.93829  1.0000
  C   C2592     1.0  0.95048  0.48251  0.75820  1.0000
  N   N257      1.0  0.96625  0.47923  0.82848  1.0000
  H   H4180     1.0  0.95213  0.49234  0.83579  1.0000
  H   H4181     1.0  0.94911  0.47793  0.83948  1.0000
  H   H4182     1.0  0.72988  0.47684  0.90379  1.0000
  S   S1051     1.0  0.72020  0.43152  0.93733  1.0000
  H   H4183     1.0  0.88177  0.43339  0.92841  1.0000
  C   C2593     1.0  0.84699  0.50086  0.93871  1.0000
  H   H4184     1.0  0.73216  0.46388  0.89017  1.0000
  Fe  Fe525     1.0  0.73331  0.52919  0.94669  1.0000
  S   S1052     1.0  0.89110  0.47622  0.96225  1.0000
  Fe  Fe526     1.0  0.89567  0.46365  0.97861  1.0000
  S   S1053     1.0  0.81840  0.42005  0.96856  1.0000
  C   C2594     1.0  0.73600  0.40746  0.98017  1.0000
  C   C2595     1.0  0.95724  0.42590  0.76916  1.0000
  C   C2596     1.0  0.94958  0.42045  0.76688  1.0000
  H   H4185     1.0  0.97231  0.54310  0.76875  1.0000
  H   H4186     1.0  0.71380  0.50356  0.96433  1.0000
  H   H4187     1.0  0.85926  0.38950  0.97759  1.0000
  C   C2597     1.0  0.96439  0.43210  0.75977  1.0000
  H   H4188     1.0  0.94406  0.41558  0.77413  1.0000
  S   S1054     1.0  0.79113  0.52471  0.97587  1.0000
  C   C2598     1.0  0.93728  0.49004  0.96332  1.0000
  H   H4189     1.0  0.97038  0.43626  0.76140  1.0000
  C   C2599     1.0  0.97976  0.48232  0.78149  1.0000
  C   C2600     1.0  0.73097  0.39333  0.97281  1.0000
  S   S1055     1.0  0.73746  0.53393  0.92704  1.0000
  C   C2601     1.0  0.98223  0.44664  0.85144  1.0000
  H   H4190     1.0  0.88015  0.43057  0.97164  1.0000
  C   C2602     1.0  0.97774  0.49249  0.78577  1.0000
  H   H4191     1.0  0.68055  0.49376  0.97895  1.0000
  C   C2603     1.0  0.76128  0.53949  0.96303  1.0000
  H   H4192     1.0  0.80922  0.47049  0.97759  1.0000
  H   H4193     1.0  0.96880  0.49705  0.78895  1.0000
  C   C2604     1.0  0.95694  0.50631  0.85172  1.0000
  C   C2605     1.0  0.96827  0.50733  0.84536  1.0000
  C   C2606     1.0  0.97000  0.51390  0.83380  1.0000
  C   C2607     1.0  0.96050  0.51879  0.82826  1.0000
  C   C2608     1.0  0.94910  0.51784  0.83460  1.0000
  C   C2609     1.0  0.94730  0.51178  0.84642  1.0000
  H   H4194     1.0  0.97571  0.50309  0.84934  1.0000
  H   H4195     1.0  0.97871  0.51506  0.82919  1.0000
  H   H4196     1.0  0.94170  0.52172  0.83039  1.0000
  H   H4197     1.0  0.93847  0.51107  0.85137  1.0000
  H   H4198     1.0  0.97495  0.40505  0.77138  1.0000
  C   C2610     1.0  0.67536  0.53251  0.95370  1.0000
  Fe  Fe527     1.0  0.72761  0.44101  0.94594  1.0000
  C   C2611     1.0  0.70912  0.49631  0.96896  1.0000
  H   H4199     1.0  0.86638  0.42687  0.96197  1.0000
  C   C2612     1.0  0.71169  0.42173  0.94695  1.0000
  C   C2613     1.0  0.89569  0.42064  0.96187  1.0000
  S   S1056     1.0  0.72892  0.43718  0.96471  1.0000
  C   C2614     1.0  0.88011  0.41669  0.95069  1.0000
  C   C2615     1.0  0.92966  0.47366  0.97672  1.0000
  C   C2616     1.0  0.95480  0.45981  0.91664  1.0000
  C   C2617     1.0  0.94922  0.47158  0.91296  1.0000
  C   C2618     1.0  0.93818  0.47642  0.91950  1.0000
  C   C2619     1.0  0.93250  0.46951  0.92965  1.0000
  C   C2620     1.0  0.93797  0.45769  0.93330  1.0000
  C   C2621     1.0  0.94913  0.45289  0.92684  1.0000
  H   H4200     1.0  0.95342  0.47697  0.90509  1.0000
  H   H4201     1.0  0.93400  0.48556  0.91662  1.0000
  H   H4202     1.0  0.93368  0.45227  0.94110  1.0000
  H   H4203     1.0  0.95337  0.44377  0.92972  1.0000
  C   C2622     1.0  0.71039  0.41257  0.94283  1.0000
  H   H4204     1.0  0.83273  0.49269  0.94052  1.0000
  S   S1057     1.0  0.84076  0.40431  0.95259  1.0000
  C   C2623     1.0  0.96652  0.46670  0.75228  1.0000
  C   C2624     1.0  0.96095  0.52669  0.78308  1.0000
  H   H4205     1.0  0.93235  0.49602  0.96948  1.0000
  Fe  Fe528     1.0  0.99037  0.46419  0.86613  1.0000
  Fe  Fe529     1.0  0.79753  0.53108  0.93225  1.0000
  S   S1058     1.0  0.88514  0.45121  0.97843  1.0000
  H   H4206     1.0  0.87267  0.38221  0.96911  1.0000
  H   H4207     1.0  0.87260  0.45454  0.91051  1.0000
  H   H4208     1.0  0.69361  0.43560  0.98255  1.0000
  S   S1059     1.0  0.84538  0.41677  0.97161  1.0000
  H   H4209     1.0  0.80139  0.43646  0.98449  1.0000
  H   H4210     1.0  0.84212  0.47333  0.95114  1.0000
  H   H4211     1.0  0.94893  0.48688  0.82492  1.0000
  C   C2625     1.0  0.96770  0.46861  0.82395  1.0000
  S   S1060     1.0  0.89783  0.45348  0.95011  1.0000
  H   H4212     1.0  0.70434  0.46238  0.91304  1.0000
  H   H4213     1.0  0.71410  0.47947  0.90608  1.0000
  H   H4214     1.0  0.90943  0.41048  0.95060  1.0000
  H   H4215     1.0  0.76903  0.50353  0.91276  1.0000
  H   H4216     1.0  0.68556  0.56195  0.98171  1.0000
  C   C2626     1.0  0.75381  0.56171  0.91971  1.0000
  C   C2627     1.0  0.76202  0.56803  0.91204  1.0000
  C   C2628     1.0  0.77410  0.56362  0.91179  1.0000
  C   C2629     1.0  0.77798  0.55294  0.91925  1.0000
  C   C2630     1.0  0.76975  0.54672  0.92706  1.0000
  C   C2631     1.0  0.75768  0.55112  0.92732  1.0000
  H   H4217     1.0  0.75905  0.57622  0.90617  1.0000
  H   H4218     1.0  0.78043  0.56846  0.90574  1.0000
  H   H4219     1.0  0.77266  0.53846  0.93277  1.0000
  H   H4220     1.0  0.75139  0.54628  0.93338  1.0000
  C   C2632     1.0  0.73735  0.48677  0.92067  1.0000
  H   H4221     1.0  0.74280  0.40378  0.95198  1.0000
  H   H4222     1.0  0.95299  0.52300  0.78749  1.0000
  C   C2633     1.0  0.72290  0.50953  0.91875  1.0000
  C   C2634     1.0  0.73049  0.50589  0.90872  1.0000
  C   C2635     1.0  0.73784  0.49458  0.90971  1.0000
  H   H4223     1.0  0.98076  0.52893  0.76605  1.0000
  C   C2636     1.0  0.72944  0.49024  0.93066  1.0000
  H   H4224     1.0  0.73091  0.51196  0.90024  1.0000
  H   H4225     1.0  0.74397  0.49194  0.90198  1.0000
  C   C2637     1.0  0.88354  0.42537  0.96494  1.0000
  H   H4226     1.0  0.78055  0.48684  0.92576  1.0000
  Fe  Fe530     1.0  0.88199  0.46295  0.96130  1.0000
  C   C2638     1.0  0.96299  0.52055  0.76511  1.0000
  S   S1061     1.0  0.86385  0.46520  0.95869  1.0000
  H   H4227     1.0  0.96728  0.44037  0.85128  1.0000
  H   H4228     1.0  0.78893  0.45455  0.96583  1.0000
  C   C2639     1.0  0.88320  0.44212  0.92832  1.0000
  C   C2640     1.0  0.73993  0.50041  0.97811  1.0000
  C   C2641     1.0  0.90003  0.41403  0.95311  1.0000
  H   H4229     1.0  0.97718  0.46439  0.82119  1.0000
  C   C2642     1.0  0.97180  0.48800  0.81907  1.0000
  C   C2643     1.0  0.78101  0.43062  0.98575  1.0000
  S   S1062     1.0  0.71331  0.46525  0.97695  1.0000
  N   N258      1.0  0.82896  0.54920  0.91230  1.0000
  C   C2644     1.0  0.83601  0.55456  0.90104  1.0000
  C   C2645     1.0  0.82574  0.53889  0.91077  1.0000
  C   C2646     1.0  0.81810  0.55794  0.91593  1.0000
  C   C2647     1.0  0.83597  0.54535  0.92146  1.0000
  H   H4230     1.0  0.83861  0.56237  0.90186  1.0000
  H   H4231     1.0  0.83094  0.55752  0.89396  1.0000
  H   H4232     1.0  0.84424  0.54814  0.89807  1.0000
  H   H4233     1.0  0.82043  0.53470  0.91909  1.0000
  H   H4234     1.0  0.82029  0.54142  0.90404  1.0000
  H   H4235     1.0  0.83368  0.53198  0.90820  1.0000
  H   H4236     1.0  0.81258  0.55416  0.92441  1.0000
  H   H4237     1.0  0.81246  0.56085  0.90934  1.0000
  H   H4238     1.0  0.82013  0.56590  0.91712  1.0000
  H   H4239     1.0  0.83092  0.54118  0.93006  1.0000
  H   H4240     1.0  0.83860  0.55285  0.92289  1.0000
  H   H4241     1.0  0.84415  0.53859  0.91910  1.0000
  H   H4242     1.0  0.76936  0.50295  0.94338  1.0000
  C   C2648     1.0  0.97191  0.47598  0.83863  1.0000
  S   S1063     1.0  0.97168  0.43513  0.82858  1.0000
  H   H4243     1.0  0.71258  0.48928  0.96378  1.0000
  Fe  Fe531     1.0  0.90755  0.46554  0.95264  1.0000
  H   H4244     1.0  0.88054  0.46557  0.91996  1.0000
  H   H4245     1.0  0.98154  0.47217  0.83610  1.0000
  H   H4246     1.0  0.95524  0.51643  0.76903  1.0000
  H   H4247     1.0  0.78892  0.42387  0.98279  1.0000
  S   S1064     1.0  0.74698  0.47286  0.92174  1.0000
  H   H4248     1.0  0.87237  0.48677  0.94821  1.0000
  C   C2649     1.0  0.81405  0.45863  0.96577  1.0000
  H   H4249     1.0  0.69530  0.41577  0.97491  1.0000
  C   C2650     1.0  0.84667  0.48050  0.94825  1.0000
  Fe  Fe532     1.0  0.82021  0.51581  0.93842  1.0000
  H   H4250     1.0  0.86278  0.50632  0.93772  1.0000
  N   N259      1.0  0.87201  0.45115  0.92902  1.0000
  H   H4251     1.0  0.97399  0.51012  0.86592  1.0000
  S   S1065     1.0  0.80971  0.51509  0.92621  1.0000
  H   H4252     1.0  0.79512  0.45165  0.98476  1.0000
  S   S1066     1.0  0.80870  0.53246  0.94351  1.0000
  C   C2651     1.0  0.93789  0.47306  0.95620  1.0000
  C   C2652     1.0  0.86373  0.48806  0.94655  1.0000
  C   C2653     1.0  0.85833  0.49909  0.94057  1.0000
  C   C2654     1.0  0.78991  0.43279  0.94060  1.0000
  H   H4253     1.0  0.98577  0.50388  0.79029  1.0000
  S   S1067     1.0  0.90547  0.42308  0.96880  1.0000
  C   C2655     1.0  0.85777  0.47885  0.95059  1.0000
  H   H4254     1.0  0.75394  0.50993  0.91876  1.0000
  H   H4255     1.0  0.86772  0.44654  0.94789  1.0000
  Fe  Fe533     1.0  0.74769  0.43890  0.95731  1.0000
  H   H4256     1.0  0.88722  0.44088  0.93593  1.0000
  C   C2656     1.0  0.86377  0.44776  0.94027  1.0000
  N   N260      1.0  0.69618  0.50054  0.97049  1.0000
  H   H4257     1.0  0.94624  0.48616  0.96519  1.0000
  H   H4258     1.0  0.71652  0.50456  0.93748  1.0000
  H   H4259     1.0  0.95035  0.54761  0.77154  1.0000
  H   H4260     1.0  0.73992  0.53459  0.97096  1.0000
  H   H4261     1.0  0.86611  0.46969  0.92903  1.0000
  H   H4262     1.0  0.85814  0.45873  0.91951  1.0000
  S   S1068     1.0  0.98881  0.44894  0.79721  1.0000
  C   C2657     1.0  0.72425  0.46071  0.89601  1.0000
  Fe  Fe534     1.0  0.85135  0.41696  0.95234  1.0000
  N   N261      1.0  0.96195  0.53068  0.77022  1.0000
  H   H4263     1.0  0.69644  0.49782  0.95358  1.0000
  H   H4264     1.0  0.85540  0.45460  0.94140  1.0000
  S   S1069     1.0  0.78609  0.52085  0.94717  1.0000
  C   C2658     1.0  0.75145  0.39291  0.97134  1.0000
  H   H4265     1.0  0.79171  0.43888  0.93225  1.0000
  C   C2659     1.0  0.87439  0.46268  0.92836  1.0000
  C   C2660     1.0  0.70376  0.40452  0.95027  1.0000
  C   C2661     1.0  0.69034  0.49077  0.97731  1.0000
  H   H4266     1.0  0.87846  0.46228  0.93568  1.0000
  H   H4267     1.0  0.81627  0.44851  0.95286  1.0000
  N   N262      1.0  0.93102  0.48076  0.96454  1.0000
  H   H4268     1.0  0.96936  0.45729  0.75157  1.0000
  Fe  Fe535     1.0  0.79944  0.50495  0.94223  1.0000
  C   C2662     1.0  0.89227  0.41221  0.94742  1.0000
  H   H4269     1.0  0.75719  0.51802  0.97395  1.0000
  H   H4270     1.0  0.69625  0.45018  0.97931  1.0000
  Fe  Fe536     1.0  0.79854  0.52074  0.95787  1.0000
  H   H4271     1.0  0.86974  0.40808  0.98157  1.0000
  C   C2663     1.0  0.71256  0.45686  0.91583  1.0000
  S   S1070     1.0  0.87064  0.41413  0.94346  1.0000
  H   H4272     1.0  0.69041  0.54031  0.94556  1.0000
  H   H4273     1.0  0.99007  0.42321  0.75680  1.0000
  S   S1071     1.0  0.74540  0.51606  0.95745  1.0000
  S   S1072     1.0  0.79414  0.48880  0.94183  1.0000
  S   S1073     1.0  0.81115  0.50404  0.95399  1.0000
  H   H4274     1.0  0.73319  0.45385  0.92168  1.0000
  C   C2664     1.0  0.69944  0.41493  0.96596  1.0000
  C   C2665     1.0  0.72196  0.47341  0.90917  1.0000
  S   S1074     1.0  0.74396  0.45839  0.95621  1.0000
  C   C2666     1.0  0.73374  0.45356  0.91248  1.0000
  H   H4275     1.0  0.77635  0.50719  0.92823  1.0000
  N   N263      1.0  0.76319  0.49721  0.93134  1.0000
  Fe  Fe537     1.0  0.82627  0.42039  0.94944  1.0000
  C   C2667     1.0  0.76779  0.50590  0.93428  1.0000
  H   H4276     1.0  0.91431  0.47955  0.96266  1.0000
  H   H4277     1.0  0.76883  0.47916  0.92938  1.0000
  C   C2668     1.0  0.77193  0.48582  0.93184  1.0000
  S   S1075     1.0  0.74677  0.44087  0.93869  1.0000
  C   C2669     1.0  0.99281  0.52507  0.86838  1.0000
  C   C2670     1.0  0.79696  0.41690  0.95591  1.0000
  H   H4278     1.0  0.75334  0.49293  0.94912  1.0000
  H   H4279     1.0  0.74192  0.45648  0.90708  1.0000
  H   H4280     1.0  0.72519  0.45154  0.89514  1.0000
  H   H4281     1.0  0.80502  0.46475  0.94008  1.0000
  C   C2671     1.0  0.95096  0.46248  0.76928  1.0000
  H   H4282     1.0  0.94925  0.45883  0.74900  1.0000
  S   S1076     1.0  0.81391  0.42477  0.93729  1.0000
  H   H4283     1.0  0.86471  0.44344  0.91948  1.0000
  C   C2672     1.0  0.77822  0.43303  0.94695  1.0000
  S   S1077     1.0  0.83267  0.38841  0.98527  1.0000
  C   C2673     1.0  0.78529  0.41704  0.96219  1.0000
  H   H4284     1.0  0.97093  0.49610  0.82219  1.0000
  H   H4285     1.0  0.73439  0.44759  0.98046  1.0000
  C   C2674     1.0  0.97922  0.53125  0.85538  1.0000
  H   H4286     1.0  0.79754  0.48662  0.96501  1.0000
  H   H4287     1.0  0.69693  0.51251  0.95359  1.0000
  C   C2675     1.0  0.97253  0.53570  0.76484  1.0000
  H   H4288     1.0  0.75948  0.53475  0.95724  1.0000
  C   C2676     1.0  0.79931  0.42478  0.94512  1.0000
  N   N264      1.0  0.72312  0.46114  0.90837  1.0000
  H   H4289     1.0  0.94682  0.46862  0.95793  1.0000
  C   C2677     1.0  0.80092  0.47690  0.95150  1.0000
  H   H4290     1.0  0.97229  0.51813  0.87690  1.0000
  H   H4291     1.0  0.97102  0.51355  0.76655  1.0000
  H   H4292     1.0  0.71151  0.45695  0.92524  1.0000
  Fe  Fe538     1.0  0.90167  0.44255  0.96737  1.0000
  H   H4293     1.0  0.75809  0.39824  0.96995  1.0000
  C   C2678     1.0  0.69812  0.40577  0.96177  1.0000
  H   H4294     1.0  0.78353  0.41083  0.97046  1.0000
  H   H4295     1.0  0.74894  0.48827  0.93851  1.0000
  S   S1078     1.0  0.71539  0.52647  0.94815  1.0000
  C   C2679     1.0  0.77592  0.42514  0.95774  1.0000
  H   H4296     1.0  0.77362  0.48208  0.94085  1.0000
  H   H4297     1.0  0.89571  0.40721  0.94055  1.0000
  H   H4298     1.0  0.71318  0.44757  0.91552  1.0000
  C   C2680     1.0  0.75211  0.49543  0.93991  1.0000
  C   C2681     1.0  0.68349  0.53892  0.95335  1.0000
  S   S1079     1.0  0.91285  0.45379  0.96915  1.0000
  C   C2682     1.0  0.80588  0.46600  0.94829  1.0000
  H   H4299     1.0  0.74499  0.50361  0.93922  1.0000
  S   S1080     1.0  0.98921  0.48364  0.86182  1.0000
  Fe  Fe539     1.0  0.70923  0.54553  0.94904  1.0000
  C   C2683     1.0  0.99157  0.44169  0.82894  1.0000
  C   C2684     1.0  0.80840  0.46925  0.96937  1.0000
  C   C2685     1.0  0.70633  0.42288  0.95857  1.0000
  C   C2686     1.0  0.74006  0.40869  0.95920  1.0000
  H   H4300     1.0  0.71456  0.41162  0.93389  1.0000
  H   H4301     1.0  0.94141  0.46475  0.77345  1.0000
  H   H4302     1.0  0.77103  0.53766  0.96197  1.0000
  H   H4303     1.0  0.73029  0.38720  0.98160  1.0000
  Fe  Fe540     1.0  0.83057  0.43167  0.96647  1.0000
  S   S1081     1.0  0.72689  0.54766  0.94935  1.0000
  H   H4304     1.0  0.70281  0.39741  0.94703  1.0000
  H   H4305     1.0  0.68236  0.51353  0.97830  1.0000
  C   C2687     1.0  0.95135  0.53983  0.76782  1.0000
  S   S1082     1.0  0.76143  0.42541  0.96598  1.0000
  H   H4306     1.0  0.74643  0.41437  0.95748  1.0000
  C   C2688     1.0  0.73243  0.45338  0.98644  1.0000
  C   C2689     1.0  0.75850  0.54182  0.98287  1.0000
  H   H4307     1.0  0.95186  0.54304  0.75818  1.0000
  H   H4308     1.0  0.97254  0.53656  0.86144  1.0000
  H   H4309     1.0  0.81502  0.51038  0.97227  1.0000
  C   C2690     1.0  0.69310  0.50480  0.95882  1.0000
  H   H4310     1.0  0.98038  0.40823  0.75573  1.0000
  H   H4311     1.0  0.71171  0.49252  0.97759  1.0000
  Fe  Fe541     1.0  0.83384  0.40514  0.97161  1.0000
  N   N265      1.0  0.75540  0.53577  0.97547  1.0000
  H   H4312     1.0  0.94319  0.53636  0.77172  1.0000
  H   H4313     1.0  0.98822  0.40061  0.78473  1.0000
  C   C2691     1.0  0.99324  0.44890  0.84518  1.0000
  C   C2692     1.0  0.87469  0.37833  0.99153  1.0000
  H   H4314     1.0  0.69282  0.48706  0.98601  1.0000
  S   S1083     1.0  0.82308  0.44768  0.97424  1.0000
  H   H4315     1.0  0.96370  0.47074  0.81616  1.0000
  C   C2693     1.0  0.95609  0.42754  0.74586  1.0000
  H   H4316     1.0  0.75593  0.55158  0.98001  1.0000
  C   C2694     1.0  0.81195  0.51082  0.98141  1.0000
  N   N266      1.0  0.98658  0.52100  0.86190  1.0000
  C   C2695     1.0  0.83697  0.46935  0.97867  1.0000
  C   C2696     1.0  0.77276  0.45124  0.98584  1.0000
  H   H4317     1.0  0.95227  0.48839  0.74936  1.0000
  H   H4318     1.0  0.94097  0.48527  0.76225  1.0000
  H   H4319     1.0  0.77377  0.43019  0.98198  1.0000
  N   N267      1.0  0.73961  0.40059  0.97087  1.0000
  H   H4320     1.0  0.97432  0.52838  0.85051  1.0000
  N   N268      1.0  0.87510  0.38937  0.98250  1.0000
  H   H4321     1.0  0.89204  0.38229  0.97230  1.0000
  H   H4322     1.0  0.96797  0.46932  0.84587  1.0000
  C   C2697     1.0  0.68264  0.54350  0.96305  1.0000
  N   N269      1.0  0.78353  0.44253  0.98198  1.0000
  H   H4323     1.0  0.73127  0.41457  0.95849  1.0000
  Fe  Fe542     1.0  0.99380  0.48072  0.87923  1.0000
  H   H4324     1.0  0.94287  0.41723  0.75359  1.0000
  H   H4325     1.0  0.97188  0.46806  0.75773  1.0000
  H   H4326     1.0  0.95592  0.46355  0.77523  1.0000
  C   C2698     1.0  0.72487  0.51811  0.97408  1.0000
  H   H4327     1.0  0.67611  0.52889  0.94621  1.0000
  H   H4328     1.0  0.96037  0.53405  0.78725  1.0000
  S   S1084     1.0  0.68986  0.39545  0.97067  1.0000
  C   C2699     1.0  0.79303  0.44278  0.98732  1.0000
  C   C2700     1.0  0.97894  0.51337  0.87037  1.0000
  H   H4329     1.0  0.98138  0.48440  0.81590  1.0000
  H   H4330     1.0  0.99281  0.46836  0.77433  1.0000
  C   C2701     1.0  0.99128  0.47624  0.77762  1.0000
  H   H4331     1.0  0.84164  0.47671  0.97471  1.0000
  H   H4332     1.0  0.95565  0.48424  0.76359  1.0000
  H   H4333     1.0  0.73341  0.38795  0.96601  1.0000
  H   H4334     1.0  0.76904  0.52022  0.97858  1.0000
  H   H4335     1.0  0.68337  0.50760  0.95969  1.0000
  C   C2702     1.0  0.86949  0.39960  0.98811  1.0000
  S   S1085     1.0  0.98310  0.42340  0.79858  1.0000
  C   C2703     1.0  0.98269  0.40279  0.76418  1.0000
  C   C2704     1.0  0.94894  0.42132  0.75527  1.0000
  S   S1086     1.0  0.69344  0.55048  0.96310  1.0000
  C   C2705     1.0  0.69078  0.44409  0.98554  1.0000
  C   C2706     1.0  0.67353  0.54188  0.97300  1.0000
  C   C2707     1.0  0.72228  0.46248  0.98695  1.0000
  H   H4336     1.0  0.98377  0.39337  0.76413  1.0000
  H   H4337     1.0  0.74874  0.49517  0.97571  1.0000
  H   H4338     1.0  0.73592  0.40157  0.98904  1.0000
  H   H4339     1.0  0.98469  0.53715  0.84882  1.0000
  H   H4340     1.0  0.76818  0.53943  0.98246  1.0000
  C   C2708     1.0  0.73620  0.51125  0.97084  1.0000
  S   S1087     1.0  0.99256  0.53518  0.80981  1.0000
  H   H4341     1.0  0.88810  0.39803  0.97001  1.0000
  H   H4342     1.0  0.86883  0.39798  0.96662  1.0000
  N   N270      1.0  0.95374  0.46997  0.75740  1.0000
  Fe  Fe543     1.0  0.67477  0.40159  0.98493  1.0000
  H   H4343     1.0  0.68142  0.44789  0.98478  1.0000
  H   H4344     1.0  0.74216  0.41324  0.97894  1.0000
  H   H4345     1.0  0.72211  0.52673  0.96878  1.0000
  C   C2709     1.0  0.94699  0.46821  0.74981  1.0000
  H   H4346     1.0  0.79557  0.43929  0.96573  1.0000
  C   C2710     1.0  0.66562  0.53517  0.97348  1.0000
  C   C2711     1.0  0.88752  0.38978  0.97678  1.0000
  H   H4347     1.0  0.75823  0.54911  0.95962  1.0000
  H   H4348     1.0  0.75453  0.38759  0.96444  1.0000
  C   C2712     1.0  0.69210  0.51024  0.97689  1.0000
  H   H4349     1.0  0.87904  0.37043  0.98764  1.0000
  C   C2713     1.0  0.96396  0.43275  0.74815  1.0000
  H   H4350     1.0  0.78045  0.44505  0.96469  1.0000
  H   H4351     1.0  0.89261  0.38954  0.98324  1.0000
  H   H4352     1.0  0.76546  0.45141  0.98184  1.0000
  H   H4353     1.0  0.70822  0.51911  0.98661  1.0000
  H   H4354     1.0  0.97860  0.44844  0.86016  1.0000
  H   H4355     1.0  0.84004  0.46315  0.97256  1.0000
  S   S1088     1.0  0.99632  0.46107  0.88297  1.0000
  C   C2714     1.0  0.74248  0.53885  0.97664  1.0000
  C   C2715     1.0  0.71700  0.51382  0.98419  1.0000
  H   H4356     1.0  0.72699  0.41318  0.98036  1.0000
  H   H4357     1.0  0.98418  0.50552  0.87541  1.0000
  H   H4358     1.0  0.70593  0.54931  0.98015  1.0000
  H   H4359     1.0  0.73916  0.54853  0.97395  1.0000
  C   C2716     1.0  0.99213  0.56449  0.74907  1.0000
  H   H4360     1.0  0.92506  0.46652  0.97788  1.0000
  C   C2717     1.0  0.66662  0.53038  0.96387  1.0000
  C   C2718     1.0  0.80089  0.51779  0.98533  1.0000
  H   H4361     1.0  0.85594  0.45278  0.98367  1.0000
  C   C2719     1.0  0.73207  0.49615  0.98829  1.0000
  H   H4362     1.0  0.85662  0.46640  0.98625  1.0000
  H   H4363     1.0  0.83760  0.44619  0.98977  1.0000
  H   H4364     1.0  0.92433  0.47914  0.98325  1.0000
  H   H4365     1.0  0.82751  0.49870  0.98631  1.0000
  H   H4366     1.0  0.70986  0.55820  0.98747  1.0000
  H   H4367     1.0  0.99112  0.51140  0.84807  1.0000
  C   C2720     1.0  0.70583  0.55056  0.98895  1.0000
  H   H4368     1.0  0.68915  0.54004  0.98957  1.0000
  C   C2721     1.0  0.85197  0.45899  0.98975  1.0000
  H   H4369     1.0  0.73782  0.53585  0.98589  1.0000
  C   C2722     1.0  0.99297  0.55407  0.74567  1.0000
  C   C2723     1.0  0.99169  0.41768  0.76546  1.0000
  N   N271      1.0  0.83913  0.46327  0.99050  1.0000
  H   H4370     1.0  0.75505  0.51978  0.98871  1.0000
  C   C2724     1.0  0.99536  0.51431  0.85347  1.0000
  C   C2725     1.0  0.68619  0.56304  0.99032  1.0000
  S   S1089     1.0  0.67333  0.41700  0.99252  1.0000
  H   H4371     1.0  0.98798  0.57289  0.74426  1.0000
  C   C2726     1.0  0.72048  0.50267  0.99108  1.0000
  C   C2727     1.0  0.81912  0.50431  0.98937  1.0000
  N   N272      1.0  0.99346  0.40501  0.76585  1.0000
  Fe  Fe544     1.0  0.99441  0.43539  0.78606  1.0000
  H   H4372     1.0  0.99728  0.38851  0.77810  1.0000
  H   H4373     1.0  0.96893  0.47208  0.74327  1.0000
  H   H4374     1.0  0.99527  0.43964  0.82034  1.0000
  S   S1090     1.0  0.99539  0.50670  0.81142  1.0000
  C   C2728     1.0  0.99580  0.39816  0.77744  1.0000
  H   H4375     1.0  0.99555  0.57215  0.76156  1.0000
  C   C2729     1.0  0.99645  0.56409  0.75881  1.0000
  H   H4376     1.0  0.75404  0.53939  0.99229  1.0000
  H   H4377     1.0  0.84580  0.94132  0.48303  1.0000
  Fe  Fe545     1.0  0.98420  0.66658  0.44711  1.0000
  H   H4378     1.0  0.86456  0.91432  0.47838  1.0000
  H   H4379     1.0  0.85800  0.94446  0.48631  1.0000
  C   C2730     1.0  0.95430  0.77100  0.47985  1.0000
  H   H4380     1.0  0.95858  0.76573  0.45850  1.0000
  H   H4381     1.0  0.73101  0.97699  0.47326  1.0000
  S   S1091     1.0  0.66757  0.98877  0.40215  1.0000
  S   S1092     1.0  0.68425  0.95594  0.40838  1.0000
  C   C2731     1.0  0.76644  0.98466  0.43755  1.0000
  H   H4382     1.0  0.90676  0.91377  0.45632  1.0000
  H   H4383     1.0  0.98550  0.71392  0.49001  1.0000
  H   H4384     1.0  0.93446  0.89361  0.47402  1.0000
  H   H4385     1.0  0.80589  0.96829  0.49092  1.0000
  C   C2732     1.0  0.95307  0.67340  0.46340  1.0000
  S   S1093     1.0  0.73174  0.92912  0.46764  1.0000
  H   H4386     1.0  0.72353  0.97424  0.48846  1.0000
  Fe  Fe546     1.0  0.71076  0.96008  0.46383  1.0000
  S   S1094     1.0  0.72264  0.95271  0.44858  1.0000
  S   S1095     1.0  0.70050  0.97878  0.46064  1.0000
  Fe  Fe547     1.0  0.71700  0.93597  0.45793  1.0000
  S   S1096     1.0  0.71186  0.92584  0.44793  1.0000
  Fe  Fe548     1.0  0.73613  0.94693  0.45956  1.0000
  S   S1097     1.0  0.75303  0.95240  0.44936  1.0000
  S   S1098     1.0  0.70374  0.94382  0.47229  1.0000
  H   H4387     1.0  0.66899  0.94841  0.46355  1.0000
  Fe  Fe549     1.0  0.97951  0.86445  0.47902  1.0000
  H   H4388     1.0  0.68836  0.97286  0.36983  1.0000
  C   C2733     1.0  0.97114  0.77661  0.46532  1.0000
  H   H4389     1.0  0.93890  0.89978  0.45257  1.0000
  H   H4390     1.0  0.74468  0.99107  0.46617  1.0000
  H   H4391     1.0  0.97515  0.76331  0.48612  1.0000
  S   S1099     1.0  0.89571  0.93662  0.46440  1.0000
  N   N273      1.0  0.96586  0.76656  0.47246  1.0000
  C   C2734     1.0  0.76746  0.94698  0.47728  1.0000
  H   H4392     1.0  0.95015  0.76365  0.48554  1.0000
  H   H4393     1.0  0.66426  0.98865  0.37695  1.0000
  Fe  Fe550     1.0  0.80578  0.95246  0.47008  1.0000
  S   S1100     1.0  0.80690  0.97135  0.46326  1.0000
  H   H4394     1.0  0.96026  0.75237  0.46967  1.0000
  Fe  Fe551     1.0  0.83220  0.94328  0.46258  1.0000
  S   S1101     1.0  0.83568  0.96132  0.45485  1.0000
  S   S1102     1.0  0.84658  0.92697  0.46559  1.0000
  Fe  Fe552     1.0  0.82285  0.96632  0.47079  1.0000
  S   S1103     1.0  0.82678  0.97753  0.48041  1.0000
  Fe  Fe553     1.0  0.81950  0.96505  0.44760  1.0000
  S   S1104     1.0  0.81677  0.97893  0.43131  1.0000
  S   S1105     1.0  0.82058  0.94799  0.47932  1.0000
  S   S1106     1.0  0.81709  0.94635  0.45378  1.0000
  Fe  Fe554     1.0  0.98387  0.67486  0.46860  1.0000
  S   S1107     1.0  0.72452  0.95528  0.47443  1.0000
  C   C2735     1.0  0.81994  0.99079  0.43452  1.0000
  C   C2736     1.0  0.92428  0.91608  0.46435  1.0000
  H   H4395     1.0  0.66530  0.99319  0.45702  1.0000
  H   H4396     1.0  0.93803  0.91544  0.48402  1.0000
  C   C2737     1.0  0.71866  0.99206  0.42232  1.0000
  H   H4397     1.0  0.71793  0.99161  0.43174  1.0000
  N   N274      1.0  0.72238  0.98022  0.41955  1.0000
  H   H4398     1.0  0.97660  0.81400  0.45857  1.0000
  S   S1108     1.0  0.98871  0.79454  0.44709  1.0000
  C   C2738     1.0  0.93548  0.66688  0.47512  1.0000
  Fe  Fe555     1.0  0.99664  0.84245  0.47183  1.0000
  S   S1109     1.0  0.66693  0.97751  0.43049  1.0000
  C   C2739     1.0  0.99359  0.80615  0.44896  1.0000
  H   H4399     1.0  0.84347  0.95373  0.48942  1.0000
  N   N275      1.0  0.73645  0.98474  0.48415  1.0000
  H   H4400     1.0  0.97288  0.78156  0.47095  1.0000
  H   H4401     1.0  0.92732  0.90797  0.44494  1.0000
  H   H4402     1.0  0.95538  0.90635  0.47005  1.0000
  H   H4403     1.0  0.92000  0.89844  0.48255  1.0000
  H   H4404     1.0  0.90359  0.90944  0.47200  1.0000
  H   H4405     1.0  0.93223  0.66778  0.46710  1.0000
  C   C2740     1.0  0.73351  0.97388  0.42337  1.0000
  H   H4406     1.0  0.89097  0.97010  0.48395  1.0000
  C   C2741     1.0  0.99463  0.89544  0.46772  1.0000
  S   S1110     1.0  0.91337  0.93793  0.48700  1.0000
  H   H4407     1.0  0.95009  0.68202  0.46614  1.0000
  N   N276      1.0  0.94851  0.66393  0.47270  1.0000
  H   H4408     1.0  0.66608  0.95686  0.38994  1.0000
  N   N277      1.0  0.77592  0.99043  0.43695  1.0000
  H   H4409     1.0  0.70474  0.97789  0.42246  1.0000
  H   H4410     1.0  0.98847  0.90970  0.48298  1.0000
  C   C2742     1.0  0.89275  0.97774  0.48553  1.0000
  C   C2743     1.0  0.88201  0.93404  0.46474  1.0000
  C   C2744     1.0  0.87803  0.92439  0.47268  1.0000
  C   C2745     1.0  0.86739  0.92203  0.47252  1.0000
  C   C2746     1.0  0.86030  0.92969  0.46493  1.0000
  C   C2747     1.0  0.86417  0.93947  0.45714  1.0000
  C   C2748     1.0  0.87512  0.94150  0.45688  1.0000
  H   H4411     1.0  0.94807  0.77697  0.47438  1.0000
  H   H4412     1.0  0.98029  0.89186  0.48929  1.0000
  H   H4413     1.0  0.85888  0.94527  0.45108  1.0000
  H   H4414     1.0  0.87819  0.94894  0.45068  1.0000
  C   C2749     1.0  0.76277  0.95121  0.45815  1.0000
  C   C2750     1.0  0.77394  0.95360  0.45277  1.0000
  C   C2751     1.0  0.78189  0.95265  0.45964  1.0000
  C   C2752     1.0  0.77869  0.94926  0.47188  1.0000
  H   H4415     1.0  0.97259  0.82404  0.48783  1.0000
  C   C2753     1.0  0.75950  0.94795  0.47041  1.0000
  H   H4416     1.0  0.77656  0.95587  0.44328  1.0000
  H   H4417     1.0  0.79060  0.95426  0.45545  1.0000
  H   H4418     1.0  0.75346  0.97706  0.48847  1.0000
  H   H4419     1.0  0.98544  0.90081  0.46806  1.0000
  C   C2754     1.0  0.66781  0.95029  0.45438  1.0000
  H   H4420     1.0  0.78630  0.98571  0.42065  1.0000
  H   H4421     1.0  0.93375  0.91517  0.46408  1.0000
  H   H4422     1.0  0.75092  0.94598  0.47460  1.0000
  C   C2755     1.0  0.72309  0.98176  0.45328  1.0000
  H   H4423     1.0  0.78236  0.97769  0.48114  1.0000
  C   C2756     1.0  0.84844  0.94443  0.48954  1.0000
  H   H4424     1.0  0.93179  0.67537  0.47812  1.0000
  H   H4425     1.0  0.72571  0.97241  0.45384  1.0000
  H   H4426     1.0  0.74098  0.98379  0.44756  1.0000
  C   C2757     1.0  0.69284  0.94812  0.41880  1.0000
  C   C2758     1.0  0.69806  0.93619  0.41905  1.0000
  C   C2759     1.0  0.70415  0.92950  0.42786  1.0000
  C   C2760     1.0  0.70523  0.93473  0.43635  1.0000
  C   C2761     1.0  0.70027  0.94677  0.43594  1.0000
  C   C2762     1.0  0.69405  0.95345  0.42718  1.0000
  H   H4427     1.0  0.69717  0.93203  0.41260  1.0000
  H   H4428     1.0  0.70794  0.92020  0.42817  1.0000
  H   H4429     1.0  0.70093  0.95083  0.44257  1.0000
  H   H4430     1.0  0.69020  0.96270  0.42691  1.0000
  H   H4431     1.0  0.68097  0.97432  0.38461  1.0000
  H   H4432     1.0  0.74071  0.97867  0.41878  1.0000
  H   H4433     1.0  0.68596  0.96003  0.38123  1.0000
  H   H4434     1.0  0.67573  0.95426  0.36917  1.0000
  C   C2763     1.0  0.98994  0.82307  0.45772  1.0000
  C   C2764     1.0  0.95219  0.90113  0.47858  1.0000
  H   H4435     1.0  0.92183  0.92335  0.45688  1.0000
  H   H4436     1.0  0.90722  0.89850  0.46332  1.0000
  C   C2765     1.0  0.73181  0.98827  0.44963  1.0000
  H   H4437     1.0  0.84825  0.98952  0.47631  1.0000
  C   C2766     1.0  0.78217  0.99365  0.42455  1.0000
  H   H4438     1.0  0.76498  0.94429  0.48676  1.0000
  C   C2767     1.0  0.92932  0.90119  0.45288  1.0000
  C   C2768     1.0  0.67213  0.96381  0.36596  1.0000
  H   H4439     1.0  0.97296  0.75633  0.45907  1.0000
  H   H4440     1.0  0.67123  0.98694  0.36215  1.0000
  H   H4441     1.0  0.98938  0.87827  0.48595  1.0000
  C   C2769     1.0  0.66545  0.98321  0.37044  1.0000
  S   S1111     1.0  0.97005  0.88295  0.47180  1.0000
  H   H4442     1.0  0.67858  0.99315  0.46902  1.0000
  C   C2770     1.0  0.68195  0.96941  0.37772  1.0000
  H   H4443     1.0  0.98261  0.75529  0.47486  1.0000
  H   H4444     1.0  0.99493  0.88722  0.46506  1.0000
  Fe  Fe556     1.0  0.66990  0.97093  0.41411  1.0000
  H   H4445     1.0  0.97202  0.80615  0.48208  1.0000
  S   S1112     1.0  0.99597  0.73693  0.46404  1.0000
  S   S1113     1.0  0.78867  0.94769  0.48053  1.0000
  H   H4446     1.0  0.79154  0.98630  0.44382  1.0000
  H   H4447     1.0  0.71984  0.98850  0.47912  1.0000
  H   H4448     1.0  0.97969  0.77360  0.45939  1.0000
  C   C2771     1.0  0.77618  0.98565  0.48326  1.0000
  H   H4449     1.0  0.67610  0.95237  0.44834  1.0000
  C   C2772     1.0  0.98950  0.88644  0.48832  1.0000
  H   H4450     1.0  0.71064  0.97351  0.43535  1.0000
  H   H4451     1.0  0.75072  0.97126  0.47758  1.0000
  C   C2773     1.0  0.72730  0.98094  0.48113  1.0000
  H   H4452     1.0  0.95027  0.67453  0.45506  1.0000
  H   H4453     1.0  0.80003  0.99104  0.47952  1.0000
  H   H4454     1.0  0.91901  0.91904  0.47257  1.0000
  H   H4455     1.0  0.83706  0.98108  0.43755  1.0000
  H   H4456     1.0  0.73094  0.98673  0.40171  1.0000
  C   C2774     1.0  0.97376  0.75863  0.48010  1.0000
  S   S1114     1.0  0.97686  0.84737  0.47730  1.0000
  Fe  Fe557     1.0  0.71879  0.93821  0.48156  1.0000
  H   H4457     1.0  0.73653  0.96482  0.42159  1.0000
  H   H4458     1.0  0.67835  0.96695  0.35771  1.0000
  Fe  Fe558     1.0  0.89794  0.93437  0.48269  1.0000
  H   H4459     1.0  0.97013  0.75089  0.48558  1.0000
  C   C2775     1.0  0.72431  0.98134  0.40673  1.0000
  C   C2776     1.0  0.71300  0.97367  0.42575  1.0000
  H   H4460     1.0  0.92267  0.88726  0.47432  1.0000
  H   H4461     1.0  0.98396  0.82926  0.46283  1.0000
  H   H4462     1.0  0.99068  0.79328  0.47984  1.0000
  H   H4463     1.0  0.67275  0.92204  0.45141  1.0000
  C   C2777     1.0  0.67470  0.92982  0.45306  1.0000
  S   S1115     1.0  0.97214  0.67895  0.48555  1.0000
  N   N278      1.0  0.92196  0.90489  0.46381  1.0000
  H   H4464     1.0  0.96531  0.78302  0.45966  1.0000
  C   C2778     1.0  0.71117  0.98731  0.45610  1.0000
  C   C2779     1.0  0.94235  0.90626  0.48642  1.0000
  C   C2780     1.0  0.92488  0.89566  0.47412  1.0000
  H   H4465     1.0  0.88325  0.91858  0.47878  1.0000
  H   H4466     1.0  0.96284  0.67129  0.46125  1.0000
  C   C2781     1.0  0.99712  0.70756  0.45380  1.0000
  H   H4467     1.0  0.92780  0.89277  0.45219  1.0000
  N   N279      1.0  0.66485  0.94028  0.45192  1.0000
  S   S1116     1.0  0.98030  0.68465  0.45088  1.0000
  H   H4468     1.0  0.78865  0.97410  0.44033  1.0000
  C   C2782     1.0  0.97088  0.80611  0.49127  1.0000
  H   H4469     1.0  0.67930  0.95048  0.48473  1.0000
  C   C2783     1.0  0.90935  0.90668  0.46385  1.0000
  H   H4470     1.0  0.76181  0.98174  0.44681  1.0000
  H   H4471     1.0  0.98797  0.71564  0.46859  1.0000
  H   H4472     1.0  0.88649  0.98969  0.47059  1.0000
  C   C2784     1.0  0.78434  0.98221  0.44392  1.0000
  N   N280      1.0  0.67046  0.97063  0.37495  1.0000
  H   H4473     1.0  0.95525  0.77611  0.48580  1.0000
  H   H4474     1.0  0.86284  0.99294  0.48556  1.0000
  H   H4475     1.0  0.71604  0.98576  0.40358  1.0000
  H   H4476     1.0  0.72745  0.97256  0.40432  1.0000
  C   C2785     1.0  0.99419  0.71642  0.46019  1.0000
  C   C2786     1.0  0.83038  0.98909  0.43818  1.0000
  H   H4477     1.0  0.67075  0.94581  0.43320  1.0000
  H   H4478     1.0  0.76998  0.97671  0.43363  1.0000
  H   H4479     1.0  0.99312  0.70003  0.45729  1.0000
  C   C2787     1.0  0.96431  0.75997  0.46458  1.0000
  C   C2788     1.0  0.74054  0.99422  0.47450  1.0000
  C   C2789     1.0  0.98578  0.81445  0.45527  1.0000
  H   H4480     1.0  0.75968  0.99076  0.43276  1.0000
  H   H4481     1.0  0.86756  0.99312  0.46427  1.0000
  C   C2790     1.0  0.74652  0.97461  0.48582  1.0000
  H   H4482     1.0  0.71573  0.96440  0.42454  1.0000
  H   H4483     1.0  0.73250  0.97293  0.43296  1.0000
  C   C2791     1.0  0.89015  0.98884  0.47803  1.0000
  H   H4484     1.0  0.94943  0.67130  0.48664  1.0000
  H   H4485     1.0  0.77990  0.97938  0.45328  1.0000
  H   H4486     1.0  0.67668  0.92735  0.46198  1.0000
  C   C2792     1.0  0.95789  0.88926  0.48176  1.0000
  H   H4487     1.0  0.68294  0.93149  0.44661  1.0000
  C   C2793     1.0  0.95246  0.66285  0.48354  1.0000
  C   C2794     1.0  0.99747  0.90385  0.48237  1.0000
  H   H4488     1.0  0.69139  0.96621  0.56144  1.0000
  C   C2795     1.0  0.94556  0.70346  0.54092  1.0000
  C   C2796     1.0  0.77773  0.94520  0.50977  1.0000
  H   H4489     1.0  0.90815  0.87535  0.54134  1.0000
  S   S1117     1.0  0.74801  0.98638  0.53099  1.0000
  S   S1118     1.0  0.83704  0.95512  0.54094  1.0000
  S   S1119     1.0  0.79501  0.97786  0.57490  1.0000
  S   S1120     1.0  0.74768  0.97498  0.56422  1.0000
  H   H4490     1.0  0.98653  0.79182  0.52467  1.0000
  H   H4491     1.0  0.82639  0.96522  0.52204  1.0000
  H   H4492     1.0  0.97443  0.70015  0.50599  1.0000
  H   H4493     1.0  0.79062  0.96378  0.56123  1.0000
  C   C2797     1.0  0.86819  0.93121  0.53535  1.0000
  C   C2798     1.0  0.98647  0.71780  0.49693  1.0000
  C   C2799     1.0  0.85804  0.91516  0.54148  1.0000
  S   S1121     1.0  0.98718  0.76568  0.52124  1.0000
  Fe  Fe559     1.0  0.81100  0.96767  0.56447  1.0000
  H   H4494     1.0  0.69370  0.93747  0.55448  1.0000
  H   H4495     1.0  0.79801  0.93772  0.51759  1.0000
  H   H4496     1.0  0.86755  0.98367  0.52694  1.0000
  S   S1122     1.0  0.81443  0.94891  0.56284  1.0000
  C   C2800     1.0  0.71044  0.97283  0.52278  1.0000
  Fe  Fe560     1.0  0.83189  0.97319  0.54483  1.0000
  H   H4497     1.0  0.97839  0.76691  0.57412  1.0000
  S   S1123     1.0  0.82972  0.96707  0.56435  1.0000
  H   H4498     1.0  0.93920  0.71905  0.52863  1.0000
  H   H4499     1.0  0.98002  0.72230  0.51870  1.0000
  H   H4500     1.0  0.84763  0.93595  0.51894  1.0000
  S   S1124     1.0  0.97958  0.74054  0.53678  1.0000
  H   H4501     1.0  0.71725  0.91797  0.52411  1.0000
  N   N281      1.0  0.67889  0.94564  0.50329  1.0000
  C   C2801     1.0  0.99325  0.78853  0.53014  1.0000
  H   H4502     1.0  0.97921  0.78765  0.55185  1.0000
  H   H4503     1.0  0.67417  0.94266  0.52219  1.0000
  H   H4504     1.0  0.74366  0.96712  0.49273  1.0000
  Fe  Fe561     1.0  0.97356  0.75981  0.53694  1.0000
  H   H4505     1.0  0.83104  0.93192  0.51448  1.0000
  Fe  Fe562     1.0  0.91270  0.92122  0.50087  1.0000
  C   C2802     1.0  0.97990  0.66495  0.51761  1.0000
  H   H4506     1.0  0.85605  0.90777  0.53963  1.0000
  C   C2803     1.0  0.79549  0.99009  0.52209  1.0000
  H   H4507     1.0  0.66865  0.96040  0.49317  1.0000
  C   C2804     1.0  0.76101  0.97547  0.56703  1.0000
  C   C2805     1.0  0.73492  0.94252  0.51435  1.0000
  H   H4508     1.0  0.76773  0.93263  0.53047  1.0000
  C   C2806     1.0  0.78199  0.97667  0.57197  1.0000
  C   C2807     1.0  0.78232  0.96918  0.56481  1.0000
  C   C2808     1.0  0.77182  0.96854  0.56239  1.0000
  C   C2809     1.0  0.77116  0.98347  0.57670  1.0000
  H   H4509     1.0  0.77224  0.97850  0.53901  1.0000
  N   N282      1.0  0.84604  0.93684  0.50143  1.0000
  C   C2810     1.0  0.76071  0.98284  0.57428  1.0000
  S   S1125     1.0  0.97143  0.78257  0.49560  1.0000
  C   C2811     1.0  0.69011  0.97211  0.52468  1.0000
  C   C2812     1.0  0.78137  0.97843  0.53369  1.0000
  H   H4510     1.0  0.91674  0.88644  0.53563  1.0000
  C   C2813     1.0  0.84942  0.94142  0.50985  1.0000
  H   H4511     1.0  0.79850  0.95834  0.51140  1.0000
  H   H4512     1.0  0.89103  0.91173  0.53315  1.0000
  H   H4513     1.0  0.97839  0.80248  0.55260  1.0000
  S   S1126     1.0  0.84678  0.93342  0.56726  1.0000
  C   C2814     1.0  0.90812  0.88461  0.54119  1.0000
  H   H4514     1.0  0.77629  0.91845  0.52797  1.0000
  H   H4515     1.0  0.78762  0.97226  0.53905  1.0000
  C   C2815     1.0  0.97418  0.67178  0.50855  1.0000
  H   H4516     1.0  0.94105  0.88252  0.50929  1.0000
  H   H4517     1.0  0.66588  0.94645  0.49391  1.0000
  H   H4518     1.0  0.89863  0.88300  0.52419  1.0000
  C   C2816     1.0  0.68801  0.95204  0.50230  1.0000
  C   C2817     1.0  0.86573  0.92158  0.53300  1.0000
  H   H4519     1.0  0.97267  0.79975  0.54166  1.0000
  S   S1127     1.0  0.90013  0.96313  0.50529  1.0000
  S   S1128     1.0  0.97186  0.76578  0.55341  1.0000
  H   H4520     1.0  0.90689  0.90748  0.53073  1.0000
  C   C2818     1.0  0.98636  0.76389  0.56793  1.0000
  Fe  Fe563     1.0  0.99247  0.74662  0.52052  1.0000
  C   C2819     1.0  0.98561  0.76217  0.55723  1.0000
  S   S1129     1.0  0.81292  0.97517  0.54527  1.0000
  H   H4521     1.0  0.68374  0.95083  0.55810  1.0000
  C   C2820     1.0  0.83334  0.93678  0.50519  1.0000
  H   H4522     1.0  0.77207  0.96252  0.55713  1.0000
  Fe  Fe564     1.0  0.74782  0.97151  0.54690  1.0000
  S   S1130     1.0  0.73189  0.96678  0.54504  1.0000
  Fe  Fe565     1.0  0.73319  0.98046  0.52835  1.0000
  S   S1131     1.0  0.98548  0.67821  0.53743  1.0000
  C   C2821     1.0  0.70674  0.98470  0.52361  1.0000
  Fe  Fe566     1.0  0.83347  0.94905  0.56060  1.0000
  H   H4523     1.0  0.79399  0.92503  0.52817  1.0000
  C   C2822     1.0  0.69277  0.94711  0.55336  1.0000
  H   H4524     1.0  0.90744  0.89388  0.51852  1.0000
  H   H4525     1.0  0.78481  0.94983  0.50424  1.0000
  H   H4526     1.0  0.84652  0.91367  0.55875  1.0000
  C   C2823     1.0  0.85498  0.92819  0.55462  1.0000
  C   C2824     1.0  0.85272  0.91843  0.55231  1.0000
  H   H4527     1.0  0.77210  0.95070  0.51609  1.0000
  N   N283      1.0  0.78369  0.99042  0.53000  1.0000
  S   S1132     1.0  0.87201  0.91749  0.51944  1.0000
  C   C2825     1.0  0.89902  0.89200  0.52445  1.0000
  H   H4528     1.0  0.88223  0.98302  0.51802  1.0000
  C   C2826     1.0  0.68652  0.98397  0.52530  1.0000
  Fe  Fe567     1.0  0.97414  0.76725  0.51077  1.0000
  S   S1133     1.0  0.98474  0.67615  0.56539  1.0000
  H   H4529     1.0  0.82786  0.94588  0.50459  1.0000
  C   C2827     1.0  0.77295  0.92767  0.52349  1.0000
  Fe  Fe568     1.0  0.81763  0.95647  0.54350  1.0000
  C   C2828     1.0  0.86274  0.93457  0.54615  1.0000
  H   H4530     1.0  0.86429  0.94227  0.54785  1.0000
  H   H4531     1.0  0.96749  0.71259  0.51277  1.0000
  C   C2829     1.0  0.82034  0.97242  0.49500  1.0000
  C   C2830     1.0  0.97529  0.70504  0.51216  1.0000
  H   H4532     1.0  0.69256  0.94833  0.50978  1.0000
  H   H4533     1.0  0.66581  0.95585  0.51473  1.0000
  H   H4534     1.0  0.77220  0.94506  0.50388  1.0000
  C   C2831     1.0  0.95381  0.88258  0.49282  1.0000
  Fe  Fe569     1.0  0.74476  0.95459  0.53400  1.0000
  S   S1134     1.0  0.76071  0.95788  0.53752  1.0000
  C   C2832     1.0  0.96960  0.79581  0.49985  1.0000
  Fe  Fe570     1.0  0.75964  0.97240  0.52138  1.0000
  S   S1135     1.0  0.67953  0.96404  0.52662  1.0000
  S   S1136     1.0  0.71674  0.99272  0.52360  1.0000
  H   H4535     1.0  0.87970  0.98153  0.53362  1.0000
  S   S1137     1.0  0.80810  0.95258  0.53206  1.0000
  H   H4536     1.0  0.71965  0.96845  0.52189  1.0000
  C   C2833     1.0  0.98758  0.71473  0.51717  1.0000
  S   S1138     1.0  0.74486  0.96796  0.51714  1.0000
  S   S1139     1.0  0.98100  0.85798  0.49788  1.0000
  H   H4537     1.0  0.87403  0.93628  0.52877  1.0000
  S   S1140     1.0  0.89995  0.93033  0.51466  1.0000
  S   S1141     1.0  0.95978  0.76327  0.52651  1.0000
  S   S1142     1.0  0.74201  0.93656  0.53555  1.0000
  C   C2834     1.0  0.72898  0.94098  0.50659  1.0000
  H   H4538     1.0  0.97619  0.66627  0.52649  1.0000
  H   H4539     1.0  0.97458  0.69910  0.52105  1.0000
  C   C2835     1.0  0.69480  0.99021  0.52482  1.0000
  H   H4540     1.0  0.90421  0.98547  0.50415  1.0000
  C   C2836     1.0  0.79038  0.93389  0.52312  1.0000
  Fe  Fe571     1.0  0.98016  0.84049  0.49563  1.0000
  Fe  Fe572     1.0  0.88598  0.92703  0.50806  1.0000
  H   H4541     1.0  0.87918  0.89658  0.54067  1.0000
  H   H4542     1.0  0.79357  0.91698  0.51121  1.0000
  S   S1143     1.0  0.77509  0.97452  0.50632  1.0000
  H   H4543     1.0  0.99577  0.71817  0.51441  1.0000
  S   S1144     1.0  0.98099  0.74868  0.50816  1.0000
  H   H4544     1.0  0.70497  0.95737  0.52262  1.0000
  H   H4545     1.0  0.93878  0.69910  0.54121  1.0000
  H   H4546     1.0  0.72939  0.94660  0.49792  1.0000
  C   C2837     1.0  0.70212  0.96655  0.52324  1.0000
  C   C2838     1.0  0.88684  0.89044  0.54412  1.0000
  C   C2839     1.0  0.70137  0.94372  0.57008  1.0000
  C   C2840     1.0  0.82589  0.97188  0.50383  1.0000
  H   H4547     1.0  0.89796  0.90627  0.54545  1.0000
  C   C2841     1.0  0.94580  0.71474  0.53383  1.0000
  S   S1145     1.0  0.71475  0.92992  0.50089  1.0000
  H   H4548     1.0  0.85900  0.94136  0.50741  1.0000
  H   H4549     1.0  0.88625  0.88131  0.54457  1.0000
  H   H4550     1.0  0.88570  0.89144  0.55327  1.0000
  C   C2842     1.0  0.72254  0.93214  0.51012  1.0000
  C   C2843     1.0  0.93833  0.89954  0.49751  1.0000
  H   H4551     1.0  0.78248  0.97458  0.52602  1.0000
  H   H4552     1.0  0.96980  0.71917  0.53990  1.0000
  C   C2844     1.0  0.95430  0.69766  0.54732  1.0000
  S   S1146     1.0  0.95456  0.68308  0.55524  1.0000
  H   H4553     1.0  0.99595  0.69443  0.50010  1.0000
  H   H4554     1.0  0.99550  0.75639  0.54127  1.0000
  S   S1147     1.0  0.97054  0.82867  0.51063  1.0000
  C   C2845     1.0  0.82176  0.96613  0.51534  1.0000
  H   H4555     1.0  0.96981  0.69891  0.55190  1.0000
  H   H4556     1.0  0.78552  0.93959  0.52957  1.0000
  H   H4557     1.0  0.67730  0.98829  0.52654  1.0000
  H   H4558     1.0  0.70289  0.93397  0.57136  1.0000
  H   H4559     1.0  0.72809  0.92037  0.53754  1.0000
  Fe  Fe573     1.0  0.96731  0.74448  0.52461  1.0000
  H   H4560     1.0  0.72098  0.94625  0.55372  1.0000
  H   H4561     1.0  0.96567  0.80649  0.52421  1.0000
  H   H4562     1.0  0.78412  0.92560  0.50128  1.0000
  H   H4563     1.0  0.79699  0.93019  0.50102  1.0000
  N   N284      1.0  0.89813  0.89304  0.53657  1.0000
  H   H4564     1.0  0.70703  0.96466  0.55923  1.0000
  H   H4565     1.0  0.96643  0.78811  0.51844  1.0000
  H   H4566     1.0  0.90774  0.88515  0.55032  1.0000
  C   C2846     1.0  0.73458  0.93513  0.52556  1.0000
  C   C2847     1.0  0.70015  0.96247  0.55625  1.0000
  C   C2848     1.0  0.95457  0.72043  0.53336  1.0000
  C   C2849     1.0  0.97997  0.79659  0.54644  1.0000
  S   S1148     1.0  0.95528  0.73397  0.52334  1.0000
  H   H4567     1.0  0.69259  0.94686  0.57564  1.0000
  Fe  Fe574     1.0  0.89926  0.94676  0.50041  1.0000
  H   H4568     1.0  0.69330  0.95106  0.54384  1.0000
  C   C2850     1.0  0.71372  0.94504  0.55052  1.0000
  H   H4569     1.0  0.70051  0.96720  0.54692  1.0000
  H   H4570     1.0  0.71476  0.94959  0.54107  1.0000
  C   C2851     1.0  0.80614  0.96208  0.50930  1.0000
  N   N285      1.0  0.98647  0.70912  0.50824  1.0000
  Fe  Fe575     1.0  0.97336  0.67383  0.55485  1.0000
  C   C2852     1.0  0.89854  0.90515  0.53647  1.0000
  H   H4571     1.0  0.89173  0.89836  0.52060  1.0000
  C   C2853     1.0  0.72826  0.92623  0.52897  1.0000
  H   H4572     1.0  0.70818  0.94550  0.57352  1.0000
  H   H4573     1.0  0.98780  0.70840  0.52580  1.0000
  H   H4574     1.0  0.71527  0.93544  0.55090  1.0000
  C   C2854     1.0  0.72214  0.92486  0.52136  1.0000
  C   C2855     1.0  0.96735  0.80631  0.51502  1.0000
  N   N286      1.0  0.70200  0.94959  0.55755  1.0000
  C   C2856     1.0  0.96770  0.79595  0.51175  1.0000
  N   N287      1.0  0.78269  0.93320  0.51586  1.0000
  H   H4575     1.0  0.74002  0.94919  0.51149  1.0000
  C   C2857     1.0  0.81209  0.96100  0.51803  1.0000
  C   C2858     1.0  0.96308  0.70333  0.54689  1.0000
  C   C2859     1.0  0.96309  0.71481  0.54009  1.0000
  C   C2860     1.0  0.77081  0.98612  0.49503  1.0000
  H   H4576     1.0  0.80096  0.99364  0.49301  1.0000
  H   H4577     1.0  0.85154  0.91876  0.51001  1.0000
  C   C2861     1.0  0.87600  0.98631  0.52573  1.0000
  H   H4578     1.0  0.75236  0.98811  0.57800  1.0000
  H   H4579     1.0  0.96625  0.67849  0.51044  1.0000
  H   H4580     1.0  0.84447  0.95062  0.51022  1.0000
  H   H4581     1.0  0.72801  0.98231  0.50249  1.0000
  C   C2862     1.0  0.94412  0.88774  0.50071  1.0000
  H   H4582     1.0  0.81757  0.99322  0.55277  1.0000
  H   H4583     1.0  0.86256  0.92438  0.49809  1.0000
  C   C2863     1.0  0.78966  0.92613  0.50700  1.0000
  C   C2864     1.0  0.90009  0.98646  0.49697  1.0000
  C   C2865     1.0  0.96946  0.81635  0.50641  1.0000
  S   S1149     1.0  0.84077  0.98841  0.53615  1.0000
  H   H4584     1.0  0.82842  0.98379  0.52148  1.0000
  H   H4585     1.0  0.98530  0.81206  0.52610  1.0000
  H   H4586     1.0  0.77082  0.98923  0.58228  1.0000
  S   S1150     1.0  0.92618  0.90559  0.50764  1.0000
  N   N288      1.0  0.99162  0.79633  0.53822  1.0000
  C   C2866     1.0  0.85292  0.92468  0.50113  1.0000
  H   H4587     1.0  0.67785  0.92796  0.50408  1.0000
  H   H4588     1.0  0.80244  0.98372  0.52635  1.0000
  H   H4589     1.0  0.76668  0.92747  0.51837  1.0000
  H   H4590     1.0  0.83068  0.93259  0.49954  1.0000
  H   H4591     1.0  0.83373  0.97535  0.50168  1.0000
  C   C2867     1.0  0.97880  0.66999  0.49707  1.0000
  H   H4592     1.0  0.97902  0.72564  0.49787  1.0000
  C   C2868     1.0  0.89760  0.97658  0.49511  1.0000
  H   H4593     1.0  0.78933  0.98855  0.54590  1.0000
  C   C2869     1.0  0.97115  0.81627  0.49452  1.0000
  C   C2870     1.0  0.82954  0.99272  0.51821  1.0000
  C   C2871     1.0  0.67005  0.94650  0.51442  1.0000
  H   H4594     1.0  0.79599  0.98713  0.51401  1.0000
  S   S1151     1.0  0.88386  0.94434  0.49511  1.0000
  H   H4595     1.0  0.73802  0.99205  0.49782  1.0000
  H   H4596     1.0  0.68911  0.92893  0.51062  1.0000
  C   C2872     1.0  0.68447  0.93309  0.50324  1.0000
  H   H4597     1.0  0.68414  0.96155  0.50227  1.0000
  H   H4598     1.0  0.99478  0.72107  0.49364  1.0000
  H   H4599     1.0  0.85038  0.92090  0.49504  1.0000
  C   C2873     1.0  0.81031  0.96776  0.49774  1.0000
  C   C2874     1.0  0.73140  0.98917  0.49512  1.0000
  S   S1152     1.0  0.89871  0.91686  0.49516  1.0000
  C   C2875     1.0  0.78311  0.99467  0.54053  1.0000
  C   C2876     1.0  0.99595  0.75814  0.54935  1.0000
  H   H4600     1.0  0.95804  0.87340  0.49530  1.0000
  H   H4601     1.0  0.99115  0.81452  0.53705  1.0000
  C   C2877     1.0  0.99230  0.80836  0.53128  1.0000
  H   H4602     1.0  0.99630  0.77760  0.49593  1.0000
  C   C2878     1.0  0.67296  0.95094  0.49331  1.0000
  H   H4603     1.0  0.99351  0.79782  0.49833  1.0000
  H   H4604     1.0  0.99189  0.88381  0.49706  1.0000
  H   H4605     1.0  0.69495  0.95147  0.49412  1.0000
  H   H4606     1.0  0.69124  0.93205  0.49500  1.0000
  H   H4607     1.0  0.99238  0.77951  0.53511  1.0000
  C   C2879     1.0  0.99652  0.69893  0.50673  1.0000
  H   H4608     1.0  0.99673  0.69227  0.51514  1.0000
  C   C2880     1.0  0.99742  0.76163  0.57069  1.0000
  Fe  Fe576     1.0  0.99739  0.67912  0.54803  1.0000
