data_image0
_chemical_formula_structural       HC2SHFeC2SH2S2CH2CH6C2HFeC3FeSFe2S3CFeHCHCH3CHSFeC3HC2H3CH4NCH2CH3CS2CHFe2H2CNHS2CHCH4FeHC2HCHCH3CSCHC2HSNC2FeHCH5CFeHCSCFeNHS3H2CH9S2HFeHFeHSHC4H3CH3SHCHCHCH2CHSHCHC2H3CH2CHNFeS2FeSFeSCSCFeHCH2NC4H2SHCH2SH2C3NH6SFe2CH3SH2CSH3CNHCH8CHNSC2H3C2H2Fe2H6CH3CHC2SCFeSHCNCSHS2C2SCFeHSHSH2SCHCNC3HCH3C2H3SH5C2SH2CSNC2HC2HCH2CH10CHCHCHSFe2SHS2CHCNH3C2H3CH3SC3H2CNCS2C2HCH2CHC2H5CH2CH2NHCSCHSCHCHSFeH5CNH2Fe2S3C2H2CHC2H3CHCH2CSFeSC2HC3H4CFeSFeSFeSCNC2H3CSH3C2H2CHCH4CS2H2CFeSHC2H2CH2NCH4FeS2CSHCHFe2CSH4CH2SCH2CH3CH2NCFeSHCHCH5SH2C4H3CH4C5H2SCH5C2H2CHCH2CH2C3SHFeHCH2SCHCH5CS2H3NFeC3HC2HCFeSHCHC2HC4HSNCH7CH2C2SH4CFeS2FeCSCHCH3CH3CHFeHFeC2H3SH2SFeCHC2HCFeNCSH2CH2CH3CH5S2C3HC2HCHCH2C2HSC2H2SC2HCHC2H3NSH2CSHCHFeSC3NCHCH6CH6FeSH2C3HCH2CHCSH3CHNHCH3CNCH4SH2C4HFeCH4C2H3NH5SH3FeCSCSFeNC3H2SH4CHC2HCSH3CHS3CFeHS2HFeHCFeCSHC2HCHFeCSHFeCH4NSHCSHC2H4CH3SC2HCHSFeHCH4CH3SC2FeSC2H2CS2H2CHCH2SH6CH2CHCHCHNFeCSC2H2SCH4CH3CHNHCHFe2SC2SHCH5CNSHC2SC5H2CHCH5CH2CH4CNHFeHCSH3SC3HFeH2CHCH4NC2HSHCSH4CH2CHCHNCHSH2CH4CH4CHCHCH4CNHSFe2SC3SCHCHCH2SH2SFeC3H2CHNHSC2HC3SH3CHFe2S2C2HCH3S2HC2H3CH5C2FeSC3HNCH2CSH4CHCNCHCHCFeS4C3H2Fe3CH2CH3C2HCHCH2CHCH2NH2CH2CH4CH3CH2CHCH2SHCNS2HCHCH2SHNHCH10CHSFeC2NC3H2SFe2S2CH2CFeH2SH3SFeSH3S2HC6SH2SCH3SHC4HSNC4H13C3HCFeS2FeHCS2NC2HCH6FeH4C2NSH4CH5CNCH2CH2CH2FeCSFeSC4H3CH2CFeH6SHC3NC2HSHCHSC2HC2HCH3NHCH3CHC2FeSFeSFeS2C2H6SFeC2HCH4C2NH3CH3CHCFeHSHSCNC4H10CHCHCHSCH6SHSFeC2HCHCHCH2CHCHSC2H2CH4CH2CSH2SFeSC2H2C3H2SCSC3HCFeS3H2FeCH2NH2CHCHC2H3SHC2H6CHC2S2CNH2FeSFeCHSH2SHFeSC2FeH6CH2CHC2H2CNHSCHSFeH2CHCH5CHCHCH2NHSCH2CH2NH2FeS2FeSFeSFeHSHC5H4SHC2HCSH4C3H2CHSC2H3CNHCH5CHFeC2HCHSCH4CHSFeHCH3CH2CH2CHNSC2SHCH2CH2C2H2NH3CHSHCSHFeCS2HCHCH2CSC2H2CSFe2H2CHCHCH2SFeSNCH2C2H3CH4FeHCHSHSHCHC3HCHCHCH2C2SH2CH2FeSC2HCHCHNHCSH5SFeNH2CFe2S2CHSCH3CH3CHCH2SC2H3SCFeSHSH2CH6FeSC4HSH2CHSFeSC2HCNH2C2H2FeH2CH4C3SC3H2CH2FeSFeS3CFeSCHCH4CH4CHNH3C3H2FeC2H2FeS2FeSHC2HCHFeSFeSHCH4SH3CH3CSHSC4HFe
_chemical_formula_sum              "H1024 C640 S256 Fe128 N64"
_cell_length_a       50.7859
_cell_length_b       50.9601
_cell_length_c       72.4791
_cell_angle_alpha    90.1878
_cell_angle_beta     90.3392
_cell_angle_gamma    116.98

_space_group_name_H-M_alt    "P 1"
_space_group_IT_number       1

loop_
  _space_group_symop_operation_xyz
  'x, y, z'

loop_
  _atom_site_type_symbol
  _atom_site_label
  _atom_site_symmetry_multiplicity
  _atom_site_fract_x
  _atom_site_fract_y
  _atom_site_fract_z
  _atom_site_occupancy
  H   H1        1.0  0.15408  0.43982  0.15280  1.0000
  C   C1        1.0  0.44453  0.06475  0.08707  1.0000
  C   C2        1.0  0.45264  0.06282  0.10528  1.0000
  S   S1        1.0  0.45222  0.09915  0.07704  1.0000
  H   H2        1.0  0.46379  0.08264  0.11353  1.0000
  Fe  Fe1       1.0  0.49084  0.14247  0.08632  1.0000
  C   C3        1.0  0.42973  0.03872  0.07661  1.0000
  C   C4        1.0  0.51219  0.03880  0.08252  1.0000
  S   S2        1.0  0.49115  0.18558  0.09464  1.0000
  H   H3        1.0  0.42350  0.04006  0.06247  1.0000
  H   H4        1.0  0.50242  0.08585  0.07943  1.0000
  S   S3        1.0  0.52531  0.16460  0.06461  1.0000
  S   S4        1.0  0.52307  0.14442  0.10832  1.0000
  C   C5        1.0  0.52469  0.08920  0.07528  1.0000
  H   H5        1.0  0.52406  0.08532  0.06013  1.0000
  H   H6        1.0  0.51401  0.07412  0.11079  1.0000
  C   C6        1.0  0.44530  0.03513  0.11310  1.0000
  H   H7        1.0  0.48980  0.03468  0.08716  1.0000
  H   H8        1.0  0.51034  0.03274  0.06763  1.0000
  H   H9        1.0  0.45087  0.03386  0.12740  1.0000
  H   H10       1.0  0.51826  0.02347  0.09025  1.0000
  H   H11       1.0  0.05429  0.35317  0.11870  1.0000
  H   H12       1.0  0.45423  0.25916  0.04800  1.0000
  C   C7        1.0  0.47782  0.26861  0.04580  1.0000
  C   C8        1.0  0.49207  0.29468  0.03561  1.0000
  H   H13       1.0  0.48264  0.23412  0.06055  1.0000
  Fe  Fe2       1.0  0.52629  0.18894  0.11500  1.0000
  C   C9        1.0  0.49385  0.25443  0.05295  1.0000
  C   C10       1.0  0.52427  0.26642  0.05000  1.0000
  C   C11       1.0  0.52256  0.30687  0.03296  1.0000
  Fe  Fe3       1.0  0.52902  0.20762  0.07502  1.0000
  S   S5        1.0  0.52879  0.21002  0.14278  1.0000
  Fe  Fe4       1.0  0.15258  0.51566  0.11158  1.0000
  Fe  Fe5       1.0  0.11611  0.45601  0.09374  1.0000
  S   S6        1.0  0.10434  0.49083  0.10395  1.0000
  S   S7        1.0  0.08962  0.40907  0.10354  1.0000
  S   S8        1.0  0.12639  0.47294  0.06465  1.0000
  C   C12       1.0  0.05058  0.38893  0.10523  1.0000
  Fe  Fe6       1.0  0.11778  0.50959  0.07563  1.0000
  H   H14       1.0  0.08978  0.44690  0.13305  1.0000
  C   C13       1.0  0.09801  0.45806  0.14660  1.0000
  H   H15       1.0  0.11196  0.48194  0.14393  1.0000
  C   C14       1.0  0.14075  0.44908  0.14566  1.0000
  H   H16       1.0  0.08777  0.40168  0.14598  1.0000
  H   H17       1.0  0.13393  0.43777  0.13203  1.0000
  H   H18       1.0  0.03918  0.42034  0.09204  1.0000
  C   C15       1.0  0.03930  0.36134  0.11366  1.0000
  H   H19       1.0  0.15561  0.47281  0.14308  1.0000
  S   S9        1.0  0.16400  0.48002  0.10277  1.0000
  Fe  Fe7       1.0  0.17298  0.50098  0.07483  1.0000
  C   C16       1.0  0.26105  0.52194  0.03928  1.0000
  C   C17       1.0  0.23313  0.50479  0.04693  1.0000
  C   C18       1.0  0.21834  0.47463  0.04297  1.0000
  H   H20       1.0  0.19679  0.46126  0.04879  1.0000
  C   C19       1.0  0.23115  0.46195  0.03096  1.0000
  C   C20       1.0  0.46125  0.51129  0.04384  1.0000
  H   H21       1.0  0.45553  0.49265  0.05355  1.0000
  H   H22       1.0  0.41420  0.50186  0.06465  1.0000
  H   H23       1.0  0.40857  0.51188  0.04172  1.0000
  C   C21       1.0  0.42138  0.52047  0.05480  1.0000
  H   H24       1.0  0.44908  0.50184  0.03073  1.0000
  H   H25       1.0  0.48526  0.52075  0.04083  1.0000
  H   H26       1.0  0.07566  0.40968  0.16755  1.0000
  H   H27       1.0  0.10755  0.40296  0.16686  1.0000
  N   N1        1.0  0.11481  0.44524  0.15660  1.0000
  C   C22       1.0  0.09560  0.41348  0.15945  1.0000
  H   H28       1.0  0.07843  0.45588  0.15450  1.0000
  H   H29       1.0  0.10599  0.45820  0.18320  1.0000
  C   C23       1.0  0.12493  0.46046  0.17457  1.0000
  H   H30       1.0  0.13789  0.45152  0.18248  1.0000
  H   H31       1.0  0.13946  0.48451  0.17261  1.0000
  H   H32       1.0  0.48208  0.07332  0.40789  1.0000
  C   C24       1.0  0.43543  0.03120  0.47864  1.0000
  S   S10       1.0  0.49108  0.06144  0.49490  1.0000
  S   S11       1.0  0.47983  0.13297  0.47733  1.0000
  C   C25       1.0  0.46011  0.02990  0.48637  1.0000
  H   H33       1.0  0.43471  0.05206  0.47786  1.0000
  Fe  Fe8       1.0  0.50197  0.10990  0.49263  1.0000
  Fe  Fe9       1.0  0.49430  0.16502  0.50138  1.0000
  H   H34       1.0  0.45993  0.07584  0.43813  1.0000
  H   H35       1.0  0.49221  0.11012  0.44238  1.0000
  C   C26       1.0  0.48280  0.08580  0.44387  1.0000
  N   N2        1.0  0.50132  0.07440  0.43455  1.0000
  H   H36       1.0  0.48117  0.08096  0.45888  1.0000
  S   S12       1.0  0.51243  0.13933  0.51759  1.0000
  S   S13       1.0  0.46676  0.18049  0.51841  1.0000
  C   C27       1.0  0.50408  0.08261  0.41486  1.0000
  H   H37       1.0  0.46472  0.03143  0.43034  1.0000
  C   C28       1.0  0.48748  0.04199  0.43631  1.0000
  H   H38       1.0  0.48562  0.03533  0.45106  1.0000
  H   H39       1.0  0.50061  0.03251  0.42922  1.0000
  H   H40       1.0  0.51446  0.10704  0.41325  1.0000
  H   H41       1.0  0.51804  0.07451  0.40735  1.0000
  Fe  Fe10      1.0  0.52535  0.16221  0.46630  1.0000
  H   H42       1.0  0.52965  0.08176  0.45819  1.0000
  C   C29       1.0  0.53097  0.08741  0.44326  1.0000
  C   C30       1.0  0.50324  0.23951  0.51274  1.0000
  H   H43       1.0  0.51035  0.23282  0.50036  1.0000
  C   C31       1.0  0.51480  0.26954  0.51727  1.0000
  H   H44       1.0  0.53103  0.28577  0.50838  1.0000
  C   C32       1.0  0.48175  0.21834  0.52387  1.0000
  H   H45       1.0  0.09861  0.45391  0.49719  1.0000
  H   H46       1.0  0.09591  0.49980  0.49183  1.0000
  H   H47       1.0  0.04557  0.36457  0.50339  1.0000
  C   C33       1.0  0.04545  0.37769  0.49172  1.0000
  S   S14       1.0  0.10598  0.43948  0.45823  1.0000
  C   C34       1.0  0.07233  0.39684  0.48344  1.0000
  H   H48       1.0  0.09295  0.39836  0.48872  1.0000
  C   C35       1.0  0.07249  0.41395  0.46836  1.0000
  C   C36       1.0  0.04546  0.41118  0.46137  1.0000
  H   H49       1.0  0.04535  0.42405  0.44955  1.0000
  S   S15       1.0  0.15875  0.50789  0.48422  1.0000
  N   N3        1.0  0.07317  0.46927  0.51347  1.0000
  C   C37       1.0  0.09033  0.49967  0.50669  1.0000
  C   C38       1.0  0.04569  0.45412  0.50245  1.0000
  Fe  Fe11      1.0  0.14912  0.46262  0.47432  1.0000
  H   H50       1.0  0.05062  0.45357  0.48754  1.0000
  C   C39       1.0  0.09098  0.45319  0.51161  1.0000
  H   H51       1.0  0.11102  0.46284  0.52049  1.0000
  H   H52       1.0  0.07822  0.42971  0.51562  1.0000
  H   H53       1.0  0.11157  0.51145  0.51441  1.0000
  H   H54       1.0  0.07785  0.51269  0.50816  1.0000
  H   H55       1.0  0.29733  0.48139  0.47400  1.0000
  C   C40       1.0  0.26855  0.49251  0.44646  1.0000
  Fe  Fe12      1.0  0.20724  0.46807  0.49016  1.0000
  H   H56       1.0  0.25532  0.50287  0.44051  1.0000
  C   C41       1.0  0.25954  0.45869  0.51428  1.0000
  S   S16       1.0  0.22049  0.51316  0.50164  1.0000
  C   C42       1.0  0.28605  0.45661  0.51642  1.0000
  Fe  Fe13      1.0  0.17339  0.49493  0.51030  1.0000
  N   N4        1.0  0.29474  0.51426  0.45664  1.0000
  H   H57       1.0  0.27492  0.48220  0.43490  1.0000
  S   S17       1.0  0.24113  0.45094  0.49275  1.0000
  S   S18       1.0  0.19468  0.47818  0.46215  1.0000
  S   S19       1.0  0.16084  0.44855  0.50126  1.0000
  H   H58       1.0  0.25367  0.47445  0.45566  1.0000
  H   H59       1.0  0.27135  0.51046  0.48189  1.0000
  C   C43       1.0  0.31135  0.49937  0.46445  1.0000
  H   H60       1.0  0.22728  0.46817  0.52795  1.0000
  H   H61       1.0  0.29513  0.45018  0.50479  1.0000
  H   H62       1.0  0.33104  0.51498  0.47245  1.0000
  H   H63       1.0  0.31902  0.48926  0.45343  1.0000
  H   H64       1.0  0.53079  0.18628  0.56096  1.0000
  H   H65       1.0  0.24952  0.34403  0.57684  1.0000
  H   H66       1.0  0.25926  0.35151  0.60085  1.0000
  H   H67       1.0  0.30150  0.35537  0.56993  1.0000
  H   H68       1.0  0.38842  0.32790  0.62809  1.0000
  S   S20       1.0  0.49663  0.30992  0.59204  1.0000
  S   S21       1.0  0.44192  0.33615  0.61186  1.0000
  H   H69       1.0  0.47636  0.26433  0.55650  1.0000
  Fe  Fe14      1.0  0.51727  0.33410  0.56617  1.0000
  H   H70       1.0  0.48454  0.35307  0.64490  1.0000
  Fe  Fe15      1.0  0.48495  0.34692  0.59770  1.0000
  H   H71       1.0  0.49580  0.31528  0.63046  1.0000
  S   S22       1.0  0.52045  0.31661  0.53799  1.0000
  H   H72       1.0  0.45528  0.21115  0.54824  1.0000
  C   C44       1.0  0.48403  0.25750  0.54437  1.0000
  C   C45       1.0  0.47208  0.22743  0.53965  1.0000
  C   C46       1.0  0.39694  0.34854  0.62074  1.0000
  C   C47       1.0  0.48540  0.30084  0.64241  1.0000
  H   H73       1.0  0.46165  0.28720  0.63882  1.0000
  H   H74       1.0  0.49606  0.28605  0.64376  1.0000
  H   H75       1.0  0.53207  0.35202  0.65139  1.0000
  C   C48       1.0  0.50535  0.27862  0.53310  1.0000
  H   H76       1.0  0.52917  0.24570  0.55821  1.0000
  H   H77       1.0  0.52277  0.20148  0.54064  1.0000
  H   H78       1.0  0.05310  0.44734  0.53862  1.0000
  S   S23       1.0  0.15972  0.50646  0.53732  1.0000
  H   H79       1.0  0.08627  0.48137  0.54170  1.0000
  C   C49       1.0  0.06584  0.47001  0.53310  1.0000
  H   H80       1.0  0.05229  0.48186  0.53508  1.0000
  C   C50       1.0  0.26219  0.47224  0.54661  1.0000
  H   H81       1.0  0.25262  0.47792  0.55832  1.0000
  C   C51       1.0  0.28869  0.47029  0.54879  1.0000
  H   H82       1.0  0.24178  0.37049  0.58903  1.0000
  H   H83       1.0  0.26950  0.40825  0.56558  1.0000
  C   C52       1.0  0.24782  0.46677  0.52940  1.0000
  H   H84       1.0  0.27729  0.38182  0.55331  1.0000
  S   S24       1.0  0.30473  0.47586  0.57100  1.0000
  H   H85       1.0  0.36060  0.35686  0.62843  1.0000
  C   C53       1.0  0.25818  0.36177  0.58751  1.0000
  H   H86       1.0  0.31151  0.36357  0.59392  1.0000
  C   C54       1.0  0.30868  0.37300  0.58063  1.0000
  C   C55       1.0  0.38111  0.36496  0.62091  1.0000
  H   H87       1.0  0.30020  0.39952  0.61053  1.0000
  H   H88       1.0  0.33106  0.39025  0.57681  1.0000
  H   H89       1.0  0.32014  0.42614  0.59348  1.0000
  C   C56       1.0  0.29800  0.40838  0.59689  1.0000
  H   H90       1.0  0.30677  0.41654  0.56049  1.0000
  H   H91       1.0  0.28308  0.41888  0.59839  1.0000
  C   C57       1.0  0.28511  0.39843  0.56465  1.0000
  H   H92       1.0  0.32116  0.46098  0.53521  1.0000
  N   N5        1.0  0.28748  0.38536  0.58240  1.0000
  Fe  Fe16      1.0  0.41385  0.49513  0.56768  1.0000
  S   S25       1.0  0.37117  0.45362  0.56865  1.0000
  S   S26       1.0  0.35967  0.48115  0.60729  1.0000
  Fe  Fe17      1.0  0.38246  0.45425  0.59862  1.0000
  S   S27       1.0  0.36979  0.41068  0.61241  1.0000
  Fe  Fe18      1.0  0.35126  0.48313  0.57698  1.0000
  S   S28       1.0  0.42674  0.49361  0.59712  1.0000
  C   C58       1.0  0.39154  0.39167  0.61150  1.0000
  S   S29       1.0  0.44774  0.50347  0.54589  1.0000
  C   C59       1.0  0.30080  0.46269  0.53362  1.0000
  Fe  Fe19      1.0  0.40277  0.52077  0.60250  1.0000
  H   H93       1.0  0.42641  0.42255  0.59445  1.0000
  C   C60       1.0  0.41825  0.40195  0.60179  1.0000
  H   H94       1.0  0.52576  0.45191  0.55897  1.0000
  H   H95       1.0  0.50358  0.43931  0.57921  1.0000
  N   N6        1.0  0.51561  0.48421  0.57192  1.0000
  C   C61       1.0  0.42352  0.35847  0.61115  1.0000
  C   C62       1.0  0.50765  0.45340  0.56677  1.0000
  C   C63       1.0  0.52169  0.50223  0.55507  1.0000
  C   C64       1.0  0.43430  0.38531  0.60163  1.0000
  H   H96       1.0  0.45481  0.39310  0.59416  1.0000
  H   H97       1.0  0.48733  0.44361  0.55802  1.0000
  S   S30       1.0  0.50165  0.36861  0.57043  1.0000
  H   H98       1.0  0.50195  0.49405  0.54579  1.0000
  C   C65       1.0  0.49082  0.48519  0.58197  1.0000
  H   H99       1.0  0.47026  0.47607  0.57341  1.0000
  H   H100      1.0  0.48583  0.47217  0.59492  1.0000
  S   S31       1.0  0.52659  0.37449  0.61350  1.0000
  H   H101      1.0  0.49573  0.50820  0.58570  1.0000
  H   H102      1.0  0.45080  0.32475  0.65342  1.0000
  C   C66       1.0  0.47565  0.29866  0.67501  1.0000
  C   C67       1.0  0.52114  0.33680  0.66301  1.0000
  C   C68       1.0  0.47479  0.33778  0.65667  1.0000
  N   N7        1.0  0.48924  0.31854  0.65930  1.0000
  H   H103      1.0  0.47815  0.31129  0.68802  1.0000
  H   H104      1.0  0.48610  0.28386  0.67729  1.0000
  H   H105      1.0  0.45160  0.28451  0.67257  1.0000
  H   H106      1.0  0.47702  0.35142  0.66914  1.0000
  H   H107      1.0  0.52511  0.35042  0.67572  1.0000
  H   H108      1.0  0.39230  0.47713  0.89790  1.0000
  S   S32       1.0  0.46777  0.33259  0.97538  1.0000
  Fe  Fe20      1.0  0.49006  0.34456  0.00312  1.0000
  Fe  Fe21      1.0  0.51362  0.35025  0.96391  1.0000
  C   C69       1.0  0.48253  0.27089  0.98875  1.0000
  H   H109      1.0  0.47191  0.27475  0.97627  1.0000
  H   H110      1.0  0.46602  0.26394  0.00007  1.0000
  H   H111      1.0  0.45579  0.22214  0.96805  1.0000
  S   S33       1.0  0.47103  0.31085  0.02584  1.0000
  H   H112      1.0  0.45166  0.21224  0.99202  1.0000
  H   H113      1.0  0.50092  0.29248  0.99294  1.0000
  C   C70       1.0  0.46778  0.22025  0.98049  1.0000
  S   S34       1.0  0.52835  0.32379  0.94528  1.0000
  H   H114      1.0  0.52789  0.26630  0.00558  1.0000
  H   H115      1.0  0.50346  0.26114  0.95679  1.0000
  H   H116      1.0  0.49328  0.23888  0.01404  1.0000
  C   C71       1.0  0.51417  0.25862  0.96968  1.0000
  N   N8        1.0  0.49319  0.24877  0.98520  1.0000
  H   H117      1.0  0.47500  0.20303  0.97761  1.0000
  C   C72       1.0  0.50820  0.24537  0.00189  1.0000
  H   H118      1.0  0.51588  0.22828  0.99997  1.0000
  H   H119      1.0  0.52313  0.24277  0.96675  1.0000
  H   H120      1.0  0.05627  0.51981  0.02244  1.0000
  H   H121      1.0  0.16206  0.48555  0.97389  1.0000
  H   H122      1.0  0.21941  0.43874  0.02759  1.0000
  H   H123      1.0  0.24421  0.51856  0.97472  1.0000
  H   H124      1.0  0.16721  0.49689  0.00742  1.0000
  H   H125      1.0  0.18832  0.47678  0.01012  1.0000
  C   C73       1.0  0.18988  0.49873  0.00672  1.0000
  H   H126      1.0  0.23276  0.48926  0.99112  1.0000
  N   N9        1.0  0.20331  0.50891  0.98843  1.0000
  S   S35       1.0  0.27295  0.46379  0.00642  1.0000
  C   C74       1.0  0.23330  0.51099  0.98828  1.0000
  C   C75       1.0  0.18488  0.48769  0.97412  1.0000
  H   H127      1.0  0.19437  0.49466  0.96013  1.0000
  H   H128      1.0  0.18313  0.46539  0.97663  1.0000
  H   H129      1.0  0.20321  0.51425  0.01785  1.0000
  C   C76       1.0  0.25886  0.47929  0.02305  1.0000
  C   C77       1.0  0.27398  0.50923  0.02748  1.0000
  H   H130      1.0  0.47533  0.44009  0.98708  1.0000
  H   H131      1.0  0.42238  0.51121  0.90565  1.0000
  Fe  Fe22      1.0  0.31755  0.49422  0.99467  1.0000
  Fe  Fe23      1.0  0.34970  0.52067  0.95908  1.0000
  H   H132      1.0  0.39549  0.51584  0.94156  1.0000
  H   H133      1.0  0.43262  0.52093  0.93930  1.0000
  H   H134      1.0  0.40837  0.49499  0.95566  1.0000
  H   H135      1.0  0.41148  0.44833  0.91688  1.0000
  H   H136      1.0  0.44203  0.48256  0.92391  1.0000
  H   H137      1.0  0.38493  0.50481  0.90875  1.0000
  C   C78       1.0  0.40940  0.50415  0.94159  1.0000
  H   H138      1.0  0.35329  0.46884  0.93174  1.0000
  H   H139      1.0  0.36735  0.44821  0.94502  1.0000
  H   H140      1.0  0.36007  0.44082  0.92081  1.0000
  C   C79       1.0  0.36865  0.45868  0.93138  1.0000
  H   H141      1.0  0.38769  0.40244  0.96404  1.0000
  C   C80       1.0  0.40536  0.41989  0.97169  1.0000
  C   C81       1.0  0.42403  0.46622  0.98863  1.0000
  S   S36       1.0  0.34033  0.47862  0.97385  1.0000
  C   C82       1.0  0.40125  0.44355  0.97878  1.0000
  Fe  Fe24      1.0  0.38175  0.50616  0.99001  1.0000
  S   S37       1.0  0.42038  0.49700  0.99715  1.0000
  H   H142      1.0  0.38039  0.44409  0.97680  1.0000
  C   C83       1.0  0.39977  0.49403  0.90907  1.0000
  N   N10       1.0  0.39919  0.48082  0.92730  1.0000
  C   C84       1.0  0.41888  0.46656  0.92719  1.0000
  S   S38       1.0  0.35832  0.51842  0.01210  1.0000
  H   H143      1.0  0.41943  0.45700  0.94090  1.0000
  S   S39       1.0  0.51806  0.39580  0.96021  1.0000
  S   S40       1.0  0.49307  0.39008  0.00331  1.0000
  C   C85       1.0  0.45064  0.46469  0.99171  1.0000
  C   C86       1.0  0.45464  0.44090  0.98479  1.0000
  S   S41       1.0  0.43697  0.38920  0.96471  1.0000
  C   C87       1.0  0.43209  0.41849  0.97462  1.0000
  Fe  Fe25      1.0  0.47419  0.37940  0.97458  1.0000
  H   H144      1.0  0.46837  0.48210  0.99933  1.0000
  S   S42       1.0  0.34367  0.52216  0.92832  1.0000
  H   H145      1.0  0.05108  0.55189  0.04642  1.0000
  S   S43       1.0  0.09583  0.53011  0.05774  1.0000
  H   H146      1.0  0.09989  0.57374  0.03074  1.0000
  H   H147      1.0  0.23100  0.65133  0.03793  1.0000
  S   S44       1.0  0.16443  0.53831  0.08444  1.0000
  C   C88       1.0  0.22113  0.57772  0.12659  1.0000
  H   H148      1.0  0.21261  0.56889  0.11306  1.0000
  C   C89       1.0  0.12010  0.54657  0.03942  1.0000
  N   N11       1.0  0.21734  0.62074  0.06049  1.0000
  C   C90       1.0  0.22425  0.62051  0.08031  1.0000
  C   C91       1.0  0.18582  0.61347  0.05821  1.0000
  C   C92       1.0  0.22345  0.59875  0.05053  1.0000
  H   H149      1.0  0.24785  0.62590  0.08256  1.0000
  C   C93       1.0  0.23580  0.65030  0.05286  1.0000
  H   H150      1.0  0.25977  0.65665  0.05420  1.0000
  H   H151      1.0  0.23168  0.66743  0.06002  1.0000
  H   H152      1.0  0.26216  0.61176  0.11634  1.0000
  C   C94       1.0  0.24925  0.60193  0.12849  1.0000
  C   C95       1.0  0.20405  0.56503  0.14218  1.0000
  H   H153      1.0  0.24661  0.60253  0.05272  1.0000
  H   H154      1.0  0.17997  0.61348  0.04342  1.0000
  H   H155      1.0  0.18037  0.62966  0.06544  1.0000
  S   S45       1.0  0.16795  0.53556  0.14005  1.0000
  H   H156      1.0  0.17103  0.59123  0.06365  1.0000
  H   H157      1.0  0.21966  0.63668  0.08827  1.0000
  H   H158      1.0  0.21076  0.59848  0.08643  1.0000
  H   H159      1.0  0.27239  0.68657  0.14072  1.0000
  H   H160      1.0  0.20875  0.57597  0.05522  1.0000
  C   C96       1.0  0.26089  0.61324  0.14602  1.0000
  C   C97       1.0  0.14334  0.53954  0.03645  1.0000
  S   S46       1.0  0.29566  0.64474  0.14750  1.0000
  H   H161      1.0  0.21992  0.59944  0.03541  1.0000
  H   H162      1.0  0.14582  0.52352  0.04489  1.0000
  C   C98       1.0  0.11757  0.56788  0.02843  1.0000
  S   S47       1.0  0.21655  0.52275  0.05967  1.0000
  N   N12       1.0  0.40063  0.63721  0.11689  1.0000
  C   C99       1.0  0.36922  0.62848  0.12088  1.0000
  C   C100      1.0  0.37759  0.58132  0.03841  1.0000
  H   H163      1.0  0.37503  0.56126  0.06485  1.0000
  C   C101      1.0  0.38870  0.57881  0.05566  1.0000
  C   C102      1.0  0.40590  0.64214  0.09688  1.0000
  H   H164      1.0  0.39489  0.59276  0.11496  1.0000
  C   C103      1.0  0.40795  0.61355  0.12282  1.0000
  H   H165      1.0  0.36455  0.62443  0.13590  1.0000
  H   H166      1.0  0.40343  0.60866  0.13775  1.0000
  C   C104      1.0  0.41950  0.66463  0.12704  1.0000
  H   H167      1.0  0.44344  0.67110  0.12512  1.0000
  H   H168      1.0  0.41505  0.66197  0.14209  1.0000
  H   H169      1.0  0.40085  0.65997  0.09187  1.0000
  H   H170      1.0  0.42937  0.64840  0.09347  1.0000
  H   H171      1.0  0.39203  0.62184  0.08878  1.0000
  H   H172      1.0  0.27260  0.54529  0.04230  1.0000
  H   H173      1.0  0.35534  0.56583  0.03439  1.0000
  H   H174      1.0  0.35434  0.60786  0.11339  1.0000
  H   H175      1.0  0.36292  0.64591  0.11679  1.0000
  H   H176      1.0  0.43173  0.61971  0.12051  1.0000
  C   C105      1.0  0.41768  0.59829  0.06072  1.0000
  H   H177      1.0  0.41551  0.68333  0.12246  1.0000
  C   C106      1.0  0.42394  0.62382  0.03165  1.0000
  H   H178      1.0  0.45591  0.57543  0.04358  1.0000
  C   C107      1.0  0.43523  0.62110  0.04887  1.0000
  H   H179      1.0  0.46464  0.56229  0.07528  1.0000
  S   S48       1.0  0.43182  0.59295  0.08161  1.0000
  Fe  Fe26      1.0  0.52345  0.66413  0.11239  1.0000
  Fe  Fe27      1.0  0.48038  0.62237  0.08464  1.0000
  S   S49       1.0  0.50204  0.61507  0.10959  1.0000
  H   H180      1.0  0.45766  0.63626  0.05279  1.0000
  S   S50       1.0  0.49887  0.67094  0.08863  1.0000
  S   S51       1.0  0.51561  0.62502  0.06521  1.0000
  C   C108      1.0  0.46979  0.54521  0.06908  1.0000
  H   H181      1.0  0.49417  0.55551  0.06712  1.0000
  C   C109      1.0  0.46172  0.55821  0.03824  1.0000
  N   N13       1.0  0.45355  0.53381  0.05150  1.0000
  H   H182      1.0  0.48586  0.56908  0.03548  1.0000
  H   H183      1.0  0.41485  0.53688  0.06066  1.0000
  H   H184      1.0  0.48295  0.62769  0.14610  1.0000
  C   C110      1.0  0.49045  0.67208  0.15150  1.0000
  C   C111      1.0  0.47485  0.64145  0.15293  1.0000
  H   H185      1.0  0.46401  0.52747  0.07948  1.0000
  H   H186      1.0  0.30927  0.69332  0.11674  1.0000
  H   H187      1.0  0.25994  0.70873  0.12752  1.0000
  C   C112      1.0  0.27628  0.70959  0.13810  1.0000
  H   H188      1.0  0.27138  0.71803  0.15116  1.0000
  H   H189      1.0  0.29745  0.71602  0.10351  1.0000
  H   H190      1.0  0.29608  0.75951  0.11815  1.0000
  S   S52       1.0  0.37341  0.84451  0.09156  1.0000
  C   C113      1.0  0.28781  0.77119  0.06113  1.0000
  C   C114      1.0  0.30184  0.82196  0.05277  1.0000
  C   C115      1.0  0.30373  0.80151  0.06482  1.0000
  H   H191      1.0  0.31701  0.80894  0.07719  1.0000
  H   H192      1.0  0.28938  0.75560  0.07060  1.0000
  C   C116      1.0  0.26974  0.76093  0.04538  1.0000
  N   N14       1.0  0.30693  0.72830  0.13209  1.0000
  C   C117      1.0  0.31127  0.75868  0.12900  1.0000
  S   S53       1.0  0.25046  0.72253  0.04146  1.0000
  S   S54       1.0  0.34996  0.83659  0.14322  1.0000
  C   C118      1.0  0.31255  0.71631  0.11479  1.0000
  C   C119      1.0  0.28349  0.81173  0.03709  1.0000
  H   H193      1.0  0.33428  0.77352  0.12462  1.0000
  C   C120      1.0  0.36787  0.81736  0.15305  1.0000
  H   H194      1.0  0.36894  0.83696  0.04856  1.0000
  H   H195      1.0  0.30733  0.76847  0.14181  1.0000
  C   C121      1.0  0.32770  0.72855  0.14652  1.0000
  H   H196      1.0  0.33566  0.72978  0.11008  1.0000
  C   C122      1.0  0.26759  0.78130  0.03333  1.0000
  C   C123      1.0  0.38197  0.85181  0.03725  1.0000
  H   H197      1.0  0.32618  0.70633  0.14863  1.0000
  H   H198      1.0  0.35103  0.74355  0.14292  1.0000
  H   H199      1.0  0.52475  0.84564  0.11317  1.0000
  H   H200      1.0  0.40318  0.83220  0.13334  1.0000
  H   H201      1.0  0.46860  0.84198  0.05042  1.0000
  C   C124      1.0  0.49605  0.82266  0.08133  1.0000
  H   H202      1.0  0.47898  0.83059  0.08239  1.0000
  H   H203      1.0  0.49311  0.81166  0.06765  1.0000
  C   C125      1.0  0.39341  0.81843  0.14520  1.0000
  H   H204      1.0  0.49125  0.80559  0.09208  1.0000
  H   H205      1.0  0.42608  0.80240  0.14656  1.0000
  N   N15       1.0  0.52616  0.84717  0.08352  1.0000
  H   H206      1.0  0.37917  0.79835  0.03363  1.0000
  C   C126      1.0  0.40633  0.80155  0.15269  1.0000
  S   S55       1.0  0.51768  0.80639  0.03360  1.0000
  C   C127      1.0  0.52983  0.77962  0.03801  1.0000
  H   H207      1.0  0.49225  0.75386  0.05499  1.0000
  S   S56       1.0  0.52286  0.68866  0.13828  1.0000
  C   C128      1.0  0.51258  0.75561  0.04922  1.0000
  H   H208      1.0  0.50744  0.71488  0.06116  1.0000
  C   C129      1.0  0.52119  0.73351  0.05280  1.0000
  H   H209      1.0  0.28838  0.94052  0.10279  1.0000
  S   S57       1.0  0.32292  0.86030  0.05667  1.0000
  Fe  Fe28      1.0  0.37196  0.86502  0.11862  1.0000
  H   H210      1.0  0.29653  0.97146  0.11778  1.0000
  H   H211      1.0  0.32879  0.95765  0.13730  1.0000
  H   H212      1.0  0.31988  0.92625  0.12252  1.0000
  H   H213      1.0  0.30327  0.97704  0.09343  1.0000
  H   H214      1.0  0.35773  0.95202  0.12683  1.0000
  C   C130      1.0  0.35510  0.99894  0.11163  1.0000
  N   N16       1.0  0.33463  0.96751  0.10830  1.0000
  H   H215      1.0  0.37773  0.00210  0.11499  1.0000
  H   H216      1.0  0.36627  0.95861  0.09352  1.0000
  Fe  Fe29      1.0  0.35778  0.87527  0.07933  1.0000
  Fe  Fe30      1.0  0.40048  0.92781  0.10300  1.0000
  S   S58       1.0  0.41914  0.97492  0.11402  1.0000
  S   S59       1.0  0.35314  0.89366  0.10669  1.0000
  S   S60       1.0  0.40347  0.91203  0.07444  1.0000
  C   C131      1.0  0.42297  0.01101  0.08430  1.0000
  C   C132      1.0  0.43037  0.00909  0.10271  1.0000
  H   H217      1.0  0.41159  0.99120  0.07610  1.0000
  H   H218      1.0  0.32856  0.93351  0.08852  1.0000
  C   C133      1.0  0.34385  0.95701  0.09167  1.0000
  H   H219      1.0  0.34457  0.97019  0.07930  1.0000
  C   C134      1.0  0.33519  0.95008  0.12444  1.0000
  C   C135      1.0  0.30435  0.96399  0.10545  1.0000
  H   H220      1.0  0.37422  0.86891  0.03567  1.0000
  H   H221      1.0  0.34796  0.00804  0.12348  1.0000
  H   H222      1.0  0.51221  0.87014  0.10300  1.0000
  C   C136      1.0  0.52871  0.86143  0.10169  1.0000
  H   H223      1.0  0.52843  0.85870  0.05484  1.0000
  C   C137      1.0  0.53175  0.86902  0.06878  1.0000
  H   H224      1.0  0.51660  0.87930  0.06985  1.0000
  H   H225      1.0  0.40538  0.86316  0.04190  1.0000
  C   C138      1.0  0.46932  0.86195  0.04486  1.0000
  S   S61       1.0  0.41877  0.90025  0.11725  1.0000
  Fe  Fe31      1.0  0.41854  0.88234  0.08899  1.0000
  S   S62       1.0  0.45408  0.87131  0.07916  1.0000
  C   C139      1.0  0.46260  0.88046  0.05598  1.0000
  C   C140      1.0  0.46287  0.90589  0.04850  1.0000
  H   H226      1.0  0.45816  0.92053  0.05713  1.0000
  C   C141      1.0  0.47039  0.91296  0.02991  1.0000
  C   C142      1.0  0.21571  0.57627  0.15974  1.0000
  C   C143      1.0  0.24415  0.60015  0.16168  1.0000
  H   H227      1.0  0.20266  0.56657  0.17187  1.0000
  H   H228      1.0  0.25284  0.60877  0.17525  1.0000
  H   H229      1.0  0.39435  0.64218  0.26770  1.0000
  H   H230      1.0  0.39403  0.58188  0.23844  1.0000
  C   C144      1.0  0.34284  0.66772  0.26516  1.0000
  Fe  Fe32      1.0  0.32453  0.65904  0.17338  1.0000
  S   S63       1.0  0.33173  0.63193  0.19532  1.0000
  Fe  Fe33      1.0  0.37977  0.65587  0.18806  1.0000
  S   S64       1.0  0.40470  0.62919  0.18441  1.0000
  Fe  Fe34      1.0  0.34224  0.67044  0.21461  1.0000
  S   S65       1.0  0.32329  0.66023  0.24377  1.0000
  C   C145      1.0  0.42471  0.65648  0.23582  1.0000
  N   N17       1.0  0.40237  0.62698  0.24162  1.0000
  C   C146      1.0  0.40097  0.62576  0.26199  1.0000
  C   C147      1.0  0.37315  0.62122  0.23404  1.0000
  H   H231      1.0  0.36661  0.63832  0.23853  1.0000
  H   H232      1.0  0.35549  0.59955  0.23854  1.0000
  H   H233      1.0  0.37321  0.62109  0.21871  1.0000
  C   C148      1.0  0.41060  0.60447  0.23457  1.0000
  S   S66       1.0  0.37205  0.68005  0.16481  1.0000
  H   H234      1.0  0.41922  0.67405  0.24090  1.0000
  H   H235      1.0  0.41203  0.60504  0.21921  1.0000
  H   H236      1.0  0.42619  0.65816  0.22049  1.0000
  C   C149      1.0  0.43835  0.64619  0.17246  1.0000
  C   C150      1.0  0.45392  0.67686  0.17110  1.0000
  H   H237      1.0  0.42274  0.63045  0.26825  1.0000
  H   H238      1.0  0.44710  0.66155  0.24116  1.0000
  C   C151      1.0  0.37340  0.68545  0.26634  1.0000
  H   H239      1.0  0.38445  0.60373  0.26685  1.0000
  C   C152      1.0  0.44920  0.62858  0.16367  1.0000
  H   H240      1.0  0.43743  0.60487  0.16483  1.0000
  H   H241      1.0  0.43252  0.60806  0.24002  1.0000
  H   H242      1.0  0.32298  0.73581  0.16004  1.0000
  H   H243      1.0  0.33581  0.79881  0.17468  1.0000
  C   C153      1.0  0.35545  0.79953  0.16848  1.0000
  S   S67       1.0  0.39087  0.69243  0.20862  1.0000
  S   S68       1.0  0.33076  0.69593  0.19302  1.0000
  H   H244      1.0  0.35851  0.76868  0.18773  1.0000
  H   H245      1.0  0.38568  0.69547  0.25400  1.0000
  C   C154      1.0  0.39350  0.78315  0.16783  1.0000
  Fe  Fe35      1.0  0.37883  0.71497  0.18573  1.0000
  S   S69       1.0  0.40919  0.76096  0.17620  1.0000
  H   H246      1.0  0.44579  0.69066  0.17790  1.0000
  C   C155      1.0  0.36822  0.78243  0.17585  1.0000
  C   C156      1.0  0.48014  0.68976  0.16083  1.0000
  H   H247      1.0  0.49225  0.71349  0.15987  1.0000
  H   H248      1.0  0.35690  0.01267  0.09932  1.0000
  C   C157      1.0  0.26412  0.67205  0.38474  1.0000
  H   H249      1.0  0.28359  0.67383  0.37685  1.0000
  H   H250      1.0  0.27242  0.62322  0.38750  1.0000
  N   N18       1.0  0.25852  0.65263  0.40089  1.0000
  C   C158      1.0  0.25284  0.62287  0.39460  1.0000
  H   H251      1.0  0.24485  0.66371  0.37511  1.0000
  H   H252      1.0  0.21237  0.64158  0.40205  1.0000
  H   H253      1.0  0.23387  0.61328  0.38476  1.0000
  H   H254      1.0  0.30353  0.64176  0.28071  1.0000
  Fe  Fe36      1.0  0.34299  0.63362  0.38311  1.0000
  S   S70       1.0  0.30705  0.58791  0.38962  1.0000
  S   S71       1.0  0.38580  0.64225  0.36914  1.0000
  C   C159      1.0  0.32718  0.65544  0.28145  1.0000
  S   S72       1.0  0.33277  0.66177  0.36331  1.0000
  H   H255      1.0  0.32950  0.65063  0.31104  1.0000
  C   C160      1.0  0.34185  0.66047  0.29869  1.0000
  H   H256      1.0  0.25419  0.53876  0.40220  1.0000
  Fe  Fe37      1.0  0.37728  0.67365  0.35103  1.0000
  Fe  Fe38      1.0  0.40599  0.67963  0.38955  1.0000
  C   C161      1.0  0.37244  0.67793  0.29981  1.0000
  S   S73       1.0  0.39231  0.68506  0.32106  1.0000
  H   H257      1.0  0.26905  0.69486  0.38901  1.0000
  H   H258      1.0  0.34832  0.77547  0.32050  1.0000
  H   H259      1.0  0.33208  0.72578  0.33443  1.0000
  H   H260      1.0  0.36822  0.76695  0.30298  1.0000
  C   C162      1.0  0.36987  0.77578  0.31726  1.0000
  H   H261      1.0  0.38703  0.79919  0.31722  1.0000
  H   H262      1.0  0.35799  0.77017  0.35374  1.0000
  S   S74       1.0  0.33722  0.72835  0.39076  1.0000
  C   C163      1.0  0.35385  0.72750  0.33027  1.0000
  H   H263      1.0  0.35131  0.71758  0.31625  1.0000
  H   H264      1.0  0.35926  0.71357  0.33980  1.0000
  C   C164      1.0  0.37927  0.77072  0.34946  1.0000
  H   H265      1.0  0.38468  0.75800  0.35998  1.0000
  H   H266      1.0  0.40476  0.74919  0.31191  1.0000
  H   H267      1.0  0.41219  0.74634  0.33572  1.0000
  C   C165      1.0  0.40581  0.75914  0.32579  1.0000
  H   H268      1.0  0.42399  0.78204  0.32570  1.0000
  H   H269      1.0  0.39671  0.79395  0.35037  1.0000
  N   N19       1.0  0.37721  0.75831  0.33072  1.0000
  C   C166      1.0  0.38807  0.69049  0.28356  1.0000
  Fe  Fe39      1.0  0.35706  0.69783  0.38398  1.0000
  S   S75       1.0  0.40083  0.71180  0.37059  1.0000
  H   H270      1.0  0.41171  0.70423  0.28429  1.0000
  C   C167      1.0  0.28464  0.66486  0.41326  1.0000
  H   H271      1.0  0.30446  0.66582  0.40622  1.0000
  C   C168      1.0  0.23252  0.65076  0.41097  1.0000
  H   H272      1.0  0.29032  0.68777  0.41772  1.0000
  H   H273      1.0  0.23610  0.67285  0.41592  1.0000
  H   H274      1.0  0.22773  0.63620  0.42324  1.0000
  H   H275      1.0  0.24759  0.60739  0.40639  1.0000
  H   H276      1.0  0.28100  0.65129  0.42585  1.0000
  S   S76       1.0  0.23383  0.56775  0.46327  1.0000
  H   H277      1.0  0.19245  0.55260  0.51167  1.0000
  H   H278      1.0  0.20022  0.60387  0.50949  1.0000
  C   C169      1.0  0.18220  0.56081  0.52161  1.0000
  C   C170      1.0  0.18679  0.58996  0.52045  1.0000
  C   C171      1.0  0.24511  0.55053  0.42924  1.0000
  C   C172      1.0  0.25430  0.57222  0.44301  1.0000
  H   H279      1.0  0.22490  0.53032  0.43093  1.0000
  H   H280      1.0  0.22246  0.66151  0.50321  1.0000
  H   H281      1.0  0.23287  0.68003  0.48148  1.0000
  C   C173      1.0  0.22729  0.68243  0.49599  1.0000
  H   H282      1.0  0.50944  0.87416  0.49772  1.0000
  H   H283      1.0  0.27365  0.68294  0.51428  1.0000
  H   H284      1.0  0.20640  0.68456  0.49586  1.0000
  H   H285      1.0  0.28756  0.61525  0.45125  1.0000
  C   C174      1.0  0.28022  0.59850  0.44056  1.0000
  C   C175      1.0  0.26165  0.55538  0.41298  1.0000
  C   C176      1.0  0.28512  0.52739  0.47175  1.0000
  C   C177      1.0  0.28747  0.58187  0.41045  1.0000
  C   C178      1.0  0.29685  0.60323  0.42442  1.0000
  H   H286      1.0  0.31689  0.62342  0.42282  1.0000
  H   H287      1.0  0.41400  0.63881  0.42077  1.0000
  S   S77       1.0  0.36397  0.66894  0.40469  1.0000
  C   C179      1.0  0.43393  0.65028  0.42894  1.0000
  H   H288      1.0  0.42307  0.61473  0.44824  1.0000
  H   H289      1.0  0.43494  0.62607  0.50744  1.0000
  H   H290      1.0  0.33413  0.55425  0.45101  1.0000
  H   H291      1.0  0.27157  0.53787  0.46646  1.0000
  H   H292      1.0  0.30424  0.54453  0.47942  1.0000
  C   C180      1.0  0.43912  0.63671  0.44449  1.0000
  C   C181      1.0  0.31387  0.53770  0.44391  1.0000
  H   H293      1.0  0.30216  0.54975  0.43815  1.0000
  H   H294      1.0  0.32092  0.52858  0.43201  1.0000
  C   C182      1.0  0.40896  0.57529  0.52685  1.0000
  H   H295      1.0  0.40358  0.57209  0.51185  1.0000
  C   C183      1.0  0.45494  0.67845  0.42376  1.0000
  H   H296      1.0  0.52717  0.63662  0.45644  1.0000
  H   H297      1.0  0.50838  0.60905  0.40836  1.0000
  C   C184      1.0  0.53180  0.66293  0.42378  1.0000
  H   H298      1.0  0.46063  0.57426  0.52565  1.0000
  H   H299      1.0  0.46004  0.64721  0.52538  1.0000
  C   C185      1.0  0.43846  0.62767  0.52268  1.0000
  C   C186      1.0  0.52246  0.62221  0.44409  1.0000
  C   C187      1.0  0.46511  0.65135  0.45502  1.0000
  S   S78       1.0  0.47183  0.63333  0.47387  1.0000
  H   H300      1.0  0.45801  0.59356  0.50567  1.0000
  Fe  Fe40      1.0  0.51644  0.65667  0.48811  1.0000
  H   H301      1.0  0.49820  0.61250  0.44150  1.0000
  C   C188      1.0  0.46111  0.59518  0.52092  1.0000
  H   H302      1.0  0.48365  0.61316  0.52385  1.0000
  H   H303      1.0  0.50771  0.65432  0.42088  1.0000
  S   S79       1.0  0.52186  0.68035  0.51498  1.0000
  C   C189      1.0  0.48568  0.67978  0.45010  1.0000
  H   H304      1.0  0.49866  0.53942  0.52413  1.0000
  C   C190      1.0  0.53236  0.61888  0.41189  1.0000
  H   H305      1.0  0.52797  0.60410  0.44785  1.0000
  H   H306      1.0  0.28573  0.70083  0.49239  1.0000
  H   H307      1.0  0.29666  0.72210  0.51338  1.0000
  H   H308      1.0  0.26477  0.73324  0.48025  1.0000
  H   H309      1.0  0.23907  0.73982  0.49401  1.0000
  C   C191      1.0  0.24225  0.71115  0.52412  1.0000
  S   S80       1.0  0.35855  0.82500  0.49748  1.0000
  S   S81       1.0  0.27686  0.81065  0.49467  1.0000
  H   H310      1.0  0.34590  0.80411  0.43590  1.0000
  H   H311      1.0  0.32123  0.76821  0.41046  1.0000
  H   H312      1.0  0.22113  0.77409  0.51159  1.0000
  N   N20       1.0  0.25146  0.70792  0.50528  1.0000
  Fe  Fe41      1.0  0.32522  0.84037  0.48948  1.0000
  C   C192      1.0  0.26765  0.79882  0.51765  1.0000
  C   C193      1.0  0.34191  0.77051  0.41615  1.0000
  C   C194      1.0  0.25832  0.73493  0.49466  1.0000
  H   H313      1.0  0.27701  0.75445  0.50104  1.0000
  C   C195      1.0  0.23818  0.77992  0.52205  1.0000
  C   C196      1.0  0.27808  0.70321  0.50638  1.0000
  H   H314      1.0  0.22157  0.71365  0.52389  1.0000
  C   C197      1.0  0.35583  0.79085  0.43056  1.0000
  Fe  Fe42      1.0  0.38003  0.84423  0.47053  1.0000
  S   S82       1.0  0.45050  0.69556  0.40368  1.0000
  H   H315      1.0  0.51944  0.84459  0.49720  1.0000
  C   C198      1.0  0.50168  0.85054  0.50118  1.0000
  H   H316      1.0  0.42867  0.82589  0.49133  1.0000
  C   C199      1.0  0.47714  0.83428  0.47167  1.0000
  C   C200      1.0  0.46376  0.80052  0.49722  1.0000
  H   H317      1.0  0.39171  0.74357  0.41105  1.0000
  C   C201      1.0  0.35477  0.75340  0.40903  1.0000
  C   C202      1.0  0.38157  0.75662  0.41642  1.0000
  C   C203      1.0  0.39565  0.77719  0.43065  1.0000
  C   C204      1.0  0.38290  0.79440  0.43776  1.0000
  H   H318      1.0  0.41659  0.77982  0.43611  1.0000
  S   S83       1.0  0.40181  0.82039  0.45535  1.0000
  N   N21       1.0  0.47332  0.83148  0.49190  1.0000
  C   C205      1.0  0.45065  0.84050  0.49752  1.0000
  H   H319      1.0  0.48045  0.79304  0.49326  1.0000
  H   H320      1.0  0.46051  0.79765  0.51240  1.0000
  H   H321      1.0  0.44249  0.78555  0.49033  1.0000
  H   H322      1.0  0.45626  0.81974  0.46425  1.0000
  H   H323      1.0  0.49445  0.82817  0.46695  1.0000
  H   H324      1.0  0.44804  0.83991  0.51279  1.0000
  H   H325      1.0  0.49968  0.84878  0.51648  1.0000
  C   C206      1.0  0.48076  0.69313  0.43441  1.0000
  H   H326      1.0  0.50548  0.69152  0.45832  1.0000
  H   H327      1.0  0.49698  0.71500  0.43053  1.0000
  C   C207      1.0  0.42817  0.95291  0.52750  1.0000
  C   C208      1.0  0.46054  0.00258  0.48741  1.0000
  S   S84       1.0  0.40939  0.88890  0.48270  1.0000
  H   H328      1.0  0.41759  0.93456  0.51734  1.0000
  H   H329      1.0  0.39211  0.00629  0.46639  1.0000
  H   H330      1.0  0.38061  0.95083  0.51034  1.0000
  H   H331      1.0  0.40724  0.98868  0.51277  1.0000
  C   C209      1.0  0.43632  0.97664  0.48118  1.0000
  Fe  Fe43      1.0  0.38445  0.87059  0.50874  1.0000
  S   S85       1.0  0.38024  0.94546  0.46628  1.0000
  S   S86       1.0  0.34944  0.88457  0.50300  1.0000
  Fe  Fe44      1.0  0.37259  0.90015  0.47598  1.0000
  C   C210      1.0  0.41129  0.00523  0.47220  1.0000
  S   S87       1.0  0.34480  0.85674  0.46144  1.0000
  C   C211      1.0  0.41148  0.97780  0.47365  1.0000
  H   H332      1.0  0.43694  0.95576  0.48212  1.0000
  C   C212      1.0  0.39134  0.96914  0.52053  1.0000
  H   H333      1.0  0.44602  0.97170  0.52028  1.0000
  H   H334      1.0  0.37389  0.97449  0.52597  1.0000
  H   H335      1.0  0.48355  0.85721  0.46711  1.0000
  C   C213      1.0  0.45984  0.90260  0.52230  1.0000
  H   H336      1.0  0.47974  0.00145  0.49313  1.0000
  H   H337      1.0  0.50364  0.92102  0.51080  1.0000
  H   H338      1.0  0.45104  0.91045  0.51126  1.0000
  C   C214      1.0  0.48969  0.90876  0.52209  1.0000
  H   H339      1.0  0.45649  0.86329  0.49296  1.0000
  Fe  Fe45      1.0  0.20505  0.52224  0.47447  1.0000
  H   H340      1.0  0.31226  0.82120  0.52809  1.0000
  Fe  Fe46      1.0  0.13878  0.67331  0.58443  1.0000
  C   C215      1.0  0.05906  0.64300  0.59130  1.0000
  C   C216      1.0  0.05767  0.62015  0.60256  1.0000
  H   H341      1.0  0.07784  0.61954  0.60678  1.0000
  H   H342      1.0  0.03348  0.66139  0.57760  1.0000
  H   H343      1.0  0.03662  0.56241  0.55860  1.0000
  S   S88       1.0  0.09309  0.67147  0.58354  1.0000
  H   H344      1.0  0.03983  0.59402  0.54584  1.0000
  H   H345      1.0  0.38175  0.71853  0.75438  1.0000
  S   S89       1.0  0.14692  0.63352  0.58298  1.0000
  Fe  Fe47      1.0  0.17635  0.65675  0.55930  1.0000
  C   C217      1.0  0.25282  0.64976  0.64269  1.0000
  H   H346      1.0  0.25140  0.62929  0.63742  1.0000
  C   C218      1.0  0.15225  0.55374  0.54876  1.0000
  C   C219      1.0  0.15713  0.58307  0.54771  1.0000
  H   H347      1.0  0.14711  0.59149  0.55765  1.0000
  C   C220      1.0  0.23226  0.65940  0.63688  1.0000
  Fe  Fe48      1.0  0.18700  0.66015  0.60073  1.0000
  N   N22       1.0  0.22197  0.58078  0.58683  1.0000
  C   C221      1.0  0.22267  0.57317  0.56720  1.0000
  S   S90       1.0  0.20442  0.63784  0.62089  1.0000
  H   H348      1.0  0.18547  0.59104  0.58375  1.0000
  H   H349      1.0  0.17509  0.55302  0.58860  1.0000
  C   C222      1.0  0.19187  0.57603  0.59161  1.0000
  H   H350      1.0  0.19025  0.58043  0.60652  1.0000
  H   H351      1.0  0.20691  0.54972  0.56429  1.0000
  C   C223      1.0  0.23022  0.56191  0.59853  1.0000
  H   H352      1.0  0.13867  0.53967  0.55962  1.0000
  H   H353      1.0  0.21655  0.58704  0.55800  1.0000
  H   H354      1.0  0.24500  0.57637  0.56310  1.0000
  C   C224      1.0  0.24313  0.61203  0.59000  1.0000
  H   H355      1.0  0.26599  0.61664  0.58618  1.0000
  H   H356      1.0  0.23691  0.62693  0.58188  1.0000
  H   H357      1.0  0.24361  0.61828  0.60476  1.0000
  H   H358      1.0  0.21464  0.53816  0.59646  1.0000
  H   H359      1.0  0.22993  0.56713  0.61345  1.0000
  S   S91       1.0  0.18201  0.63819  0.53239  1.0000
  S   S92       1.0  0.21684  0.67965  0.57672  1.0000
  C   C225      1.0  0.23387  0.68552  0.64422  1.0000
  C   C226      1.0  0.17454  0.60122  0.53361  1.0000
  C   C227      1.0  0.16497  0.54271  0.53576  1.0000
  H   H360      1.0  0.25284  0.56492  0.59533  1.0000
  C   C228      1.0  0.36918  0.55757  0.62996  1.0000
  C   C229      1.0  0.35091  0.56772  0.63874  1.0000
  H   H361      1.0  0.32728  0.55387  0.63899  1.0000
  C   C230      1.0  0.39981  0.57501  0.62992  1.0000
  H   H362      1.0  0.35960  0.53609  0.62346  1.0000
  C   C231      1.0  0.41196  0.60293  0.63835  1.0000
  H   H363      1.0  0.39113  0.57832  0.53392  1.0000
  H   H364      1.0  0.42096  0.63212  0.52897  1.0000
  C   C232      1.0  0.36305  0.59550  0.64730  1.0000
  C   C233      1.0  0.39362  0.61332  0.64686  1.0000
  H   H365      1.0  0.42837  0.60975  0.55765  1.0000
  S   S93       1.0  0.39294  0.52500  0.57275  1.0000
  C   C234      1.0  0.44440  0.60430  0.55024  1.0000
  C   C235      1.0  0.49825  0.55195  0.53611  1.0000
  H   H366      1.0  0.44293  0.58378  0.55646  1.0000
  H   H367      1.0  0.45980  0.54520  0.57556  1.0000
  S   S94       1.0  0.42342  0.56219  0.61991  1.0000
  C   C236      1.0  0.47635  0.55507  0.56508  1.0000
  C   C237      1.0  0.49688  0.58476  0.56678  1.0000
  H   H368      1.0  0.49591  0.59750  0.57851  1.0000
  C   C238      1.0  0.47636  0.53895  0.54944  1.0000
  H   H369      1.0  0.46708  0.62212  0.55324  1.0000
  C   C239      1.0  0.51712  0.59847  0.55271  1.0000
  C   C240      1.0  0.51868  0.58178  0.53777  1.0000
  H   H370      1.0  0.40834  0.55447  0.53213  1.0000
  H   H371      1.0  0.43564  0.61654  0.63830  1.0000
  H   H372      1.0  0.52778  0.52563  0.55847  1.0000
  N   N23       1.0  0.43821  0.60063  0.53018  1.0000
  S   S95       1.0  0.16591  0.69481  0.55924  1.0000
  H   H373      1.0  0.25949  0.73083  0.53133  1.0000
  H   H374      1.0  0.21769  0.69276  0.64013  1.0000
  C   C241      1.0  0.28948  0.80658  0.53133  1.0000
  S   S96       1.0  0.17690  0.69856  0.60423  1.0000
  H   H375      1.0  0.20786  0.75387  0.54318  1.0000
  C   C242      1.0  0.23064  0.76836  0.53993  1.0000
  H   H376      1.0  0.29892  0.80151  0.55975  1.0000
  Fe  Fe49      1.0  0.20430  0.71629  0.57865  1.0000
  S   S97       1.0  0.24387  0.76102  0.57596  1.0000
  C   C243      1.0  0.28188  0.79534  0.54928  1.0000
  C   C244      1.0  0.32011  0.76627  0.63330  1.0000
  C   C245      1.0  0.25250  0.77590  0.55357  1.0000
  N   N24       1.0  0.30003  0.76470  0.61800  1.0000
  C   C246      1.0  0.27475  0.76827  0.62538  1.0000
  H   H377      1.0  0.26167  0.75044  0.63519  1.0000
  C   C247      1.0  0.28904  0.73583  0.60857  1.0000
  H   H378      1.0  0.27705  0.71737  0.61825  1.0000
  H   H379      1.0  0.27339  0.73374  0.59717  1.0000
  H   H380      1.0  0.30744  0.73256  0.60257  1.0000
  H   H381      1.0  0.33939  0.76355  0.62825  1.0000
  H   H382      1.0  0.30867  0.74869  0.64363  1.0000
  H   H383      1.0  0.32883  0.78774  0.64075  1.0000
  C   C248      1.0  0.31620  0.78847  0.60469  1.0000
  H   H384      1.0  0.28216  0.78968  0.63273  1.0000
  H   H385      1.0  0.30163  0.78792  0.59299  1.0000
  H   H386      1.0  0.25931  0.76749  0.61415  1.0000
  H   H387      1.0  0.33540  0.78650  0.59875  1.0000
  H   H388      1.0  0.32471  0.81059  0.61129  1.0000
  H   H389      1.0  0.23773  0.69154  0.53272  1.0000
  Fe  Fe50      1.0  0.40439  0.71237  0.68155  1.0000
  S   S98       1.0  0.52988  0.84638  0.57275  1.0000
  H   H390      1.0  0.41250  0.75689  0.65084  1.0000
  H   H391      1.0  0.51616  0.82816  0.63679  1.0000
  C   C249      1.0  0.47039  0.81351  0.62978  1.0000
  C   C250      1.0  0.44115  0.79349  0.63394  1.0000
  C   C251      1.0  0.49360  0.81253  0.63972  1.0000
  H   H392      1.0  0.42312  0.79425  0.62634  1.0000
  C   C252      1.0  0.43509  0.77228  0.64778  1.0000
  H   H393      1.0  0.46470  0.74705  0.59346  1.0000
  H   H394      1.0  0.48665  0.78594  0.59721  1.0000
  C   C253      1.0  0.48249  0.76373  0.60222  1.0000
  H   H395      1.0  0.47367  0.76144  0.61647  1.0000
  C   C254      1.0  0.48754  0.79132  0.65357  1.0000
  S   S99       1.0  0.47698  0.83854  0.61160  1.0000
  H   H396      1.0  0.52528  0.78345  0.57643  1.0000
  H   H397      1.0  0.52357  0.72742  0.60966  1.0000
  H   H398      1.0  0.49576  0.72901  0.62421  1.0000
  C   C255      1.0  0.50346  0.73095  0.60967  1.0000
  H   H399      1.0  0.50268  0.74443  0.57368  1.0000
  N   N25       1.0  0.50966  0.75992  0.60185  1.0000
  H   H400      1.0  0.48597  0.71261  0.60163  1.0000
  C   C256      1.0  0.51975  0.76158  0.58260  1.0000
  H   H401      1.0  0.52666  0.78232  0.62768  1.0000
  H   H402      1.0  0.36734  0.94146  0.55229  1.0000
  H   H403      1.0  0.39491  0.92931  0.55723  1.0000
  C   C257      1.0  0.38427  0.93613  0.54600  1.0000
  N   N26       1.0  0.40631  0.96124  0.53550  1.0000
  C   C258      1.0  0.42159  0.98681  0.54799  1.0000
  H   H404      1.0  0.40574  0.99369  0.55430  1.0000
  H   H405      1.0  0.43325  0.98163  0.55938  1.0000
  H   H406      1.0  0.37249  0.91645  0.53700  1.0000
  H   H407      1.0  0.43838  0.00614  0.54044  1.0000
  S   S100      1.0  0.40424  0.87797  0.53713  1.0000
  H   H408      1.0  0.43881  0.94534  0.53831  1.0000
  H   H409      1.0  0.43991  0.86556  0.56287  1.0000
  C   C259      1.0  0.44179  0.88678  0.53691  1.0000
  C   C260      1.0  0.50146  0.89907  0.53650  1.0000
  C   C261      1.0  0.48346  0.88356  0.55119  1.0000
  C   C262      1.0  0.45374  0.87767  0.55148  1.0000
  H   H410      1.0  0.49226  0.87578  0.56232  1.0000
  Fe  Fe51      1.0  0.52255  0.86408  0.59954  1.0000
  C   C263      1.0  0.27541  0.66653  0.65529  1.0000
  H   H411      1.0  0.29143  0.65910  0.65941  1.0000
  H   H412      1.0  0.29419  0.65025  0.73005  1.0000
  H   H413      1.0  0.30736  0.67027  0.76134  1.0000
  H   H414      1.0  0.25707  0.64513  0.73299  1.0000
  C   C264      1.0  0.27966  0.66126  0.72872  1.0000
  C   C265      1.0  0.29280  0.68116  0.75959  1.0000
  H   H415      1.0  0.27071  0.66587  0.76507  1.0000
  H   H416      1.0  0.24820  0.68699  0.74279  1.0000
  H   H417      1.0  0.27859  0.66608  0.71380  1.0000
  N   N27       1.0  0.29098  0.68844  0.74003  1.0000
  H   H418      1.0  0.40895  0.58746  0.69120  1.0000
  H   H419      1.0  0.39084  0.55510  0.71893  1.0000
  H   H420      1.0  0.41076  0.61735  0.70539  1.0000
  H   H421      1.0  0.39131  0.58505  0.73238  1.0000
  H   H422      1.0  0.36546  0.61303  0.72088  1.0000
  S   S101      1.0  0.33946  0.60626  0.65940  1.0000
  H   H423      1.0  0.40318  0.63489  0.65329  1.0000
  H   H424      1.0  0.34493  0.60232  0.69962  1.0000
  H   H425      1.0  0.35791  0.55113  0.73039  1.0000
  Fe  Fe52      1.0  0.36617  0.67608  0.71365  1.0000
  C   C266      1.0  0.36439  0.67423  0.76460  1.0000
  S   S102      1.0  0.39604  0.66863  0.69373  1.0000
  C   C267      1.0  0.37768  0.56681  0.72269  1.0000
  S   S103      1.0  0.32677  0.65403  0.69485  1.0000
  Fe  Fe53      1.0  0.35747  0.65017  0.67418  1.0000
  N   N28       1.0  0.36913  0.57812  0.70615  1.0000
  C   C268      1.0  0.39601  0.59867  0.69634  1.0000
  C   C269      1.0  0.35080  0.55333  0.69374  1.0000
  C   C270      1.0  0.35208  0.59381  0.71180  1.0000
  H   H426      1.0  0.34383  0.56121  0.68119  1.0000
  H   H427      1.0  0.33184  0.57923  0.71950  1.0000
  S   S104      1.0  0.35771  0.65650  0.74264  1.0000
  H   H428      1.0  0.39025  0.60830  0.68418  1.0000
  H   H429      1.0  0.36313  0.54130  0.68890  1.0000
  H   H430      1.0  0.33035  0.53730  0.70066  1.0000
  H   H431      1.0  0.30214  0.70124  0.76849  1.0000
  C   C271      1.0  0.25589  0.70178  0.65734  1.0000
  H   H432      1.0  0.26926  0.70784  0.72346  1.0000
  C   C272      1.0  0.27092  0.70210  0.73812  1.0000
  C   C273      1.0  0.27697  0.69256  0.66269  1.0000
  H   H433      1.0  0.32009  0.71552  0.71891  1.0000
  C   C274      1.0  0.32069  0.70925  0.73357  1.0000
  S   S105      1.0  0.30530  0.71411  0.67840  1.0000
  H   H434      1.0  0.25664  0.72156  0.66335  1.0000
  H   H435      1.0  0.27890  0.72275  0.74642  1.0000
  H   H436      1.0  0.33033  0.72985  0.74197  1.0000
  C   C275      1.0  0.37564  0.70477  0.76650  1.0000
  H   H437      1.0  0.33618  0.69937  0.73449  1.0000
  S   S106      1.0  0.37766  0.72145  0.70308  1.0000
  S   S107      1.0  0.36763  0.69316  0.66055  1.0000
  S   S108      1.0  0.45158  0.74407  0.67454  1.0000
  C   C276      1.0  0.45829  0.77105  0.65758  1.0000
  Fe  Fe54      1.0  0.34001  0.69853  0.68292  1.0000
  H   H438      1.0  0.50553  0.79064  0.66128  1.0000
  S   S109      1.0  0.29386  0.64897  0.90285  1.0000
  S   S110      1.0  0.35143  0.65361  0.86454  1.0000
  H   H439      1.0  0.36102  0.59772  0.88167  1.0000
  Fe  Fe55      1.0  0.39303  0.67073  0.88166  1.0000
  H   H440      1.0  0.35509  0.65606  0.81048  1.0000
  C   C277      1.0  0.36085  0.66974  0.79832  1.0000
  Fe  Fe56      1.0  0.33605  0.67442  0.88688  1.0000
  C   C278      1.0  0.36957  0.59196  0.89388  1.0000
  S   S111      1.0  0.41815  0.64626  0.89092  1.0000
  H   H441      1.0  0.33253  0.54875  0.89620  1.0000
  C   C279      1.0  0.35353  0.56424  0.90209  1.0000
  C   C280      1.0  0.35700  0.65684  0.78061  1.0000
  H   H442      1.0  0.34821  0.63320  0.77934  1.0000
  C   C281      1.0  0.39701  0.61186  0.90122  1.0000
  H   H443      1.0  0.30494  0.71034  0.90199  1.0000
  Fe  Fe57      1.0  0.37200  0.69868  0.85125  1.0000
  C   C282      1.0  0.41319  0.78736  0.85286  1.0000
  S   S112      1.0  0.35241  0.71758  0.87224  1.0000
  H   H444      1.0  0.39821  0.78585  0.84119  1.0000
  Fe  Fe58      1.0  0.39456  0.73045  0.88815  1.0000
  C   C283      1.0  0.46303  0.80027  0.86289  1.0000
  H   H445      1.0  0.44043  0.82945  0.82777  1.0000
  H   H446      1.0  0.46160  0.81432  0.87428  1.0000
  H   H447      1.0  0.48665  0.80905  0.85902  1.0000
  H   H448      1.0  0.45597  0.77799  0.86882  1.0000
  N   N29       1.0  0.44427  0.79932  0.84695  1.0000
  S   S113      1.0  0.37648  0.71774  0.82212  1.0000
  H   H449      1.0  0.41047  0.80094  0.86406  1.0000
  C   C284      1.0  0.45417  0.82941  0.83979  1.0000
  S   S114      1.0  0.41507  0.71387  0.86680  1.0000
  H   H450      1.0  0.40518  0.76480  0.85838  1.0000
  C   C285      1.0  0.37191  0.70024  0.80022  1.0000
  C   C286      1.0  0.44661  0.78024  0.83229  1.0000
  H   H451      1.0  0.43227  0.77855  0.82019  1.0000
  H   H452      1.0  0.43926  0.75734  0.83724  1.0000
  H   H453      1.0  0.46970  0.78855  0.82737  1.0000
  H   H454      1.0  0.38784  0.74125  0.78551  1.0000
  C   C287      1.0  0.37919  0.71763  0.78420  1.0000
  H   H455      1.0  0.47758  0.83916  0.83524  1.0000
  H   H456      1.0  0.45981  0.75373  0.90190  1.0000
  H   H457      1.0  0.45255  0.84425  0.85056  1.0000
  S   S115      1.0  0.41597  0.77573  0.90111  1.0000
  C   C288      1.0  0.08192  0.62010  0.98585  1.0000
  C   C289      1.0  0.08198  0.64482  0.99433  1.0000
  H   H458      1.0  0.10258  0.61947  0.98327  1.0000
  C   C290      1.0  0.05484  0.64500  0.99782  1.0000
  H   H459      1.0  0.05467  0.66399  0.00442  1.0000
  S   S116      1.0  0.11542  0.67657  0.99965  1.0000
  Fe  Fe59      1.0  0.16059  0.67778  0.99742  1.0000
  H   H460      1.0  0.08548  0.69091  0.94241  1.0000
  C   C291      1.0  0.05505  0.59642  0.98020  1.0000
  H   H461      1.0  0.05528  0.57778  0.97315  1.0000
  H   H462      1.0  0.11887  0.65975  0.95958  1.0000
  H   H463      1.0  0.04181  0.55844  0.01356  1.0000
  H   H464      1.0  0.10293  0.65356  0.93691  1.0000
  C   C292      1.0  0.12321  0.66743  0.94506  1.0000
  H   H465      1.0  0.14144  0.66299  0.93992  1.0000
  H   H466      1.0  0.18292  0.53755  0.98482  1.0000
  H   H467      1.0  0.13745  0.59981  0.00684  1.0000
  S   S117      1.0  0.17303  0.65594  0.97449  1.0000
  C   C293      1.0  0.13893  0.58275  0.01497  1.0000
  C   C294      1.0  0.27951  0.66907  0.91565  1.0000
  Fe  Fe60      1.0  0.19489  0.64255  0.99684  1.0000
  S   S118      1.0  0.19214  0.59758  0.99828  1.0000
  C   C295      1.0  0.24598  0.66988  0.93939  1.0000
  C   C296      1.0  0.25821  0.65460  0.92920  1.0000
  H   H468      1.0  0.22949  0.65848  0.94974  1.0000
  H   H469      1.0  0.25095  0.63145  0.93172  1.0000
  C   C297      1.0  0.16258  0.57609  0.01249  1.0000
  S   S119      1.0  0.23895  0.68196  0.99471  1.0000
  S   S120      1.0  0.17935  0.66111  0.01999  1.0000
  H   H470      1.0  0.21892  0.55475  0.99521  1.0000
  H   H471      1.0  0.18293  0.54936  0.02143  1.0000
  C   C298      1.0  0.16433  0.55403  0.02293  1.0000
  H   H472      1.0  0.21502  0.54663  0.97094  1.0000
  C   C299      1.0  0.20514  0.53818  0.98465  1.0000
  H   H473      1.0  0.24776  0.52668  0.99901  1.0000
  H   H474      1.0  0.29606  0.61374  0.96219  1.0000
  S   S121      1.0  0.32313  0.53367  0.97828  1.0000
  H   H475      1.0  0.29187  0.61400  0.93756  1.0000
  H   H476      1.0  0.29829  0.58555  0.94816  1.0000
  H   H477      1.0  0.34107  0.59804  0.92786  1.0000
  H   H478      1.0  0.34542  0.62510  0.97588  1.0000
  H   H479      1.0  0.37652  0.63458  0.96102  1.0000
  H   H480      1.0  0.33630  0.66480  0.96139  1.0000
  C   C300      1.0  0.35215  0.62098  0.96201  1.0000
  H   H481      1.0  0.36728  0.67384  0.94638  1.0000
  H   H482      1.0  0.34781  0.59752  0.96151  1.0000
  C   C301      1.0  0.30419  0.60941  0.94887  1.0000
  H   H483      1.0  0.33151  0.66501  0.93685  1.0000
  C   C302      1.0  0.34320  0.65925  0.94799  1.0000
  H   H484      1.0  0.37013  0.63509  0.92702  1.0000
  C   C303      1.0  0.34594  0.62156  0.92903  1.0000
  H   H485      1.0  0.33443  0.62626  0.91731  1.0000
  N   N30       1.0  0.33639  0.62783  0.94701  1.0000
  Fe  Fe61      1.0  0.36558  0.55680  0.99405  1.0000
  C   C304      1.0  0.36431  0.55679  0.91806  1.0000
  S   S122      1.0  0.38272  0.60348  0.00377  1.0000
  C   C305      1.0  0.40804  0.60413  0.91695  1.0000
  C   C306      1.0  0.39154  0.57689  0.92551  1.0000
  H   H486      1.0  0.40032  0.57131  0.93762  1.0000
  H   H487      1.0  0.42933  0.61939  0.92260  1.0000
  S   S123      1.0  0.39275  0.54708  0.97364  1.0000
  C   C307      1.0  0.39532  0.60350  0.02628  1.0000
  H   H488      1.0  0.43776  0.64086  0.02222  1.0000
  H   H489      1.0  0.44992  0.55024  0.02479  1.0000
  H   H490      1.0  0.10072  0.69647  0.96528  1.0000
  H   H491      1.0  0.11105  0.72734  0.95019  1.0000
  C   C308      1.0  0.10596  0.70370  0.95067  1.0000
  H   H492      1.0  0.11769  0.69579  0.91537  1.0000
  H   H493      1.0  0.15323  0.71011  0.97006  1.0000
  H   H494      1.0  0.17660  0.71273  0.95092  1.0000
  C   C309      1.0  0.15745  0.71632  0.95529  1.0000
  H   H495      1.0  0.16438  0.74036  0.95447  1.0000
  N   N31       1.0  0.13092  0.69904  0.94385  1.0000
  H   H496      1.0  0.14286  0.73235  0.92303  1.0000
  C   C310      1.0  0.13712  0.70862  0.92445  1.0000
  H   H497      1.0  0.15613  0.70563  0.91908  1.0000
  Fe  Fe62      1.0  0.21595  0.69734  0.97420  1.0000
  Fe  Fe63      1.0  0.22192  0.70234  0.01606  1.0000
  S   S124      1.0  0.20209  0.72106  0.99534  1.0000
  C   C311      1.0  0.28856  0.69898  0.91239  1.0000
  C   C312      1.0  0.25443  0.69959  0.93579  1.0000
  S   S125      1.0  0.23797  0.71866  0.94766  1.0000
  H   H498      1.0  0.28245  0.73706  0.91944  1.0000
  C   C313      1.0  0.27576  0.71408  0.92227  1.0000
  H   H499      1.0  0.34351  0.80736  0.00147  1.0000
  H   H500      1.0  0.33418  0.80294  0.02550  1.0000
  H   H501      1.0  0.25358  0.77361  0.02119  1.0000
  H   H502      1.0  0.28169  0.82737  0.02775  1.0000
  H   H503      1.0  0.33693  0.83476  0.01351  1.0000
  C   C314      1.0  0.34696  0.81941  0.01481  1.0000
  N   N32       1.0  0.37864  0.83538  0.01984  1.0000
  S   S126      1.0  0.37668  0.68904  0.90445  1.0000
  H   H504      1.0  0.38829  0.80110  0.00951  1.0000
  C   C315      1.0  0.39068  0.81409  0.02234  1.0000
  C   C316      1.0  0.46680  0.77229  0.91127  1.0000
  S   S127      1.0  0.50464  0.83530  0.98797  1.0000
  C   C317      1.0  0.50329  0.80666  0.93288  1.0000
  C   C318      1.0  0.48524  0.82040  0.93561  1.0000
  C   C319      1.0  0.45840  0.81056  0.92588  1.0000
  C   C320      1.0  0.44905  0.78646  0.91374  1.0000
  C   C321      1.0  0.49406  0.78265  0.92063  1.0000
  H   H505      1.0  0.49227  0.83905  0.94492  1.0000
  H   H506      1.0  0.44481  0.82168  0.92778  1.0000
  C   C322      1.0  0.47807  0.89481  0.01900  1.0000
  H   H507      1.0  0.48027  0.74988  0.98594  1.0000
  C   C323      1.0  0.39492  0.85621  0.00502  1.0000
  H   H508      1.0  0.48236  0.85469  0.01806  1.0000
  H   H509      1.0  0.39313  0.84459  0.99168  1.0000
  H   H510      1.0  0.52152  0.72298  0.95506  1.0000
  H   H511      1.0  0.52161  0.73233  0.00611  1.0000
  H   H512      1.0  0.50739  0.78221  0.97494  1.0000
  C   C324      1.0  0.50441  0.76446  0.98483  1.0000
  H   H513      1.0  0.51244  0.77503  0.99856  1.0000
  H   H514      1.0  0.49098  0.70783  0.99221  1.0000
  C   C325      1.0  0.51485  0.72383  0.99180  1.0000
  H   H515      1.0  0.52737  0.71149  0.98802  1.0000
  H   H516      1.0  0.48590  0.72097  0.95980  1.0000
  H   H517      1.0  0.51445  0.75366  0.94993  1.0000
  H   H518      1.0  0.50805  0.77208  0.91833  1.0000
  C   C326      1.0  0.51010  0.73578  0.96008  1.0000
  N   N33       1.0  0.52047  0.74802  0.97875  1.0000
  H   H519      1.0  0.38641  0.87260  0.00276  1.0000
  Fe  Fe64      1.0  0.52021  0.88370  0.99160  1.0000
  H   H520      1.0  0.47123  0.93291  0.02419  1.0000
  C   C327      1.0  0.47707  0.86913  0.02646  1.0000
  S   S128      1.0  0.48992  0.90424  0.99626  1.0000
  H   H521      1.0  0.41888  0.86873  0.00841  1.0000
  H   H522      1.0  0.29536  0.52275  0.02149  1.0000
  H   H523      1.0  0.41463  0.82550  0.02597  1.0000
  S   S129      1.0  0.59710  0.16003  0.08314  1.0000
  C   C328      1.0  0.60158  0.15018  0.06049  1.0000
  C   C329      1.0  0.62808  0.14998  0.05542  1.0000
  C   C330      1.0  0.57846  0.14130  0.04765  1.0000
  H   H524      1.0  0.64603  0.15656  0.06531  1.0000
  Fe  Fe65      1.0  0.55749  0.16853  0.08699  1.0000
  H   H525      1.0  0.55794  0.14092  0.05125  1.0000
  H   H526      1.0  0.55209  0.10038  0.10825  1.0000
  C   C331      1.0  0.63150  0.14155  0.03745  1.0000
  H   H527      1.0  0.58045  0.09755  0.08190  1.0000
  C   C332      1.0  0.56336  0.07455  0.07914  1.0000
  H   H528      1.0  0.56332  0.07080  0.06399  1.0000
  H   H529      1.0  0.57073  0.05966  0.08620  1.0000
  H   H530      1.0  0.54249  0.06277  0.11382  1.0000
  H   H531      1.0  0.53994  0.11273  0.07795  1.0000
  N   N34       1.0  0.53399  0.06985  0.08561  1.0000
  C   C333      1.0  0.53571  0.07703  0.10551  1.0000
  C   C334      1.0  0.58161  0.13244  0.02989  1.0000
  H   H532      1.0  0.65208  0.14171  0.03350  1.0000
  S   S130      1.0  0.75129  0.16305  0.03425  1.0000
  H   H533      1.0  0.56487  0.30447  0.10378  1.0000
  C   C335      1.0  0.53859  0.29285  0.04019  1.0000
  S   S131      1.0  0.54521  0.24864  0.05732  1.0000
  H   H534      1.0  0.55606  0.26680  0.10825  1.0000
  H   H535      1.0  0.56622  0.31281  0.13805  1.0000
  H   H536      1.0  0.56217  0.30235  0.03802  1.0000
  H   H537      1.0  0.55781  0.27498  0.14151  1.0000
  C   C336      1.0  0.57472  0.28931  0.10661  1.0000
  H   H538      1.0  0.58702  0.28872  0.09407  1.0000
  H   H539      1.0  0.57450  0.19069  0.14096  1.0000
  C   C337      1.0  0.57622  0.29750  0.13951  1.0000
  H   H540      1.0  0.63274  0.33629  0.13312  1.0000
  C   C338      1.0  0.61775  0.32885  0.12083  1.0000
  H   H541      1.0  0.63151  0.33049  0.10859  1.0000
  N   N35       1.0  0.59400  0.29851  0.12321  1.0000
  C   C339      1.0  0.60725  0.27828  0.12597  1.0000
  H   H542      1.0  0.62138  0.27888  0.11415  1.0000
  S   S132      1.0  0.56385  0.21298  0.09592  1.0000
  H   H543      1.0  0.62101  0.28375  0.13878  1.0000
  H   H544      1.0  0.58988  0.25515  0.12727  1.0000
  C   C340      1.0  0.58010  0.20689  0.15189  1.0000
  H   H545      1.0  0.60862  0.34483  0.11894  1.0000
  H   H546      1.0  0.58993  0.30368  0.15236  1.0000
  H   H547      1.0  0.75763  0.20363  0.10273  1.0000
  H   H548      1.0  0.80146  0.19341  0.05813  1.0000
  C   C341      1.0  0.79020  0.25213  0.03008  1.0000
  H   H549      1.0  0.78498  0.22527  0.08621  1.0000
  H   H550      1.0  0.71736  0.23044  0.07109  1.0000
  H   H551      1.0  0.78599  0.23965  0.10895  1.0000
  H   H552      1.0  0.74525  0.22011  0.06417  1.0000
  C   C342      1.0  0.77092  0.22641  0.09758  1.0000
  H   H553      1.0  0.71807  0.19832  0.08069  1.0000
  C   C343      1.0  0.73225  0.22133  0.07616  1.0000
  H   H554      1.0  0.75683  0.28014  0.07930  1.0000
  C   C344      1.0  0.77043  0.26967  0.08451  1.0000
  H   H555      1.0  0.78498  0.26975  0.07305  1.0000
  H   H556      1.0  0.71911  0.25073  0.10260  1.0000
  H   H557      1.0  0.74794  0.25444  0.11846  1.0000
  H   H558      1.0  0.71937  0.21848  0.11232  1.0000
  C   C345      1.0  0.73374  0.24082  0.10684  1.0000
  N   N36       1.0  0.75180  0.23954  0.09126  1.0000
  H   H559      1.0  0.78501  0.28405  0.09570  1.0000
  S   S133      1.0  0.81369  0.29219  0.13216  1.0000
  Fe  Fe66      1.0  0.84905  0.31865  0.11172  1.0000
  Fe  Fe67      1.0  0.86230  0.31796  0.07083  1.0000
  S   S134      1.0  0.83975  0.29853  0.04361  1.0000
  C   C346      1.0  0.81412  0.26103  0.04240  1.0000
  C   C347      1.0  0.81781  0.23986  0.05280  1.0000
  C   C348      1.0  0.79814  0.20982  0.05039  1.0000
  S   S135      1.0  0.83954  0.33917  0.08701  1.0000
  C   C349      1.0  0.80389  0.31224  0.14824  1.0000
  H   H560      1.0  0.84285  0.35342  0.14431  1.0000
  C   C350      1.0  0.82255  0.34199  0.15189  1.0000
  H   H561      1.0  0.83634  0.24655  0.06226  1.0000
  C   C351      1.0  0.77471  0.20086  0.03764  1.0000
  H   H562      1.0  0.86823  0.26765  0.14262  1.0000
  H   H563      1.0  0.89043  0.30137  0.13097  1.0000
  S   S136      1.0  0.86839  0.29438  0.09520  1.0000
  H   H564      1.0  0.92707  0.34442  0.14746  1.0000
  H   H565      1.0  0.00064  0.32252  0.12187  1.0000
  S   S137      1.0  0.95055  0.32953  0.11162  1.0000
  Fe  Fe68      1.0  0.91193  0.33503  0.09981  1.0000
  C   C352      1.0  0.00879  0.34389  0.11544  1.0000
  C   C353      1.0  0.98877  0.35345  0.10866  1.0000
  C   C354      1.0  0.89052  0.28695  0.14234  1.0000
  H   H566      1.0  0.90702  0.27912  0.13854  1.0000
  H   H567      1.0  0.55124  0.49128  0.03141  1.0000
  C   C355      1.0  0.57160  0.41889  0.02943  1.0000
  H   H568      1.0  0.56589  0.46840  0.04118  1.0000
  N   N37       1.0  0.58732  0.51335  0.05056  1.0000
  H   H569      1.0  0.60402  0.48723  0.06514  1.0000
  S   S138      1.0  0.61962  0.44017  0.07638  1.0000
  C   C356      1.0  0.63000  0.45536  0.04011  1.0000
  C   C357      1.0  0.60977  0.43709  0.05306  1.0000
  H   H570      1.0  0.56518  0.40374  0.05756  1.0000
  C   C358      1.0  0.58081  0.41816  0.04759  1.0000
  C   C359      1.0  0.59921  0.50622  0.06743  1.0000
  C   C360      1.0  0.56070  0.48695  0.04426  1.0000
  S   S139      1.0  0.66664  0.50781  0.10783  1.0000
  H   H571      1.0  0.58341  0.50039  0.07908  1.0000
  H   H572      1.0  0.54321  0.47915  0.05497  1.0000
  H   H573      1.0  0.61674  0.50540  0.03291  1.0000
  C   C361      1.0  0.76282  0.38122  0.24881  1.0000
  H   H574      1.0  0.65276  0.46879  0.04404  1.0000
  Fe  Fe69      1.0  0.66106  0.48184  0.08176  1.0000
  Fe  Fe70      1.0  0.71187  0.50986  0.10796  1.0000
  S   S140      1.0  0.73314  0.49990  0.13256  1.0000
  S   S141      1.0  0.70485  0.48143  0.08291  1.0000
  C   C362      1.0  0.71238  0.46411  0.14130  1.0000
  C   C363      1.0  0.68258  0.44758  0.13649  1.0000
  H   H575      1.0  0.67221  0.45653  0.12705  1.0000
  C   C364      1.0  0.66591  0.41965  0.14421  1.0000
  H   H576      1.0  0.64271  0.40733  0.14070  1.0000
  H   H577      1.0  0.78671  0.46088  0.07027  1.0000
  H   H578      1.0  0.80778  0.49980  0.06748  1.0000
  S   S142      1.0  0.67694  0.52129  0.06352  1.0000
  S   S143      1.0  0.89257  0.35742  0.11804  1.0000
  H   H579      1.0  0.80664  0.48358  0.08958  1.0000
  C   C365      1.0  0.80760  0.48032  0.07444  1.0000
  C   C366      1.0  0.88354  0.41004  0.03336  1.0000
  H   H580      1.0  0.91236  0.48452  0.03432  1.0000
  H   H581      1.0  0.83142  0.45141  0.09385  1.0000
  H   H582      1.0  0.81214  0.42961  0.07407  1.0000
  C   C367      1.0  0.83211  0.44976  0.07855  1.0000
  H   H583      1.0  0.85163  0.44623  0.07530  1.0000
  H   H584      1.0  0.86127  0.50551  0.09087  1.0000
  H   H585      1.0  0.85400  0.47000  0.04499  1.0000
  H   H586      1.0  0.81441  0.45409  0.04395  1.0000
  H   H587      1.0  0.83645  0.49323  0.04197  1.0000
  C   C368      1.0  0.83463  0.47322  0.04921  1.0000
  C   C369      1.0  0.86092  0.50241  0.07565  1.0000
  Fe  Fe71      1.0  0.88506  0.37562  0.09158  1.0000
  S   S144      1.0  0.89384  0.42251  0.08844  1.0000
  C   C370      1.0  0.88323  0.40503  0.05234  1.0000
  C   C371      1.0  0.89426  0.42876  0.06474  1.0000
  C   C372      1.0  0.90500  0.45749  0.05818  1.0000
  H   H588      1.0  0.91360  0.47585  0.06776  1.0000
  N   N38       1.0  0.83381  0.47641  0.06946  1.0000
  C   C373      1.0  0.90458  0.46242  0.03922  1.0000
  H   H589      1.0  0.87424  0.38273  0.05731  1.0000
  H   H590      1.0  0.88111  0.50030  0.07191  1.0000
  C   C374      1.0  0.98401  0.49897  0.03198  1.0000
  S   S145      1.0  0.90780  0.35628  0.07361  1.0000
  H   H591      1.0  0.02591  0.52006  0.05866  1.0000
  H   H592      1.0  0.97073  0.51018  0.03647  1.0000
  H   H593      1.0  0.03141  0.48831  0.03509  1.0000
  H   H594      1.0  0.98102  0.48192  0.04247  1.0000
  C   C375      1.0  0.03075  0.39907  0.09862  1.0000
  H   H595      1.0  0.98454  0.38892  0.09499  1.0000
  C   C376      1.0  0.99979  0.38124  0.10025  1.0000
  N   N39       1.0  0.01552  0.52022  0.02984  1.0000
  C   C377      1.0  0.68741  0.34648  0.27657  1.0000
  H   H596      1.0  0.55402  0.24985  0.17318  1.0000
  C   C378      1.0  0.56118  0.21930  0.15584  1.0000
  H   H597      1.0  0.62035  0.20499  0.15956  1.0000
  C   C379      1.0  0.60607  0.21507  0.16238  1.0000
  Fe  Fe72      1.0  0.66982  0.29378  0.19780  1.0000
  S   S146      1.0  0.64870  0.32172  0.20731  1.0000
  S   S147      1.0  0.64604  0.24599  0.18963  1.0000
  S   S148      1.0  0.70635  0.31168  0.21916  1.0000
  S   S149      1.0  0.69631  0.32432  0.17536  1.0000
  C   C380      1.0  0.56867  0.24035  0.17000  1.0000
  C   C381      1.0  0.59512  0.24927  0.18002  1.0000
  C   C382      1.0  0.61372  0.23638  0.17640  1.0000
  H   H598      1.0  0.60063  0.26538  0.19098  1.0000
  H   H599      1.0  0.67690  0.30345  0.26573  1.0000
  Fe  Fe73      1.0  0.68758  0.34261  0.22679  1.0000
  Fe  Fe74      1.0  0.73108  0.34462  0.19729  1.0000
  Fe  Fe75      1.0  0.67786  0.35369  0.18615  1.0000
  C   C383      1.0  0.68182  0.31705  0.27801  1.0000
  H   H600      1.0  0.87378  0.32732  0.15357  1.0000
  H   H601      1.0  0.76290  0.27480  0.15531  1.0000
  C   C384      1.0  0.77743  0.29782  0.15802  1.0000
  H   H602      1.0  0.79841  0.33868  0.24624  1.0000
  H   H603      1.0  0.85291  0.29366  0.16545  1.0000
  H   H604      1.0  0.76432  0.32489  0.27306  1.0000
  C   C385      1.0  0.78852  0.34264  0.17529  1.0000
  C   C386      1.0  0.76953  0.31309  0.17130  1.0000
  H   H605      1.0  0.74900  0.30181  0.17872  1.0000
  C   C387      1.0  0.75478  0.33893  0.26724  1.0000
  H   H606      1.0  0.73530  0.32452  0.25860  1.0000
  C   C388      1.0  0.78752  0.35190  0.24109  1.0000
  H   H607      1.0  0.76913  0.33743  0.23174  1.0000
  H   H608      1.0  0.94477  0.32290  0.15464  1.0000
  C   C389      1.0  0.92723  0.32930  0.15848  1.0000
  H   H609      1.0  0.88014  0.32515  0.17773  1.0000
  C   C390      1.0  0.87531  0.31275  0.16446  1.0000
  H   H610      1.0  0.87757  0.26384  0.17618  1.0000
  H   H611      1.0  0.93394  0.34211  0.17159  1.0000
  N   N40       1.0  0.89807  0.30321  0.16004  1.0000
  H   H612      1.0  0.91620  0.27624  0.17183  1.0000
  H   H613      1.0  0.90478  0.29534  0.18838  1.0000
  C   C391      1.0  0.89922  0.28380  0.17479  1.0000
  H   H614      1.0  0.62025  0.42338  0.20092  1.0000
  H   H615      1.0  0.63432  0.43363  0.23402  1.0000
  C   C392      1.0  0.72561  0.45214  0.15348  1.0000
  H   H616      1.0  0.74872  0.46472  0.15710  1.0000
  H   H617      1.0  0.75424  0.39034  0.25994  1.0000
  H   H618      1.0  0.65496  0.45350  0.19439  1.0000
  H   H619      1.0  0.61995  0.38370  0.22134  1.0000
  C   C393      1.0  0.67905  0.40777  0.15648  1.0000
  H   H620      1.0  0.66906  0.46378  0.22774  1.0000
  H   H621      1.0  0.74373  0.36757  0.23974  1.0000
  H   H622      1.0  0.66831  0.43481  0.24220  1.0000
  C   C394      1.0  0.65751  0.43958  0.23012  1.0000
  H   H623      1.0  0.70176  0.45560  0.20530  1.0000
  H   H624      1.0  0.70171  0.42758  0.22045  1.0000
  C   C395      1.0  0.68970  0.43183  0.20886  1.0000
  H   H625      1.0  0.65444  0.38517  0.22885  1.0000
  C   C396      1.0  0.64339  0.39113  0.21742  1.0000
  H   H626      1.0  0.64331  0.37805  0.20508  1.0000
  H   H627      1.0  0.69111  0.41921  0.19670  1.0000
  S   S150      1.0  0.68725  0.36267  0.25493  1.0000
  H   H628      1.0  0.64414  0.41739  0.18523  1.0000
  C   C397      1.0  0.64380  0.42966  0.19790  1.0000
  N   N41       1.0  0.65857  0.42306  0.21358  1.0000
  S   S151      1.0  0.65673  0.37369  0.16697  1.0000
  S   S152      1.0  0.71502  0.37702  0.20620  1.0000
  H   H629      1.0  0.71959  0.41468  0.17004  1.0000
  C   C398      1.0  0.70910  0.42385  0.16085  1.0000
  H   H630      1.0  0.81882  0.40132  0.26076  1.0000
  C   C399      1.0  0.81511  0.35700  0.16561  1.0000
  H   H631      1.0  0.82978  0.37990  0.16856  1.0000
  H   H632      1.0  0.81277  0.36986  0.27458  1.0000
  S   S153      1.0  0.77992  0.36160  0.19275  1.0000
  H   H633      1.0  0.80367  0.36990  0.23236  1.0000
  N   N42       1.0  0.77675  0.36362  0.25641  1.0000
  H   H634      1.0  0.77857  0.39987  0.24034  1.0000
  C   C400      1.0  0.80182  0.38247  0.26851  1.0000
  H   H635      1.0  0.55832  0.27759  0.34189  1.0000
  H   H636      1.0  0.60667  0.31989  0.33432  1.0000
  H   H637      1.0  0.59045  0.27270  0.31745  1.0000
  H   H638      1.0  0.61667  0.32243  0.35835  1.0000
  H   H639      1.0  0.64028  0.31915  0.34114  1.0000
  H   H640      1.0  0.63835  0.27434  0.35628  1.0000
  H   H641      1.0  0.61695  0.27997  0.37413  1.0000
  H   H642      1.0  0.56911  0.27956  0.36576  1.0000
  H   H643      1.0  0.55733  0.24573  0.35312  1.0000
  H   H644      1.0  0.62448  0.27242  0.32388  1.0000
  C   C401      1.0  0.61676  0.31157  0.34501  1.0000
  H   H645      1.0  0.67790  0.28223  0.29639  1.0000
  S   S154      1.0  0.68246  0.28895  0.38424  1.0000
  Fe  Fe76      1.0  0.69788  0.32446  0.36251  1.0000
  C   C402      1.0  0.68844  0.32226  0.31160  1.0000
  C   C403      1.0  0.68232  0.30506  0.29543  1.0000
  N   N43       1.0  0.60087  0.27913  0.34647  1.0000
  C   C404      1.0  0.60135  0.26575  0.32842  1.0000
  C   C405      1.0  0.61550  0.26916  0.36050  1.0000
  C   C406      1.0  0.57001  0.27011  0.35202  1.0000
  H   H646      1.0  0.58998  0.24127  0.32904  1.0000
  H   H647      1.0  0.60347  0.24494  0.36261  1.0000
  S   S155      1.0  0.68813  0.30557  0.33312  1.0000
  Fe  Fe77      1.0  0.66494  0.31627  0.39897  1.0000
  Fe  Fe78      1.0  0.72547  0.31683  0.39873  1.0000
  S   S156      1.0  0.74255  0.35033  0.37609  1.0000
  S   S157      1.0  0.67710  0.34999  0.37651  1.0000
  C   C407      1.0  0.69399  0.35169  0.31017  1.0000
  H   H648      1.0  0.61842  0.24629  0.40098  1.0000
  H   H649      1.0  0.74636  0.34703  0.27901  1.0000
  C   C408      1.0  0.69341  0.36368  0.29274  1.0000
  Fe  Fe79      1.0  0.72028  0.37300  0.39186  1.0000
  H   H650      1.0  0.69873  0.36520  0.32248  1.0000
  H   H651      1.0  0.69771  0.38646  0.29179  1.0000
  S   S158      1.0  0.74319  0.42080  0.40060  1.0000
  H   H652      1.0  0.68187  0.40896  0.39718  1.0000
  H   H653      1.0  0.79437  0.39172  0.28017  1.0000
  H   H654      1.0  0.54566  0.07938  0.43660  1.0000
  S   S159      1.0  0.53763  0.17003  0.43616  1.0000
  Fe  Fe80      1.0  0.55492  0.16852  0.50368  1.0000
  S   S160      1.0  0.54646  0.13735  0.48021  1.0000
  H   H655      1.0  0.54197  0.11191  0.44223  1.0000
  H   H656      1.0  0.53723  0.35255  0.50691  1.0000
  H   H657      1.0  0.57708  0.27734  0.44118  1.0000
  S   S161      1.0  0.59975  0.19273  0.51684  1.0000
  S   S162      1.0  0.62139  0.30219  0.41354  1.0000
  H   H658      1.0  0.58458  0.19466  0.40959  1.0000
  C   C409      1.0  0.56237  0.20680  0.43071  1.0000
  C   C410      1.0  0.58315  0.21272  0.41662  1.0000
  C   C411      1.0  0.60231  0.24196  0.41171  1.0000
  C   C412      1.0  0.60002  0.26536  0.42046  1.0000
  C   C413      1.0  0.57917  0.25940  0.43447  1.0000
  C   C414      1.0  0.56073  0.23028  0.43978  1.0000
  S   S163      1.0  0.53764  0.19602  0.48890  1.0000
  H   H659      1.0  0.66974  0.33681  0.46833  1.0000
  H   H660      1.0  0.63335  0.32130  0.45803  1.0000
  S   S164      1.0  0.70658  0.34122  0.41527  1.0000
  C   C415      1.0  0.65675  0.33808  0.45626  1.0000
  H   H661      1.0  0.54456  0.22593  0.45049  1.0000
  H   H662      1.0  0.66488  0.33123  0.44385  1.0000
  H   H663      1.0  0.61876  0.35082  0.43830  1.0000
  S   S165      1.0  0.74905  0.29435  0.41346  1.0000
  H   H664      1.0  0.79137  0.27933  0.43039  1.0000
  C   C416      1.0  0.83018  0.32017  0.43620  1.0000
  C   C417      1.0  0.82329  0.24720  0.51756  1.0000
  C   C418      1.0  0.80145  0.30305  0.42927  1.0000
  C   C419      1.0  0.78574  0.31647  0.42086  1.0000
  H   H665      1.0  0.84231  0.30970  0.44251  1.0000
  S   S166      1.0  0.85774  0.33450  0.49041  1.0000
  N   N44       1.0  0.76493  0.27337  0.48196  1.0000
  C   C420      1.0  0.79023  0.26967  0.47481  1.0000
  C   C421      1.0  0.74827  0.27741  0.46634  1.0000
  C   C422      1.0  0.77596  0.29956  0.49418  1.0000
  C   C423      1.0  0.74550  0.24691  0.49253  1.0000
  H   H666      1.0  0.80281  0.26579  0.48615  1.0000
  H   H667      1.0  0.80597  0.28967  0.46747  1.0000
  H   H668      1.0  0.78302  0.25075  0.46504  1.0000
  H   H669      1.0  0.72847  0.27937  0.47110  1.0000
  H   H670      1.0  0.76215  0.29770  0.45842  1.0000
  H   H671      1.0  0.74064  0.25868  0.45635  1.0000
  H   H672      1.0  0.75750  0.30295  0.49997  1.0000
  H   H673      1.0  0.79073  0.31993  0.48661  1.0000
  H   H674      1.0  0.78897  0.29742  0.50599  1.0000
  H   H675      1.0  0.72616  0.24886  0.49825  1.0000
  H   H676      1.0  0.75755  0.24330  0.50440  1.0000
  H   H677      1.0  0.73690  0.22674  0.48373  1.0000
  H   H678      1.0  0.83489  0.29297  0.52202  1.0000
  C   C424      1.0  0.79915  0.34711  0.41904  1.0000
  C   C425      1.0  0.84351  0.35081  0.43455  1.0000
  C   C426      1.0  0.82049  0.27053  0.52594  1.0000
  H   H679      1.0  0.80676  0.20005  0.51662  1.0000
  C   C427      1.0  0.80477  0.21823  0.52307  1.0000
  Fe  Fe81      1.0  0.89197  0.35495  0.46854  1.0000
  S   S167      1.0  0.84895  0.25402  0.49966  1.0000
  S   S168      1.0  0.98550  0.35178  0.49642  1.0000
  Fe  Fe82      1.0  0.87624  0.30241  0.49356  1.0000
  H   H680      1.0  0.97609  0.29271  0.51284  1.0000
  C   C428      1.0  0.95626  0.28521  0.52180  1.0000
  S   S169      1.0  0.90750  0.32000  0.46968  1.0000
  S   S170      1.0  0.90993  0.32956  0.51456  1.0000
  N   N45       1.0  0.93100  0.25892  0.51400  1.0000
  C   C429      1.0  0.90494  0.25056  0.52596  1.0000
  C   C430      1.0  0.93870  0.23427  0.51287  1.0000
  H   H681      1.0  0.90492  0.24648  0.48899  1.0000
  C   C431      1.0  0.92409  0.26566  0.49531  1.0000
  H   H682      1.0  0.92006  0.21416  0.50696  1.0000
  H   H683      1.0  0.94400  0.22852  0.52673  1.0000
  H   H684      1.0  0.95826  0.23992  0.50391  1.0000
  H   H685      1.0  0.94331  0.27250  0.48591  1.0000
  H   H686      1.0  0.91811  0.28402  0.49575  1.0000
  H   H687      1.0  0.95104  0.30414  0.52301  1.0000
  Fe  Fe83      1.0  0.94050  0.34979  0.49071  1.0000
  H   H688      1.0  0.88530  0.23105  0.52034  1.0000
  H   H689      1.0  0.89846  0.26866  0.52705  1.0000
  H   H690      1.0  0.54589  0.41082  0.52491  1.0000
  H   H691      1.0  0.58132  0.43326  0.49959  1.0000
  C   C432      1.0  0.59391  0.42174  0.50486  1.0000
  C   C433      1.0  0.55231  0.37393  0.50052  1.0000
  N   N46       1.0  0.57443  0.39376  0.51398  1.0000
  S   S171      1.0  0.65029  0.48851  0.49101  1.0000
  H   H692      1.0  0.60428  0.37498  0.50973  1.0000
  H   H693      1.0  0.56302  0.36897  0.48859  1.0000
  H   H694      1.0  0.60586  0.41821  0.49305  1.0000
  H   H695      1.0  0.61097  0.43705  0.51460  1.0000
  C   C434      1.0  0.59238  0.37977  0.52102  1.0000
  H   H696      1.0  0.53829  0.38381  0.49508  1.0000
  H   H697      1.0  0.62413  0.36046  0.47288  1.0000
  H   H698      1.0  0.66043  0.37599  0.48327  1.0000
  H   H699      1.0  0.78591  0.50563  0.51686  1.0000
  H   H700      1.0  0.65161  0.36494  0.42474  1.0000
  C   C435      1.0  0.69227  0.42552  0.40780  1.0000
  N   N47       1.0  0.65930  0.36798  0.45407  1.0000
  C   C436      1.0  0.64197  0.36847  0.43773  1.0000
  H   H701      1.0  0.64130  0.38989  0.43653  1.0000
  H   H702      1.0  0.69987  0.38503  0.43871  1.0000
  C   C437      1.0  0.69066  0.38941  0.45160  1.0000
  H   H703      1.0  0.69335  0.41226  0.45061  1.0000
  H   H704      1.0  0.64959  0.39865  0.46942  1.0000
  C   C438      1.0  0.64779  0.37607  0.47068  1.0000
  H   H705      1.0  0.65308  0.43053  0.41326  1.0000
  H   H706      1.0  0.70471  0.38893  0.46329  1.0000
  Fe  Fe84      1.0  0.68495  0.49810  0.46937  1.0000
  C   C439      1.0  0.72218  0.43539  0.41205  1.0000
  S   S172      1.0  0.71657  0.49120  0.48808  1.0000
  Fe  Fe85      1.0  0.68340  0.48508  0.50992  1.0000
  S   S173      1.0  0.66722  0.47170  0.44308  1.0000
  C   C440      1.0  0.73564  0.45739  0.42555  1.0000
  C   C441      1.0  0.71911  0.46891  0.43513  1.0000
  C   C442      1.0  0.68921  0.45905  0.43084  1.0000
  C   C443      1.0  0.67605  0.43781  0.41689  1.0000
  H   H707      1.0  0.75886  0.46532  0.42874  1.0000
  H   H708      1.0  0.72957  0.48558  0.44567  1.0000
  H   H709      1.0  0.78613  0.48313  0.49778  1.0000
  C   C444      1.0  0.79963  0.50400  0.50541  1.0000
  H   H710      1.0  0.57845  0.35873  0.52818  1.0000
  H   H711      1.0  0.85064  0.52122  0.48696  1.0000
  C   C445      1.0  0.82091  0.48055  0.52532  1.0000
  Fe  Fe86      1.0  0.89405  0.36318  0.50967  1.0000
  H   H712      1.0  0.86624  0.50361  0.50180  1.0000
  H   H713      1.0  0.83283  0.48178  0.48913  1.0000
  H   H714      1.0  0.91954  0.47847  0.50644  1.0000
  H   H715      1.0  0.90931  0.42597  0.50696  1.0000
  H   H716      1.0  0.80824  0.45883  0.51840  1.0000
  H   H717      1.0  0.78726  0.35766  0.41251  1.0000
  S   S174      1.0  0.87947  0.37255  0.44325  1.0000
  H   H718      1.0  0.83843  0.38790  0.42427  1.0000
  C   C446      1.0  0.82809  0.36421  0.42573  1.0000
  C   C447      1.0  0.90238  0.43509  0.51830  1.0000
  C   C448      1.0  0.90808  0.46476  0.51801  1.0000
  N   N48       1.0  0.82755  0.50517  0.51244  1.0000
  C   C449      1.0  0.84505  0.50284  0.49687  1.0000
  C   C450      1.0  0.01849  0.37552  0.48507  1.0000
  H   H719      1.0  0.03135  0.46527  0.50368  1.0000
  S   S175      1.0  0.92759  0.38639  0.48777  1.0000
  H   H720      1.0  0.99790  0.39062  0.46446  1.0000
  C   C451      1.0  0.01855  0.39231  0.46982  1.0000
  H   H721      1.0  0.03248  0.43082  0.50685  1.0000
  S   S176      1.0  0.61844  0.14038  0.59148  1.0000
  C   C452      1.0  0.61309  0.15501  0.57087  1.0000
  C   C453      1.0  0.58502  0.14317  0.56271  1.0000
  H   H722      1.0  0.56653  0.12542  0.56937  1.0000
  C   C454      1.0  0.58096  0.15394  0.54573  1.0000
  C   C455      1.0  0.63704  0.17769  0.56215  1.0000
  H   H723      1.0  0.56508  0.03758  0.58467  1.0000
  C   C456      1.0  0.57533  0.05471  0.57389  1.0000
  H   H724      1.0  0.56114  0.04731  0.56130  1.0000
  H   H725      1.0  0.57493  0.07522  0.57899  1.0000
  H   H726      1.0  0.55940  0.14439  0.53939  1.0000
  N   N49       1.0  0.60585  0.05997  0.56999  1.0000
  H   H727      1.0  0.60560  0.07707  0.54289  1.0000
  C   C457      1.0  0.60478  0.17704  0.53716  1.0000
  H   H728      1.0  0.62005  0.10439  0.56082  1.0000
  H   H729      1.0  0.59209  0.02437  0.55031  1.0000
  H   H730      1.0  0.62195  0.08828  0.59383  1.0000
  C   C458      1.0  0.61884  0.08318  0.55589  1.0000
  H   H731      1.0  0.65881  0.18685  0.56837  1.0000
  C   C459      1.0  0.60569  0.03256  0.56309  1.0000
  C   C460      1.0  0.62368  0.06951  0.58713  1.0000
  Fe  Fe87      1.0  0.72074  0.17347  0.61815  1.0000
  S   S177      1.0  0.74840  0.16745  0.59594  1.0000
  Fe  Fe88      1.0  0.66642  0.15160  0.59364  1.0000
  S   S178      1.0  0.68959  0.14515  0.56920  1.0000
  Fe  Fe89      1.0  0.70768  0.12445  0.58989  1.0000
  S   S179      1.0  0.70524  0.08078  0.58034  1.0000
  S   S180      1.0  0.68215  0.12869  0.61396  1.0000
  C   C461      1.0  0.66991  0.04568  0.60827  1.0000
  C   C462      1.0  0.67934  0.04714  0.59005  1.0000
  H   H732      1.0  0.67890  0.06530  0.61682  1.0000
  H   H733      1.0  0.64178  0.08742  0.55243  1.0000
  H   H734      1.0  0.64746  0.07703  0.58432  1.0000
  H   H735      1.0  0.61658  0.05149  0.59744  1.0000
  H   H736      1.0  0.62848  0.03615  0.55982  1.0000
  H   H737      1.0  0.67487  0.02235  0.56507  1.0000
  S   S181      1.0  0.55807  0.31750  0.62575  1.0000
  Fe  Fe90      1.0  0.53979  0.33943  0.60596  1.0000
  C   C463      1.0  0.58692  0.33842  0.64137  1.0000
  C   C464      1.0  0.54706  0.24409  0.56630  1.0000
  H   H738      1.0  0.53673  0.23063  0.57872  1.0000
  C   C465      1.0  0.63281  0.18893  0.54541  1.0000
  H   H739      1.0  0.55825  0.25081  0.52988  1.0000
  H   H740      1.0  0.56248  0.26674  0.57111  1.0000
  H   H741      1.0  0.55186  0.19088  0.54038  1.0000
  H   H742      1.0  0.59834  0.21996  0.55813  1.0000
  C   C466      1.0  0.54099  0.20110  0.54905  1.0000
  C   C467      1.0  0.57553  0.24943  0.53875  1.0000
  N   N50       1.0  0.56240  0.23098  0.55513  1.0000
  H   H743      1.0  0.65131  0.20680  0.53883  1.0000
  H   H744      1.0  0.59163  0.27224  0.54276  1.0000
  H   H745      1.0  0.60230  0.25132  0.57142  1.0000
  C   C468      1.0  0.58599  0.22922  0.56632  1.0000
  H   H746      1.0  0.66084  0.22547  0.64852  1.0000
  H   H747      1.0  0.57682  0.21478  0.57853  1.0000
  H   H748      1.0  0.59443  0.30134  0.64862  1.0000
  C   C469      1.0  0.68319  0.23085  0.65279  1.0000
  H   H749      1.0  0.58734  0.24014  0.53005  1.0000
  C   C470      1.0  0.60074  0.32436  0.65123  1.0000
  Fe  Fe91      1.0  0.72787  0.18826  0.57723  1.0000
  H   H750      1.0  0.68337  0.19394  0.63835  1.0000
  S   S182      1.0  0.70243  0.19639  0.59982  1.0000
  H   H751      1.0  0.80659  0.26748  0.61205  1.0000
  S   S183      1.0  0.75234  0.23041  0.56103  1.0000
  C   C471      1.0  0.78015  0.23603  0.54483  1.0000
  N   N51       1.0  0.77549  0.28503  0.60859  1.0000
  C   C472      1.0  0.78244  0.25996  0.61050  1.0000
  C   C473      1.0  0.74325  0.27379  0.60613  1.0000
  C   C474      1.0  0.79091  0.30263  0.59233  1.0000
  C   C475      1.0  0.78526  0.30362  0.62540  1.0000
  H   H752      1.0  0.77470  0.24503  0.59826  1.0000
  H   H753      1.0  0.77153  0.24647  0.62277  1.0000
  H   H754      1.0  0.73704  0.29205  0.60518  1.0000
  H   H755      1.0  0.73531  0.26036  0.59326  1.0000
  H   H756      1.0  0.73087  0.25958  0.61789  1.0000
  H   H757      1.0  0.81530  0.31149  0.59370  1.0000
  H   H758      1.0  0.78606  0.32167  0.59037  1.0000
  H   H759      1.0  0.80944  0.31224  0.62782  1.0000
  H   H760      1.0  0.77374  0.29094  0.63786  1.0000
  H   H761      1.0  0.78054  0.32288  0.62441  1.0000
  C   C476      1.0  0.79877  0.26494  0.53933  1.0000
  H   H762      1.0  0.79648  0.28317  0.54546  1.0000
  C   C477      1.0  0.69599  0.21304  0.64692  1.0000
  H   H763      1.0  0.78404  0.28906  0.57947  1.0000
  C   C478      1.0  0.78336  0.21264  0.53681  1.0000
  H   H764      1.0  0.76897  0.19026  0.54091  1.0000
  S   S184      1.0  0.74085  0.19727  0.64490  1.0000
  C   C479      1.0  0.72464  0.21945  0.65251  1.0000
  H   H765      1.0  0.96248  0.28095  0.53580  1.0000
  H   H766      1.0  0.90922  0.24524  0.54019  1.0000
  H   H767      1.0  0.60932  0.39428  0.53118  1.0000
  H   H768      1.0  0.54862  0.51906  0.58828  1.0000
  H   H769      1.0  0.53882  0.48246  0.59646  1.0000
  H   H770      1.0  0.54407  0.37906  0.53662  1.0000
  S   S185      1.0  0.56144  0.36076  0.57953  1.0000
  H   H771      1.0  0.64328  0.48754  0.53350  1.0000
  S   S186      1.0  0.56925  0.44217  0.58111  1.0000
  Fe  Fe92      1.0  0.54437  0.39342  0.58585  1.0000
  C   C480      1.0  0.60242  0.44942  0.57013  1.0000
  C   C481      1.0  0.61321  0.47062  0.55624  1.0000
  H   H772      1.0  0.60304  0.48491  0.55372  1.0000
  C   C482      1.0  0.63590  0.47199  0.54472  1.0000
  H   H773      1.0  0.58493  0.37932  0.63723  1.0000
  C   C483      1.0  0.61584  0.43124  0.57340  1.0000
  H   H774      1.0  0.60866  0.41599  0.58475  1.0000
  C   C484      1.0  0.59530  0.36821  0.64482  1.0000
  H   H775      1.0  0.57526  0.41411  0.54010  1.0000
  H   H776      1.0  0.56153  0.49601  0.57653  1.0000
  C   C485      1.0  0.54228  0.49602  0.58384  1.0000
  H   H777      1.0  0.54026  0.50200  0.54709  1.0000
  C   C486      1.0  0.55921  0.39973  0.52955  1.0000
  H   H778      1.0  0.77072  0.38804  0.65458  1.0000
  S   S187      1.0  0.67084  0.44886  0.53043  1.0000
  C   C487      1.0  0.64754  0.45199  0.54705  1.0000
  C   C488      1.0  0.63818  0.43229  0.56177  1.0000
  H   H779      1.0  0.64755  0.41722  0.56384  1.0000
  H   H780      1.0  0.70953  0.42028  0.63000  1.0000
  C   C489      1.0  0.71606  0.41824  0.64439  1.0000
  H   H781      1.0  0.70134  0.46230  0.64046  1.0000
  H   H782      1.0  0.73172  0.40851  0.64368  1.0000
  H   H783      1.0  0.75124  0.47057  0.62951  1.0000
  H   H784      1.0  0.77315  0.45921  0.64371  1.0000
  C   C490      1.0  0.75632  0.46753  0.64407  1.0000
  H   H785      1.0  0.76700  0.48960  0.65083  1.0000
  H   H786      1.0  0.69585  0.40220  0.65161  1.0000
  C   C491      1.0  0.88805  0.41745  0.53342  1.0000
  S   S188      1.0  0.88191  0.38081  0.53479  1.0000
  H   H787      1.0  0.80773  0.48161  0.53727  1.0000
  H   H788      1.0  0.84156  0.48102  0.53101  1.0000
  S   S189      1.0  0.90792  0.50843  0.58718  1.0000
  Fe  Fe93      1.0  0.86326  0.50118  0.59695  1.0000
  S   S190      1.0  0.82738  0.45698  0.60631  1.0000
  C   C492      1.0  0.88406  0.45871  0.54753  1.0000
  C   C493      1.0  0.87868  0.42925  0.54793  1.0000
  H   H789      1.0  0.87637  0.46739  0.55873  1.0000
  H   H790      1.0  0.86733  0.41562  0.55956  1.0000
  C   C494      1.0  0.79615  0.41866  0.63345  1.0000
  C   C495      1.0  0.81959  0.44638  0.62956  1.0000
  C   C496      1.0  0.83558  0.46491  0.64414  1.0000
  H   H791      1.0  0.78380  0.40421  0.62221  1.0000
  H   H792      1.0  0.85371  0.48629  0.64128  1.0000
  S   S191      1.0  0.85143  0.51423  0.56977  1.0000
  C   C497      1.0  0.89927  0.47663  0.53278  1.0000
  S   S192      1.0  0.90781  0.51401  0.53307  1.0000
  C   C498      1.0  0.78860  0.40953  0.65177  1.0000
  C   C499      1.0  0.80453  0.42803  0.66637  1.0000
  C   C500      1.0  0.70535  0.33797  0.77798  1.0000
  H   H793      1.0  0.65001  0.19535  0.73701  1.0000
  C   C501      1.0  0.62271  0.33986  0.66450  1.0000
  Fe  Fe94      1.0  0.70167  0.31849  0.68789  1.0000
  S   S193      1.0  0.68099  0.27602  0.67155  1.0000
  S   S194      1.0  0.67027  0.32291  0.70787  1.0000
  S   S195      1.0  0.70650  0.32364  0.75569  1.0000
  H   H794      1.0  0.63320  0.32877  0.67200  1.0000
  H   H795      1.0  0.62517  0.21133  0.71318  1.0000
  Fe  Fe95      1.0  0.70960  0.34383  0.72706  1.0000
  C   C502      1.0  0.64717  0.22885  0.70906  1.0000
  H   H796      1.0  0.64394  0.24764  0.70362  1.0000
  H   H797      1.0  0.65517  0.22033  0.69728  1.0000
  N   N52       1.0  0.66846  0.23823  0.72465  1.0000
  H   H798      1.0  0.63579  0.23506  0.74452  1.0000
  H   H799      1.0  0.65617  0.27095  0.73460  1.0000
  C   C503      1.0  0.65789  0.25106  0.73946  1.0000
  H   H800      1.0  0.69544  0.27933  0.71180  1.0000
  C   C504      1.0  0.67146  0.21260  0.73183  1.0000
  H   H801      1.0  0.67342  0.25831  0.75148  1.0000
  C   C505      1.0  0.69749  0.26061  0.71820  1.0000
  C   C506      1.0  0.69896  0.25539  0.66417  1.0000
  H   H802      1.0  0.67921  0.20237  0.72089  1.0000
  H   H803      1.0  0.68774  0.21914  0.74342  1.0000
  H   H804      1.0  0.70682  0.25151  0.70753  1.0000
  S   S196      1.0  0.74034  0.33675  0.70750  1.0000
  H   H805      1.0  0.71380  0.26971  0.72974  1.0000
  C   C507      1.0  0.74049  0.24391  0.66404  1.0000
  C   C508      1.0  0.72777  0.26208  0.66974  1.0000
  H   H806      1.0  0.76267  0.24890  0.66845  1.0000
  H   H807      1.0  0.74010  0.28099  0.67853  1.0000
  H   H808      1.0  0.62285  0.40644  0.66129  1.0000
  H   H809      1.0  0.71803  0.42839  0.68115  1.0000
  H   H810      1.0  0.74877  0.46455  0.68062  1.0000
  H   H811      1.0  0.68755  0.44392  0.66200  1.0000
  C   C509      1.0  0.70801  0.45909  0.65460  1.0000
  H   H812      1.0  0.70315  0.37688  0.76849  1.0000
  C   C510      1.0  0.73771  0.44320  0.67307  1.0000
  C   C511      1.0  0.61683  0.38356  0.65842  1.0000
  S   S197      1.0  0.72183  0.38955  0.71660  1.0000
  S   S198      1.0  0.65690  0.38885  0.68565  1.0000
  C   C512      1.0  0.63053  0.36940  0.66833  1.0000
  N   N53       1.0  0.72954  0.44704  0.65402  1.0000
  H   H813      1.0  0.71733  0.48071  0.66190  1.0000
  H   H814      1.0  0.75317  0.43329  0.67317  1.0000
  Fe  Fe96      1.0  0.74943  0.38074  0.69562  1.0000
  S   S199      1.0  0.71350  0.36175  0.67427  1.0000
  Fe  Fe97      1.0  0.68513  0.36772  0.69566  1.0000
  C   C513      1.0  0.82812  0.45566  0.66250  1.0000
  H   H815      1.0  0.84058  0.47006  0.67375  1.0000
  S   S200      1.0  0.79482  0.41752  0.68951  1.0000
  H   H816      1.0  0.53284  0.32298  0.66470  1.0000
  H   H817      1.0  0.58265  0.34801  0.87185  1.0000
  S   S201      1.0  0.72809  0.33358  0.87719  1.0000
  H   H818      1.0  0.70429  0.31934  0.82355  1.0000
  Fe  Fe98      1.0  0.69090  0.31206  0.89737  1.0000
  S   S202      1.0  0.66246  0.32985  0.88347  1.0000
  C   C514      1.0  0.70577  0.32199  0.79371  1.0000
  C   C515      1.0  0.70417  0.33205  0.81165  1.0000
  Fe  Fe99      1.0  0.70155  0.35487  0.86515  1.0000
  H   H819      1.0  0.60309  0.34484  0.84120  1.0000
  H   H820      1.0  0.63551  0.34657  0.85233  1.0000
  H   H821      1.0  0.70719  0.30158  0.79200  1.0000
  H   H822      1.0  0.61510  0.34986  0.88300  1.0000
  H   H823      1.0  0.58779  0.38404  0.84729  1.0000
  H   H824      1.0  0.60916  0.41381  0.86284  1.0000
  C   C516      1.0  0.61057  0.39825  0.85252  1.0000
  H   H825      1.0  0.62391  0.41152  0.84074  1.0000
  H   H826      1.0  0.60406  0.37799  0.88729  1.0000
  C   C517      1.0  0.70189  0.35818  0.81406  1.0000
  H   H827      1.0  0.63929  0.37242  0.83473  1.0000
  C   C518      1.0  0.62538  0.36018  0.84663  1.0000
  C   C519      1.0  0.60554  0.36332  0.87635  1.0000
  H   H828      1.0  0.65377  0.41593  0.87818  1.0000
  H   H829      1.0  0.66870  0.41306  0.85610  1.0000
  C   C520      1.0  0.65394  0.40022  0.86751  1.0000
  N   N54       1.0  0.62383  0.38047  0.86074  1.0000
  H   H830      1.0  0.66425  0.38747  0.87406  1.0000
  S   S203      1.0  0.69910  0.37173  0.83627  1.0000
  C   C521      1.0  0.70172  0.37430  0.79835  1.0000
  H   H831      1.0  0.70002  0.39458  0.80002  1.0000
  S   S204      1.0  0.72104  0.39348  0.88468  1.0000
  Fe  Fe100     1.0  0.74507  0.37100  0.89776  1.0000
  H   H832      1.0  0.75649  0.41803  0.85104  1.0000
  H   H833      1.0  0.76476  0.40618  0.81937  1.0000
  C   C522      1.0  0.70351  0.36434  0.78043  1.0000
  H   H834      1.0  0.75622  0.37017  0.84411  1.0000
  C   C523      1.0  0.78064  0.42725  0.85384  1.0000
  H   H835      1.0  0.79068  0.45131  0.85111  1.0000
  H   H836      1.0  0.78365  0.42447  0.86885  1.0000
  H   H837      1.0  0.78993  0.36897  0.83838  1.0000
  H   H838      1.0  0.79854  0.40513  0.81355  1.0000
  H   H839      1.0  0.79872  0.43976  0.81875  1.0000
  C   C524      1.0  0.78888  0.41613  0.82264  1.0000
  H   H840      1.0  0.78407  0.37739  0.86161  1.0000
  C   C525      1.0  0.78048  0.38088  0.84682  1.0000
  H   H841      1.0  0.83052  0.42345  0.86114  1.0000
  C   C526      1.0  0.82615  0.42585  0.84628  1.0000
  H   H842      1.0  0.83719  0.44979  0.84311  1.0000
  H   H843      1.0  0.83703  0.41516  0.83798  1.0000
  N   N55       1.0  0.79407  0.41256  0.84237  1.0000
  H   H844      1.0  0.60162  0.03738  0.01001  1.0000
  S   S205      1.0  0.61138  0.12192  0.00230  1.0000
  C   C527      1.0  0.58149  0.05316  0.98000  1.0000
  H   H845      1.0  0.60287  0.07181  0.97580  1.0000
  H   H846      1.0  0.56357  0.12573  0.02006  1.0000
  C   C528      1.0  0.60817  0.13282  0.02471  1.0000
  H   H847      1.0  0.57490  0.06001  0.99309  1.0000
  H   H848      1.0  0.56474  0.05066  0.96929  1.0000
  N   N56       1.0  0.58431  0.02575  0.98237  1.0000
  H   H849      1.0  0.61510  0.03491  0.96015  1.0000
  H   H850      1.0  0.62905  0.04826  0.99236  1.0000
  Fe  Fe101     1.0  0.65815  0.13296  0.99586  1.0000
  S   S206      1.0  0.66879  0.12796  0.96656  1.0000
  S   S207      1.0  0.67826  0.10600  0.00820  1.0000
  Fe  Fe102     1.0  0.71092  0.16910  0.97184  1.0000
  S   S208      1.0  0.73488  0.14375  0.98166  1.0000
  Fe  Fe103     1.0  0.69127  0.10302  0.97909  1.0000
  S   S209      1.0  0.68118  0.06016  0.96427  1.0000
  Fe  Fe104     1.0  0.71971  0.14925  0.00981  1.0000
  H   H851      1.0  0.68387  0.04364  0.00259  1.0000
  S   S210      1.0  0.69795  0.17649  0.00021  1.0000
  H   H852      1.0  0.67394  0.18833  0.94498  1.0000
  C   C529      1.0  0.66677  0.02587  0.97568  1.0000
  C   C530      1.0  0.60710  0.03056  0.99655  1.0000
  C   C531      1.0  0.67094  0.02389  0.99462  1.0000
  C   C532      1.0  0.56481  0.34246  0.93702  1.0000
  C   C533      1.0  0.57882  0.32637  0.92995  1.0000
  H   H853      1.0  0.56709  0.30256  0.92952  1.0000
  H   H854      1.0  0.58867  0.35319  0.97760  1.0000
  H   H855      1.0  0.53321  0.28049  0.97262  1.0000
  H   H856      1.0  0.53384  0.32724  0.02551  1.0000
  S   S211      1.0  0.66880  0.26426  0.90578  1.0000
  H   H857      1.0  0.64822  0.21028  0.92595  1.0000
  C   C534      1.0  0.60812  0.34092  0.92362  1.0000
  C   C535      1.0  0.68779  0.24986  0.91977  1.0000
  H   H858      1.0  0.61888  0.32831  0.91843  1.0000
  C   C536      1.0  0.67189  0.22219  0.92799  1.0000
  S   S212      1.0  0.70978  0.34795  0.91882  1.0000
  H   H859      1.0  0.61582  0.34228  0.98557  1.0000
  H   H860      1.0  0.78993  0.19196  0.99838  1.0000
  H   H861      1.0  0.78164  0.19140  0.96414  1.0000
  H   H862      1.0  0.81787  0.19457  0.96059  1.0000
  C   C537      1.0  0.80536  0.20739  0.96292  1.0000
  C   C538      1.0  0.81335  0.20815  0.99587  1.0000
  C   C539      1.0  0.68642  0.20972  0.93879  1.0000
  H   H863      1.0  0.73086  0.28632  0.91611  1.0000
  H   H864      1.0  0.78695  0.26849  0.02226  1.0000
  C   C540      1.0  0.71841  0.26508  0.92247  1.0000
  H   H865      1.0  0.79736  0.25416  0.96947  1.0000
  S   S213      1.0  0.73635  0.20895  0.95376  1.0000
  C   C541      1.0  0.71709  0.22463  0.94116  1.0000
  C   C542      1.0  0.73302  0.25236  0.93299  1.0000
  H   H866      1.0  0.75675  0.26396  0.93469  1.0000
  H   H867      1.0  0.75236  0.21558  0.01806  1.0000
  H   H868      1.0  0.77478  0.22676  0.98552  1.0000
  C   C543      1.0  0.79811  0.24226  0.98217  1.0000
  N   N57       1.0  0.81603  0.22642  0.97950  1.0000
  H   H869      1.0  0.80700  0.25861  0.99359  1.0000
  C   C544      1.0  0.77056  0.22216  0.02770  1.0000
  H   H870      1.0  0.80707  0.22045  0.95029  1.0000
  H   H871      1.0  0.82155  0.22189  0.00860  1.0000
  H   H872      1.0  0.85005  0.26231  0.96493  1.0000
  H   H873      1.0  0.82610  0.19540  0.99427  1.0000
  H   H874      1.0  0.85610  0.26253  0.98941  1.0000
  C   C545      1.0  0.84732  0.24796  0.97705  1.0000
  H   H875      1.0  0.86144  0.23673  0.97488  1.0000
  Fe  Fe105     1.0  0.53631  0.40323  0.98900  1.0000
  C   C546      1.0  0.62068  0.45660  0.02208  1.0000
  C   C547      1.0  0.58012  0.37320  0.93751  1.0000
  H   H876      1.0  0.56944  0.38582  0.94278  1.0000
  C   C548      1.0  0.60913  0.38774  0.93083  1.0000
  H   H877      1.0  0.63610  0.47164  0.01227  1.0000
  S   S214      1.0  0.57913  0.44279  0.99505  1.0000
  C   C549      1.0  0.59129  0.43894  0.01692  1.0000
  H   H878      1.0  0.62064  0.41156  0.93096  1.0000
  H   H879      1.0  0.54892  0.40490  0.02542  1.0000
  H   H880      1.0  0.59930  0.40464  0.97728  1.0000
  H   H881      1.0  0.63331  0.43267  0.98645  1.0000
  C   C550      1.0  0.62335  0.41133  0.97881  1.0000
  H   H882      1.0  0.59392  0.38040  0.00790  1.0000
  S   S215      1.0  0.53526  0.35907  0.99167  1.0000
  Fe  Fe106     1.0  0.68373  0.36701  0.90366  1.0000
  H   H883      1.0  0.62991  0.40627  0.01563  1.0000
  C   C551      1.0  0.61766  0.38554  0.00757  1.0000
  H   H884      1.0  0.63293  0.41551  0.96474  1.0000
  H   H885      1.0  0.66951  0.39964  0.97448  1.0000
  H   H886      1.0  0.62100  0.36159  0.96419  1.0000
  C   C552      1.0  0.61284  0.36014  0.97855  1.0000
  H   H887      1.0  0.62007  0.36772  0.01506  1.0000
  H   H888      1.0  0.66546  0.38087  0.99605  1.0000
  C   C553      1.0  0.66063  0.39740  0.98874  1.0000
  H   H889      1.0  0.67320  0.41901  0.99587  1.0000
  H   H890      1.0  0.76768  0.43159  0.91613  1.0000
  C   C554      1.0  0.62334  0.37168  0.92407  1.0000
  H   H891      1.0  0.78877  0.47862  0.93385  1.0000
  N   N58       1.0  0.62859  0.38858  0.98843  1.0000
  S   S216      1.0  0.65998  0.39102  0.91624  1.0000
  C   C555      1.0  0.80265  0.46836  0.93033  1.0000
  C   C556      1.0  0.79071  0.44178  0.92024  1.0000
  S   S217      1.0  0.79438  0.39509  0.90306  1.0000
  H   H892      1.0  0.85445  0.43695  0.96518  1.0000
  C   C557      1.0  0.81358  0.38432  0.95232  1.0000
  H   H893      1.0  0.80344  0.35986  0.95153  1.0000
  H   H894      1.0  0.77739  0.35926  0.98075  1.0000
  C   C558      1.0  0.80868  0.42870  0.91539  1.0000
  H   H895      1.0  0.79863  0.39109  0.94465  1.0000
  H   H896      1.0  0.82711  0.36001  0.98120  1.0000
  C   C559      1.0  0.85022  0.46828  0.93139  1.0000
  C   C560      1.0  0.83680  0.38445  0.98151  1.0000
  H   H897      1.0  0.83986  0.39149  0.99626  1.0000
  H   H898      1.0  0.85929  0.39355  0.97541  1.0000
  N   N59       1.0  0.81795  0.39503  0.97161  1.0000
  H   H899      1.0  0.79146  0.39144  0.99537  1.0000
  H   H900      1.0  0.87324  0.47854  0.93552  1.0000
  H   H901      1.0  0.77428  0.39150  0.97362  1.0000
  C   C561      1.0  0.89416  0.43874  0.02678  1.0000
  H   H902      1.0  0.87536  0.39159  0.02383  1.0000
  S   S218      1.0  0.84660  0.51489  0.94871  1.0000
  H   H903      1.0  0.83486  0.39323  0.94474  1.0000
  C   C562      1.0  0.83238  0.42760  0.97187  1.0000
  S   S219      1.0  0.86477  0.50184  0.99735  1.0000
  H   H904      1.0  0.83610  0.43641  0.98623  1.0000
  Fe  Fe107     1.0  0.90243  0.49073  0.99683  1.0000
  C   C563      1.0  0.83235  0.48157  0.93607  1.0000
  S   S220      1.0  0.89380  0.44461  0.00306  1.0000
  S   S221      1.0  0.91719  0.50854  0.96868  1.0000
  H   H905      1.0  0.81888  0.43648  0.96449  1.0000
  C   C564      1.0  0.78896  0.38378  0.98077  1.0000
  H   H906      1.0  0.85255  0.43219  0.91713  1.0000
  C   C565      1.0  0.83849  0.44212  0.92090  1.0000
  H   H907      1.0  0.97414  0.48731  0.01876  1.0000
  H   H908      1.0  0.02394  0.49206  0.01116  1.0000
  C   C566      1.0  0.03246  0.50435  0.02435  1.0000
  S   S222      1.0  0.55247  0.58386  0.09181  1.0000
  C   C567      1.0  0.61288  0.61193  0.08506  1.0000
  C   C568      1.0  0.58888  0.58746  0.09241  1.0000
  H   H909      1.0  0.60978  0.63027  0.07992  1.0000
  H   H910      1.0  0.57494  0.54490  0.10487  1.0000
  C   C569      1.0  0.59329  0.56381  0.09901  1.0000
  S   S223      1.0  0.56325  0.67040  0.09566  1.0000
  Fe  Fe108     1.0  0.53664  0.67369  0.07149  1.0000
  Fe  Fe109     1.0  0.53939  0.62127  0.09061  1.0000
  H   H911      1.0  0.59929  0.55780  0.05916  1.0000
  H   H912      1.0  0.56294  0.53144  0.06578  1.0000
  C   C570      1.0  0.57956  0.53746  0.05457  1.0000
  H   H913      1.0  0.57025  0.54325  0.04220  1.0000
  C   C571      1.0  0.64077  0.61232  0.08387  1.0000
  H   H914      1.0  0.74814  0.61392  0.08139  1.0000
  C   C572      1.0  0.62123  0.56434  0.09799  1.0000
  H   H915      1.0  0.72452  0.57720  0.05659  1.0000
  H   H916      1.0  0.73439  0.58628  0.03304  1.0000
  S   S224      1.0  0.73286  0.55248  0.09222  1.0000
  Fe  Fe110     1.0  0.68656  0.54771  0.08958  1.0000
  S   S225      1.0  0.67983  0.58876  0.08702  1.0000
  N   N60       1.0  0.75986  0.62039  0.05268  1.0000
  C   C573      1.0  0.64497  0.58834  0.09005  1.0000
  H   H917      1.0  0.65906  0.63116  0.07790  1.0000
  H   H918      1.0  0.62434  0.54611  0.10329  1.0000
  C   C574      1.0  0.73189  0.59545  0.04653  1.0000
  C   C575      1.0  0.75533  0.63139  0.07070  1.0000
  H   H919      1.0  0.77590  0.65028  0.07584  1.0000
  H   H920      1.0  0.73770  0.63865  0.06986  1.0000
  H   H921      1.0  0.71377  0.60192  0.04523  1.0000
  C   C576      1.0  0.76917  0.64420  0.03892  1.0000
  H   H922      1.0  0.79026  0.66339  0.04312  1.0000
  H   H923      1.0  0.75221  0.65218  0.03717  1.0000
  H   H924      1.0  0.62023  0.52510  0.07197  1.0000
  H   H925      1.0  0.63021  0.54291  0.04025  1.0000
  Fe  Fe111     1.0  0.72189  0.52362  0.06709  1.0000
  H   H926      1.0  0.80443  0.62854  0.05911  1.0000
  C   C577      1.0  0.78291  0.61038  0.05453  1.0000
  H   H927      1.0  0.77651  0.59230  0.06474  1.0000
  S   S226      1.0  0.74818  0.53330  0.04071  1.0000
  H   H928      1.0  0.78655  0.60152  0.04122  1.0000
  S   S227      1.0  0.88283  0.55955  0.03582  1.0000
  H   H929      1.0  0.79555  0.55316  0.06842  1.0000
  C   C578      1.0  0.78551  0.54019  0.03991  1.0000
  H   H930      1.0  0.84862  0.56504  0.06579  1.0000
  C   C579      1.0  0.80415  0.55024  0.05537  1.0000
  C   C580      1.0  0.83419  0.55692  0.05386  1.0000
  C   C581      1.0  0.84554  0.55282  0.03705  1.0000
  H   H931      1.0  0.86290  0.52294  0.06910  1.0000
  C   C582      1.0  0.02733  0.53571  0.04756  1.0000
  H   H932      1.0  0.01510  0.54793  0.05219  1.0000
  C   C583      1.0  0.55610  0.78175  0.03066  1.0000
  H   H933      1.0  0.54428  0.81870  0.09306  1.0000
  C   C584      1.0  0.54804  0.83557  0.08231  1.0000
  H   H934      1.0  0.57102  0.85340  0.08401  1.0000
  H   H935      1.0  0.54680  0.82494  0.06867  1.0000
  C   C585      1.0  0.54723  0.73530  0.04526  1.0000
  C   C586      1.0  0.56467  0.75953  0.03419  1.0000
  S   S228      1.0  0.55790  0.70714  0.04872  1.0000
  H   H936      1.0  0.55104  0.88025  0.10377  1.0000
  H   H937      1.0  0.55476  0.88707  0.06940  1.0000
  C   C587      1.0  0.60995  0.52282  0.03599  1.0000
  H   H938      1.0  0.58499  0.76119  0.02844  1.0000
  H   H939      1.0  0.54487  0.63074  0.39948  1.0000
  Fe  Fe112     1.0  0.58000  0.66475  0.48904  1.0000
  S   S229      1.0  0.60992  0.65152  0.47246  1.0000
  C   C588      1.0  0.61209  0.61602  0.50059  1.0000
  C   C589      1.0  0.62054  0.62614  0.48263  1.0000
  H   H940      1.0  0.59897  0.62380  0.50848  1.0000
  C   C590      1.0  0.62073  0.59588  0.50844  1.0000
  H   H941      1.0  0.57809  0.63407  0.43592  1.0000
  C   C591      1.0  0.57149  0.65148  0.43220  1.0000
  H   H942      1.0  0.57779  0.66699  0.44415  1.0000
  N   N61       1.0  0.53954  0.63889  0.42799  1.0000
  H   H943      1.0  0.58518  0.66391  0.42032  1.0000
  C   C592      1.0  0.63772  0.61589  0.47261  1.0000
  S   S230      1.0  0.53696  0.62880  0.49859  1.0000
  H   H944      1.0  0.53795  0.60049  0.41464  1.0000
  H   H945      1.0  0.61412  0.58829  0.52238  1.0000
  H   H946      1.0  0.53530  0.59195  0.52736  1.0000
  H   H947      1.0  0.53736  0.67868  0.43556  1.0000
  H   H948      1.0  0.54394  0.67579  0.41155  1.0000
  S   S231      1.0  0.59116  0.69042  0.51575  1.0000
  Fe  Fe113     1.0  0.54655  0.65587  0.52445  1.0000
  N   N62       1.0  0.73578  0.62614  0.51974  1.0000
  H   H949      1.0  0.64439  0.62365  0.45872  1.0000
  H   H950      1.0  0.73917  0.62725  0.49012  1.0000
  C   C593      1.0  0.63770  0.58545  0.49842  1.0000
  Fe  Fe114     1.0  0.67308  0.53694  0.49736  1.0000
  Fe  Fe115     1.0  0.73406  0.53926  0.49485  1.0000
  S   S232      1.0  0.64830  0.56060  0.50934  1.0000
  S   S233      1.0  0.70530  0.54730  0.47400  1.0000
  C   C594      1.0  0.64626  0.59557  0.48046  1.0000
  H   H951      1.0  0.65937  0.58774  0.47261  1.0000
  S   S234      1.0  0.70347  0.53230  0.51833  1.0000
  C   C595      1.0  0.73198  0.61126  0.50168  1.0000
  H   H952      1.0  0.70843  0.59547  0.49907  1.0000
  H   H953      1.0  0.74509  0.59874  0.50096  1.0000
  H   H954      1.0  0.77505  0.66436  0.51149  1.0000
  C   C596      1.0  0.71738  0.64179  0.52017  1.0000
  H   H955      1.0  0.72343  0.65835  0.50895  1.0000
  H   H956      1.0  0.69348  0.62617  0.51827  1.0000
  H   H957      1.0  0.78155  0.63591  0.52198  1.0000
  C   C597      1.0  0.76725  0.64729  0.52244  1.0000
  H   H958      1.0  0.86614  0.53547  0.52748  1.0000
  C   C598      1.0  0.79931  0.57358  0.52030  1.0000
  H   H959      1.0  0.84957  0.55253  0.51308  1.0000
  H   H960      1.0  0.84101  0.60796  0.51124  1.0000
  S   S235      1.0  0.78264  0.57007  0.49838  1.0000
  C   C599      1.0  0.82896  0.59426  0.52268  1.0000
  C   C600      1.0  0.84468  0.53341  0.52223  1.0000
  H   H961      1.0  0.00684  0.56016  0.52125  1.0000
  H   H962      1.0  0.97092  0.53178  0.52724  1.0000
  H   H963      1.0  0.57062  0.81250  0.51653  1.0000
  S   S236      1.0  0.57526  0.76085  0.50543  1.0000
  C   C601      1.0  0.57949  0.77789  0.52722  1.0000
  Fe  Fe116     1.0  0.56563  0.71304  0.50410  1.0000
  S   S237      1.0  0.55875  0.69089  0.47630  1.0000
  H   H964      1.0  0.80384  0.52259  0.49587  1.0000
  S   S238      1.0  0.53741  0.63686  0.55293  1.0000
  H   H965      1.0  0.72887  0.61446  0.54844  1.0000
  H   H966      1.0  0.71971  0.65343  0.53355  1.0000
  C   C602      1.0  0.72648  0.60404  0.53461  1.0000
  H   H967      1.0  0.70285  0.58756  0.53292  1.0000
  H   H968      1.0  0.73998  0.59185  0.53472  1.0000
  H   H969      1.0  0.77108  0.65875  0.53602  1.0000
  H   H970      1.0  0.83243  0.53550  0.53433  1.0000
  H   H971      1.0  0.78616  0.54589  0.56398  1.0000
  H   H972      1.0  0.86604  0.61365  0.54155  1.0000
  Fe  Fe117     1.0  0.87128  0.55976  0.58143  1.0000
  S   S239      1.0  0.84546  0.58542  0.57649  1.0000
  C   C603      1.0  0.79818  0.55927  0.55243  1.0000
  C   C604      1.0  0.82794  0.57989  0.55474  1.0000
  C   C605      1.0  0.84322  0.59740  0.53980  1.0000
  C   C606      1.0  0.78391  0.55601  0.53522  1.0000
  H   H973      1.0  0.76110  0.53985  0.53354  1.0000
  S   S240      1.0  0.88053  0.54647  0.60949  1.0000
  H   H974      1.0  0.02925  0.58127  0.61783  1.0000
  H   H975      1.0  0.02749  0.58891  0.56919  1.0000
  C   C607      1.0  0.02616  0.57708  0.55603  1.0000
  H   H976      1.0  0.95463  0.52523  0.55939  1.0000
  S   S241      1.0  0.91685  0.57236  0.57053  1.0000
  Fe  Fe118     1.0  0.92484  0.55507  0.59737  1.0000
  S   S242      1.0  0.96952  0.57160  0.61194  1.0000
  C   C608      1.0  0.00364  0.59912  0.60358  1.0000
  C   C609      1.0  0.00504  0.62174  0.59214  1.0000
  H   H977      1.0  0.98493  0.62285  0.58835  1.0000
  C   C610      1.0  0.97792  0.53876  0.56393  1.0000
  N   N63       1.0  0.99518  0.56032  0.54969  1.0000
  H   H978      1.0  0.97739  0.54987  0.57707  1.0000
  H   H979      1.0  0.98214  0.59253  0.55943  1.0000
  C   C611      1.0  0.99411  0.54457  0.53233  1.0000
  C   C612      1.0  0.98241  0.58086  0.54649  1.0000
  H   H980      1.0  0.98730  0.52337  0.56715  1.0000
  H   H981      1.0  0.00327  0.52866  0.53428  1.0000
  Fe  Fe119     1.0  0.89736  0.52535  0.56119  1.0000
  H   H982      1.0  0.95919  0.56903  0.54140  1.0000
  H   H983      1.0  0.99524  0.59790  0.53616  1.0000
  C   C613      1.0  0.03009  0.59851  0.60881  1.0000
  H   H984      1.0  0.53757  0.80566  0.60777  1.0000
  H   H985      1.0  0.55424  0.78201  0.61233  1.0000
  H   H986      1.0  0.54007  0.75851  0.58185  1.0000
  H   H987      1.0  0.57727  0.83801  0.54669  1.0000
  C   C614      1.0  0.57993  0.81815  0.54576  1.0000
  C   C615      1.0  0.03261  0.64362  0.58613  1.0000
  C   C616      1.0  0.53303  0.78347  0.61293  1.0000
  S   S243      1.0  0.59300  0.82540  0.58292  1.0000
  C   C617      1.0  0.58794  0.80737  0.56140  1.0000
  C   C618      1.0  0.58681  0.76669  0.54297  1.0000
  C   C619      1.0  0.59146  0.78166  0.55997  1.0000
  H   H988      1.0  0.59773  0.77323  0.57200  1.0000
  H   H989      1.0  0.58964  0.74693  0.54193  1.0000
  C   C620      1.0  0.64936  0.01862  0.61564  1.0000
  H   H990      1.0  0.64272  0.01761  0.62988  1.0000
  H   H991      1.0  0.59669  0.01468  0.57353  1.0000
  Fe  Fe120     1.0  0.57509  0.85854  0.58386  1.0000
  S   S244      1.0  0.53863  0.91029  0.58911  1.0000
  Fe  Fe121     1.0  0.58370  0.91802  0.59856  1.0000
  S   S245      1.0  0.61294  0.95918  0.61498  1.0000
  S   S246      1.0  0.59599  0.90407  0.57186  1.0000
  S   S247      1.0  0.56665  0.87307  0.61155  1.0000
  C   C621      1.0  0.63744  0.99294  0.60474  1.0000
  Fe  Fe122     1.0  0.54960  0.89318  0.56330  1.0000
  S   S248      1.0  0.53831  0.90543  0.53581  1.0000
  C   C622      1.0  0.64633  0.99450  0.58636  1.0000
  H   H992      1.0  0.63720  0.97496  0.57776  1.0000
  C   C623      1.0  0.66767  0.02138  0.57919  1.0000
  H   H993      1.0  0.69818  0.90708  0.62713  1.0000
  H   H994      1.0  0.65007  0.90159  0.63820  1.0000
  H   H995      1.0  0.64858  0.93845  0.59421  1.0000
  H   H996      1.0  0.66628  0.88929  0.58953  1.0000
  C   C624      1.0  0.65410  0.88993  0.60211  1.0000
  H   H997      1.0  0.63134  0.88496  0.59759  1.0000
  H   H998      1.0  0.68398  0.94339  0.58653  1.0000
  H   H999      1.0  0.65208  0.87155  0.61119  1.0000
  H   H1000     1.0  0.71049  0.94603  0.62481  1.0000
  C   C625      1.0  0.69886  0.92441  0.61755  1.0000
  H   H1001     1.0  0.71255  0.92480  0.60551  1.0000
  N   N64       1.0  0.66882  0.91875  0.61168  1.0000
  H   H1002     1.0  0.68114  0.96429  0.60586  1.0000
  H   H1003     1.0  0.66111  0.94030  0.63516  1.0000
  H   H1004     1.0  0.62843  0.91348  0.62414  1.0000
  C   C626      1.0  0.65145  0.91848  0.62805  1.0000
  C   C627      1.0  0.67084  0.94224  0.59900  1.0000
  C   C628      1.0  0.57612  0.80367  0.52868  1.0000
  H   H1005     1.0  0.60157  0.52771  0.02288  1.0000
  H   H1006     1.0  0.77269  0.63651  0.02517  1.0000
  Fe  Fe123     1.0  0.89713  0.54458  0.00987  1.0000
  C   C629      1.0  0.82682  0.54266  0.02166  1.0000
  C   C630      1.0  0.79704  0.53671  0.02305  1.0000
  H   H1007     1.0  0.83537  0.53982  0.00857  1.0000
  H   H1008     1.0  0.78287  0.52931  0.01097  1.0000
  Fe  Fe124     1.0  0.88211  0.52347  0.97021  1.0000
  S   S249      1.0  0.91270  0.56782  0.98264  1.0000
  S   S250      1.0  0.93398  0.53159  0.01170  1.0000
  Fe  Fe125     1.0  0.94702  0.55087  0.98350  1.0000
  S   S251      1.0  0.99510  0.56697  0.97506  1.0000
  H   H1009     1.0  0.00716  0.62144  0.99519  1.0000
  C   C631      1.0  0.02792  0.59672  0.98349  1.0000
  C   C632      1.0  0.02788  0.62090  0.99264  1.0000
  H   H1010     1.0  0.00568  0.55419  0.01901  1.0000
  C   C633      1.0  0.01836  0.54189  0.01549  1.0000
  H   H1011     1.0  0.00985  0.53104  0.00186  1.0000
  Fe  Fe126     1.0  0.54345  0.84854  0.96929  1.0000
  S   S252      1.0  0.57488  0.84990  0.99184  1.0000
  Fe  Fe127     1.0  0.53659  0.83965  0.01063  1.0000
  S   S253      1.0  0.53752  0.81928  0.94448  1.0000
  H   H1012     1.0  0.55743  0.78686  0.96865  1.0000
  C   C634      1.0  0.55249  0.76816  0.97823  1.0000
  H   H1013     1.0  0.56995  0.80062  0.02244  1.0000
  H   H1014     1.0  0.56114  0.77783  0.99205  1.0000
  H   H1015     1.0  0.56535  0.75662  0.97355  1.0000
  H   H1016     1.0  0.60966  0.01024  0.99885  1.0000
  S   S254      1.0  0.62774  0.93581  0.00418  1.0000
  H   H1017     1.0  0.66278  0.99467  0.01776  1.0000
  H   H1018     1.0  0.53803  0.99729  0.97783  1.0000
  H   H1019     1.0  0.55726  0.98069  0.99021  1.0000
  C   C635      1.0  0.59309  0.01764  0.96468  1.0000
  H   H1020     1.0  0.57689  0.01468  0.95349  1.0000
  H   H1021     1.0  0.54845  0.00704  0.00157  1.0000
  H   H1022     1.0  0.59470  0.99664  0.96588  1.0000
  C   C636      1.0  0.65891  0.99614  0.00320  1.0000
  S   S255      1.0  0.55641  0.89721  0.97069  1.0000
  H   H1023     1.0  0.62477  0.95257  0.96615  1.0000
  S   S256      1.0  0.54904  0.88716  0.01580  1.0000
  C   C637      1.0  0.64186  0.97030  0.99305  1.0000
  C   C638      1.0  0.55574  0.00168  0.98825  1.0000
  C   C639      1.0  0.65036  0.99998  0.96546  1.0000
  C   C640      1.0  0.63739  0.97236  0.97416  1.0000
  H   H1024     1.0  0.64740  0.00130  0.95076  1.0000
  Fe  Fe128     1.0  0.58462  0.89769  0.99486  1.0000
