data_image0
_chemical_formula_structural       SNHFeNFeSH5S2FeSH2C6H4CFeH3CHCH3C2H2CH2SH5CH4FeHCSCFeS2HFeS2HSHCH3C6H4C6H5NHSH8CHCH4C2HCH3CSFeH2CH9SHCHFeH2C2HNC2H2NC5HSFeHCH2FeS2CHFeSHSFeS2FeS2FeSFeS3CH2FeHSH2SHFeSNSFeS2FeS2FeSFeS3FeS2FeS2FeSFeS3FeSFeSFeS2NC6H4NC3H2C6H4C6H4SCH3C6H4C6H4C6H4C6H4C6H4CH2SC2HC6H6C2NC4H11SH4SH3NC2H2CHCHC2NC4H12NC2H6NC4H18CHCHCHNHCSCNC4H12CNC4H13SCH2CSC2H3FeH3S2H10SFe3C3H4CFeH6CH7CH2CHSHCHC7SFeSFeSFeS2HFeS3HCSH4NHCH2C2H3C6H5CH3S2HCHC3H3CNH5CHNHFeHCHC2H2CHC3H3CH8CH3CH3FeS2FeS2CFeS2FeHSFeS2FeCFeCFeS3HFeS2FeS2FeSFeS3FeS2FeS2FeSFeS3FeS2FeS2FeCFeS3HCH4CNC3H2SH2CHC6H4C2HSC3SHC7H4C6H6NSNH3FeHC6H4C6H5C2HCH2C6H4C6H4SH3CHNC3H6NC4H16CFeH4NC4H14CH2CSNH2C2H6C2NC2H15CH2CHCH3CHCH3CHNH5NFeHCH3C2H2C3H5CH2CHNSHCH2NCH2C2HSHCHNHCH2CH2NH2CHNH5C3Fe2S3FeSFeS3H6CHFeH2S2CH5CH3CHCH2CH2CH2C3HC2H9CH2C2HCSCHCH2SHCHC2HC2H8CHCHFeSFeS2FeSCS2HCHCHNH3CH2FeS2FeS2FeSFeS3CSC2HC2H2C4SH3C2HC2H4C7H4C2HC2H4C3SC3SHNC4H13C3H3CFeC2H2CN2H8CH2C2H3CH2CH3CH3CH4CH2CH2SHCSH2SC2HCH9CHCFeSHFeS2Fe2S3FeSFeSHFeSFeS3CH2C5HCH3CH2CHSH2C2SNCH3C3H2C6H3NCHCH4C2H2C2H3CHCNC4HSHNC2H2CHCH10CHCH2CHCHCH6CH2C2NHNCHFeSCFeSH2SH2CHCSH3SFeH2FeS2FeS2FeSFeS3FeS2FeS2FeSFeS3FeS2FeSFeS3HCHC2H2C6H4C6H4C6HCH2NCHC6HC7NCH2C6H4CHNH3C4HCH5SFeH2NC4H14CNC4H12NC4H15SCH2C2HCH3CHNH4SH3SH4NH3CHCS2C2H2C2H5NSFeHCH2CHC2HCHNHC7HCHC2H6CH5C2H2CHFeS2H2FeS2FeS2FeS2FeSFeS3HCH2FeS2C2FeSFeSFeSHS2H2CH3SHCHCH2CHCHC6H4C6H5C2FeC2HC2HCHCH3C6H4CH2C2NH4NH5CHC4H8SCH6SH3NH2SHCHC2H2CHFeHCH5CSHNC2HSH2FeHFe2HC2H2CHCH2CNH2FeH6FeH2C3SC3SFeS2FeS2FeSC2S2CHCH7CHCHC2HNH3CHC2HC3HCSC6H2N2CHSC2H3SH5FeH2CHCH3CHCH2C2H2NSH5CHCH5CH6CFeH4NH2CH3FeS2CSFeHFeS3H7CH6FeCHC4H4C2HC6H4CHCHS2C3NC2NHC3HCH4CH5CH3CHCH3C2SHCH2CH3SNCH2CHSH3CFeS2FeSHFeSFeS2CH3C4HCH3NCH3CH3C2SH4SHCHCH4CNHC2NCSHC2HCFeH4CH3CHC3H3CHCHCH6CHSC2HCSH3NSCH4CH3CHCHFeHCH2CHCFeS2FeSHFeCFeS3FeSFeS2Fe2S3FeS2FeS2FeSFeS2FeS2FeS2FeSFeS2C6H4C6H4C6H2CHFeHCH2C6H6C2H4C2HCNCSCHCH4CH2CNC4H12NC4H12CHFeHC2HCH3CHCHSHC2H8SNC4H13CH3CHCH2CHCH2SH4C4NH2C2NH3CNH3N2H4CH3CH5CHFeS2FeSHSHCHCHSFeSH2SFeS2FeS2FeSFeS3HS2CSHC2H2SCH2C6H4CHCH2C7H4FeSHCH2C6H4C6H4SH11CH4CHCH5CH2CH3CH3CHC2H2CSN2C2HCFeCHSH4C2H5CH6CH2SH2C2SHFe2H3NCH2S2H2CHSC4H4NH3CSC2H3SH6S2FeS5HC3NH2CSHC6H5CH3C6H5C2HSFeCH3C2H2C4SCSH4CFeHCH3SCNCHCH7S3C2HCNCFeHC2H6FeHNCHFeH2CH2SH2FeHC2FeH2CH2CHCSH2C3HSFeS2FeS2FeCFeHS2CH3CH4CNHCFeS2FeS2FeSFeS3CH3C2NH3C3H4CH2SHCHC9H4NHC3H6CH3CH2C7HNC4H12C2H6CHC2HCH6CHCH3CH2NH3CH2SCH2CH2SC3H2CHS2CH3SH2FeSH4SC2FeSHFeS2FeSFeHS2C4HSCH5C2SH2SHNCHCH2CH2CH3C2NHC4H6C2H2CH3CHNHCHC4SNH2FeSHFeS2FeSFeS3HFeS2FeS2FeSFeS3FeSHFeS2FeHFeS3FeS2FeS2FeSFeS2FeS2FeS2Fe2S3FeS2FeSFeS3C6H4C6H4C6H4C2HC7H4CH3C6H4C6H5CNFeH2C7H4C6H5C2H6CH5CSH2SCH4C2HCHNC4H12NC4H12NC4H12NC4H12CNHC2H2CH2CHCNCH8C2HCH3CH3C2H3CSH2C2NH10CH3CH5CH5C2SH3C2H2CHSC3H3SH2CH3C3FeHC2HCH7C2HFeS2FeS2FeSFeS3FeS3HFeS2HNHFeSHSH2SHFeHFeSFeS2FeS3FeS2FeS2FeSFeS3FeS2FeS2FeSFeS3HCHCH3C2H4C6H4C6H4C6H6SC3NH3C6H5C6H3CFeH2C6H4C6H4C6H4C6H2CHCH4CH8CHC2HCHC3H2NH5SH2FeH2NC4H12NC4H12NC4H11CHCHCH2CH2CH5SCH2S2C2H2C2H3Fe2CHCH4NHFeHCH6CHC2SNCHC2H2C3HCHCH5NH4CNSCHCNH3CH5SNCH2CH2CH3CSFeCH5SCH2NCNS2CFeS2FeSFeS2HCHFeS3H3SHFeS2HS2CH3CSH4C6HFeH3FeH3C6H4C7H4C6H4NC4H5CHCH5CHCFeH2C2HC2H3CHCH3SNSHCHSHNH5CHCHFeSCH3NH2NCHCH3CHNSHCH5CHSH6SCH2C3SH2NFeS2C2SFeSFeS2H3CFeS2FeCFeS3HNCH4C2H6FeHCHCH3SNH2C2HCHC2FeC3HCH2CSH2C3FeHNHC3H2CHCH3C2H2SHC7H2CHNH3CH2SNCH3C2HCH2CHCH2CH4CH3SH6C2H2FeHCHSHC2H9CHCH2SH2CHCSH2CH2C4FeHC2SH2NC2S2HCH2SHCHCFeSH2C2SC2HFeSFeS2C2HCFeSFeS2FeS2FeSFeS5FeSFeS2FeS2FeSCFeSFeSHSFeSHFeS2FeSFeS2Fe2S2FeS2FeSFeS3NHC4HC4HC6H4C6H5FeHC2SH4C6H4C6H6CHC7H4CH2CHCFeH3C3HSH3C6H4CHCHC2H4NH3C4H3C6H4FeHSCH2C2H6SC2H5CSHSH4CH2CNH4NC4HFeCH8CHC3H6NC4H12NC4H5CH3NSHNC4H12NC4H12N2H3SH4CH4CH2CSH3C2H2SFeH6NCHC3HCH2SC2H2SHC3H5CSCH2C2H2S2HNH4FeH2CH2SC2H2CH2C2HCNHS2H2CHFeH2CH3SC3HCHCH3NH3CSHCH2CH2CH2C2H3CHSH2C2NSH3CHC2HCHC2FeHNHCH2CHCH2CNHCHC3HCH4SH3CHCHCHCSHC2FeS2HSFe2SNSFeS2FeSHFe2S2CHNH2SCFeSH3C3FeC3HC3HCH4C6H2CHFeCHCH3C3HCHSH2CH2SH4C5HC2SH4CHC2HCHCH2SCHSH2NH2CSH2S2H4CH3CH5C2H7CH5S2H2CHC2HFeSCH2CHCH4SC2H2FeC3H3C3HC3H2FeSFeS2Fe2S2CSCHSHCH2C6H5SH3NHCH3CH7SH4SNH4CSC2H3NFeS2H2FeSFeS2FeS2FeSFeS3FeS2H2C2S2FeS2FeSCHFeSHSFeS2FeSFeSFeHS2FeS2FeS2FeSFeS3CSNCHSHFeCSH2FeS2FeSCFeSFeS3CH4CH2CHCH3CS2CHCHNFeHCHFeH3C6H4C6H9SHC2HC6H4C4HCH5C6H4C6H4C6H5C2NHCHC6H4CHC2FeHSCHC2SH2NC3H7NC4H14NC3H9NC4H14SCHCH3C3H2CH5SHSC2H5CH7CFeCH3CNHFeC2HCSFeC2H2CHFeCH5CH5C3NHSC2H2CH2CH2CH2C2H2NH2S2H3SC2HCH3FeH4FeCHCHSH5SHC2HCNHCH2FeH7C3H4C2H5NCH2SH4CSFeS2FeSFeSFeS2CH2FeS2FeHFeS3FeSFeSCFe2S3FeS2FeS2FeSFeS3HFeCSHSFeC6H5CH6CSCH2C6H4C6H4SHCH5C6H4CHC2H2NHCNSFeCSH2CHFeH3SC3FeCHCS2HC2SCH2NC4H13CNH3NC3N2HC4SNC4H14CHSC3H3CHFe2C2HCHN2H2CH3CHSCH6CH2FeCHNC2SHCSH2CH3FeH2CH7SHC2H4C3NHFeHCH4SHSC2HCHFeHSHCH2CH2CH4SH2FeCSNH4CHSCHCHCFeH2CSCH2CHFeS2HFeS3FeS2HFeSFeS2FeHSFeS2FeS2FeH2S3CHSFeSFeSCFe2SCSCHSCHS2H3C3H2FeCHC6H5CH3CHC4FeSH2NSC2HC3SCH2C5H4C2H2C2H2C6H4NC2H6CH2NCH2NC4H12CHSFeC3H3CH3FeCH2NC4H12SH2FeHFeH3FeH7CH2CSH4C3HCH2CHSCH2CHCFeS4FeSCSFeS2FeS2FeSFeS3HFeS2FeHS2FeS2FeS2FeSFeS2FeS2FeHSFeCS2FeS2FeSFeSFeSHCFe2CH7SH5C5HC4HCH3CSH2C6H4C6H2FeH2C6H4C6H4CH2C4HCHSH2SH4SC7H4SH3C2HC2NH2C2HC2HC2H5CH3FeH3CHNSCFeH2S2HNC4H12CHNC3H2C2NC4H12NC4H13S2C5HC4HSHCFeCHNH2CHC2HCH3C2H2FeC2H2C2HCFeHSNFeH3CH2C3HCFeH3FeSH2CHFeSH2SCHFeS2FeS2FeSFeHS2NS2H2C2S2FeHFeS2HNCHSHCNH2CHC4HCH2FeH4C6H4C6H4C3H2C2HCH2CHCHC4H3C6H7CFeHNCHCNC3H5C2SHCH3NCFeH2FeCH5CH2SHC2H5CHCH9C2FeCH6S2HSHC2NHNHFeHCH4CH2CH3CH2CH6C2H3NH2CH2C2H2CH5S2H2CSH2SCH3CHCSCH4FeS2Fe2HS2FeSHFeSFeSFeSHSFeS2FeS2FeSFeS3FeSH2SFeSHSFeS2FeS2FeSFeS3FeSHFeSHCFeSHSCHFeS2FeH2FeHFe2S2H5SCFeS2H2CH2CH7NC3H3C2H2CHFeC3H4C6H4C6H6CSHCHCSHC6H5CNH4C6H4C6H4C2H2C6H4C2FeC2HC6H5CHNC2H3CN2C4H12NC4H16CHC2SCHCH2CHSNH6CH3CSC2SH5SHCH4SCHSC5H3SH2CNC2H3FeH4CHC2NH4CHCHNHC2HNCHCH4SH3C4H2FeC3HCH3FeHCSCSHC2H3CHC3H7CNH2CNH2CSH3CH4CHCSH2SHC2H2CHCH2CH3NHSNCH2S2H4CH2CH3CFeCH3CFeSFeHFeS3FeS2CSFeSH5NH3CSH7CNH9CH2NC2HC6H4SHFeHSCSH3C3HCHC2H3CH2CHCH4CSCH5SCH2C3HCH3CSH2NC5FeCHSH2FeNHC3H7CH2CHNHCHC2SCHCHSC2H3SH7NH6N2CHSC2HC3H2C2H2CSHCHCSH2SHFeS2CH3CH2FeSHSCSHFeSFeSCFeS3HC8H3CH2SHC3H2CSC2H2C2HSH2FeCH2SHC6H2NSH2C3H4CH6CSH2SH3NCH3FeCHCH3FeC3H3NHNCHCFeHCHCHCHCHCH3FeH3CH3SCH3CNHCHCH4CSH5CFe2CFeH5S2CSFeSHSHC2FeSC3SH4CHC2H2SH2SHC3HSHCH7SCH3FeCHC3HC3SH2NH3CHCHCHNCHCHCH8SCHCHFeSCFeSCFeSFeS3HFeS2FeS2FeSFeS3FeHFeCS2C2HS2FeS2FeHFeC2HS2FeS2FeS2FeSFeS3Fe2S2FeH2S2H2FeS2FeSFeHS2CHFeS2FeC2FeHFeCS3CHC2H3C2H2C2H2CH5CH3SH3SHC4HCHC6H4C6H4C2NCNH4NH2CNH3SH4C8H4C6H4C6H4C6H4CH3CHC6H4C2NH3SC4HSHFeCSH2CHNC4H16SHNC4H13FeCH2C3H2CHSH6CHC4HCH2C2HNHCHCFeHCHCH2SH2NC3H9NC4H14SNHSH3FeH2CH2CH2C3SH2CNC4H11CH7C3H3NHCS2H2CH3SH3CHCH2FeC2HCHFeHCH3NH2SC2HCH2C4HSH2SNHNCH2CH3SH3CH4CHSH3S2H3CHCH2FeCFeS2FeHFeS2FeS2FeSFeS2CHSH2C2H5CSCHCSHSH2C3H11CHCHNCH2C2H2CHC2HNH3CHC6H2CH4C2HC3HNHC2H3CHCH3FeH2SCH5NC4H15NHCSCH7CHC3H3C2HCH2C5HSCH3C2HCFeSFeS2FeSFeHS3FeS2FeS2Fe2S3H3SH3C6H4NHCH2CH2C2HCHCH2CHCHSC3H2CH2CH2NCH2SHCH4SCH3CH2CH6C4H2NCH2CH3CH3NHSNH3C5SHCHCHC3FeH2CFeSHFeS2FeCFeS3H4FeSHFeS2FeSFeS3FeS2FeS2FeSFeHS2FeS2FeS2FeSFeS3FeS2FeS2FeSFeS2FeS2NSFeSFeS4C4H2C6H5CH2C7H4C6H4C6H5CSHSC6H4C6H7NCHC6H4C7H3C6H4C3H7CH6NHC3H6CH4CHCNH3CH5NC2H7NC4H13C2HNH2CHCH5CH3CH2CHCFeHCH5NH3CH3C2HCH3CHCH4CNCHCH3S2H4FeCH2CH2C2H3CHCHNHCHCH3C3H4CHSHCH3C2HCH2SFeHFeH2SHC2H6CNHCH3SC2HSCHCHNSH4SH3SHC3HCH2CFeS2FeSHSHNHFeHSHFeCHS2HS2HS2HCSFeS2FeSFeS3FeS2FeS2FeSFeS3FeS2FeS2FeSFeS3HC3SC2H2CNC6H4C6H4C6H4C5SH5C4H5C6H5CH2CNHC6H4C6H7CH4SHC2H5C2HSH2C2HCNH2CHSC2H8CH4CFeH2C2HCHCHCH5FeH3FeC2H2CH3FeCH7NSC2H6NC4H12NC4H9SHC2FeNH2CHSNHSH5CH2CSH4CHCHC2FeHCH2CSHCS2FeSFeC6H4C2H2C2H3C2H2CH2NH4CH2FeHCHSH4C2H2CFeS2FeS2FeSFeS3FeS2CH2FeSHCSH3CSCHC7H6NHC6H7C3NH3C6H4CHC7HCHCHCH3CHCH3CFeCH4CH8CSCH2CH7CH6NH5CSH2SHCHNCHCHSH2N2HFeH2CH2C3H4CHC2HCH2SC6HFeHCH2CH5CS2CFeSHFeS2FeS3HFeS2FeSFeSFeS3HNC4H3N2CH3CHC2HC3HCH2CH3SC6H2C2H2CHSH3CNHCHC3H2CSH2CNH4CH2SFeCH2CH3CH2C2H2CHCH4NSH4CHCH4CH4CH2CHSCHCFeCFeHSHSCHCFeS2FeS2FeSFeCS2FeSFeS2FeSFeCS2FeS2FeS2FeSFeS2FeS2FeSFeSFeS3C7H6C6H4C6H4C6H4C2H2SC2H12CH4CH2CNHCHNC4H12NC5HCH5CH2CH4CHCH2C2H3CH2CNH3CHCH5CH5C3H2C2H2SCHCH2CHNH2NCNH4CH3CH9C3H2CH2CH2CH2SCSHSHFeSFeCFeS2FeS2FeSFeS3FeHSHSH3SH7SCHFeC2H2C5SH2C6H4C6H2CHC2HC6H7C2H2C4NH5CHCSCSNSNC4H10CHCH2SH3C2SC2SH6S2HSHNH5CH7CH4SHFeSFeSFeSCH2CNC3H2C3H3NH4CH3SCHFeCH2SH3CNHCHCH4SHCH3FeS2FeS2FeS2Fe2S3C6H4C4H3CH3C7H3CH4CHFeHFeH2NH4CHNC2H6NHFeSH4CHSH3C2H4CH3CH3NHCH2CHCH2S2C2NH2C2H2SH5SC2H2SFeS2FeSHSCNSHSHSHC6H5CHSH3C5H2C4HCHC4FeHSH4FeH7N2SH5CHFeH2C2HCH3C2H5SHNH4CH3CHCH4CHCHSHCHCH2SH2CSFeS2FeS2H2SH2C2H3NSHNCH3CHCHSC6H4FeH2CH2CSC2HCFeH2CH2CH2C2H2SCH2NH5CH3CHCHCFeSH2FeS2FeS2FeSFeS4HSFeS2FeSFeSFeS3FeS2FeS2FeCFeCS2FeS2FeSHFeSFeS2CH2CH4C4H3SCH3C6H4C6H6NC2HC3H3C2H4C6H4C6H2C3H5C6H8NC4H12NC4H14CH5CH4NHC2HNC2H2NCH3FeHNHCHCHC2H2CH3CH2CH2SCHNSHNCH3CH5CSHSCH5NH9CH2SFeSFeS2FeSFeS3FeS2HFe2HSFeCSFeHCHCHS2HFeS2FeS2FeCFeS5H2C4H3SCHCH2C3HFeHSH2CH2CHC2H3C3SCSC2H2C6H4C6H4C6H6C2HFeCHNC4H13CHNH3CSC2H4CHCH2CHSCN2C4H12NC2HCHCHCH3CH2FeHCH7CHCSCH6CHC2SH4CHC3SHCH2CHSHC3H2CSFeHSCS2H3FeS2HFeS3C2SH6FeHC2HC3H4CH5C6H4NS2C2H2CNSC6H5CH2SCH4C2HSCSH2FeC2H2CSH4CH2C2H3CFeH2CHCHNC3H3CH4NCHCHCH2CFeH2FeHNHC2H2CH2C2H2CFeS2FeS2FeSFeS3FeHSFeHSHFeHS2CHSFeHC6H4CHCHC2H2C6H4CHC4H4CH3CHCH2CHFeC3HCH2NCH5C2HCNH2CH2C2HNC4H16SHNH3SCHCH5FeCHSH4CH5FeH2CSNH4CFeS2CFeSC5HC2H3SCHCH2C4HC2H4Fe2C2HC2H5SC2HNH4SH2SHC2S2CH2CSHSH2SC3HNHCHCH2FeS2FeS2FeSFeS3FeS2FeS2FeSFeS3FeS2FeS2FeSFeS4HCFeS2FeSFeSFeS3FeS2FeS2Fe2S3FeS2FeS2FeSFeS3H3CHC2HNCHC6H4C6H4C6H12C6H4C5H2C6H4C6H4CHC9H4C6H4C6H4C6H2NC4H12SH3CHC3NH2NCFeCHNC2H6C2H3CH2CHNC3H7NCH4C2H2CH2CH6CH4CH3CHCH5C2HCH2NH3CH2NH16C2H7CH3CHC2NCH2NH4CH2CNH2C3H3CHC2H4NCH9CH2CH2CH7NH3CHCHCH3C2H3SH2C2H3C2H6FeS2FeSHFe2HS2H2CH3SNCH3CH3CHC5H3SH4CHSC2H3NH2C2H3C2H8NHCH4C3HC2H3NHFeSFeS2FeSFeS3FeS2FeS2FeSFeS3FeHCFeS2FeSFeS3FeS2FeS2FeSFeS3FeS2FeS2FeSFeS2FeS2FeS2FeSFeS2HC6H4C4H2C6H4C6H4C6H4C6H4C6H4CHC2H3C6H4C5H3CHCHCHC2H7NHNH5NC4H12NC4H12CH6C3NC4H16NC2H2C3H3NC3H4NH2C2H6CH4C2H3CH2CH2C2NHSCHSC2HC2HCH3CHCH2CH2CHC4H5CHCH2CHCH5SC2HNH2CH2SH4CH2CHC2H2SC2SH2CH4FeH3C2NCFeS2FeS3HFeS2FeS2FeSFeS2HC2H2C6H4C2HCHCHC2H4CHNHC2FeH6CH5C2H6C2H4CH3CH3CH5C2HCH2CHCH3CHNH2NHCH2CHSC2H2SNH2NHCH3CHCH2CHCHCSCHSCFeSHFeSH5S2CSC2SHFeSFeCH2C2HC6SH6SC2HNH3CHSH3CHNFe2HNHC3HCHC2H2CH3FeH5CHSHCSHCH4CH2CH2CH3SC2H3CH3CHCH2C3H2C2H
_chemical_formula_sum              "S1536 N384 H6144 Fe768 C3840"
_cell_length_a       102.142
_cell_length_b       103.168
_cell_length_c       103.187
_cell_angle_alpha    74.6214
_cell_angle_beta     74.2736
_cell_angle_gamma    74.3066

_space_group_name_H-M_alt    "P 1"
_space_group_IT_number       1

loop_
  _space_group_symop_operation_xyz
  'x, y, z'

loop_
  _atom_site_type_symbol
  _atom_site_label
  _atom_site_symmetry_multiplicity
  _atom_site_fract_x
  _atom_site_fract_y
  _atom_site_fract_z
  _atom_site_occupancy
  S   S1        1.0  0.33139  0.08552  0.13785  1.0000
  N   N1        1.0  0.22810  0.31245  0.09140  1.0000
  H   H1        1.0  0.24737  0.31835  0.08922  1.0000
  Fe  Fe1       1.0  0.20148  0.31876  0.14689  1.0000
  N   N2        1.0  0.31149  0.09334  0.17897  1.0000
  Fe  Fe2       1.0  0.31032  0.22091  0.14596  1.0000
  S   S2        1.0  0.29593  0.20787  0.16049  1.0000
  H   H2        1.0  0.15745  0.31679  0.15385  1.0000
  H   H3        1.0  0.13020  0.30943  0.18531  1.0000
  H   H4        1.0  0.10793  0.32255  0.19874  1.0000
  H   H5        1.0  0.30410  0.30546  0.14663  1.0000
  H   H6        1.0  0.24463  0.30052  0.07866  1.0000
  S   S3        1.0  0.31123  0.14976  0.21913  1.0000
  S   S4        1.0  0.30915  0.23120  0.12405  1.0000
  Fe  Fe3       1.0  0.31856  0.16529  0.22543  1.0000
  S   S5        1.0  0.31545  0.18796  0.21695  1.0000
  H   H7        1.0  0.32253  0.20824  0.19317  1.0000
  H   H8        1.0  0.06294  0.31954  0.12033  1.0000
  C   C1        1.0  0.30154  0.20179  0.17612  1.0000
  C   C2        1.0  0.29616  0.19137  0.18625  1.0000
  C   C3        1.0  0.30061  0.18678  0.19878  1.0000
  C   C4        1.0  0.31006  0.19295  0.20130  1.0000
  C   C5        1.0  0.31527  0.20343  0.19124  1.0000
  C   C6        1.0  0.31129  0.20758  0.17857  1.0000
  H   H9        1.0  0.28866  0.18679  0.18440  1.0000
  H   H10       1.0  0.29646  0.17873  0.20660  1.0000
  H   H11       1.0  0.14661  0.31970  0.04533  1.0000
  H   H12       1.0  0.31575  0.21533  0.17077  1.0000
  C   C7        1.0  0.30738  0.09444  0.19359  1.0000
  Fe  Fe4       1.0  0.33317  0.13752  0.21824  1.0000
  H   H13       1.0  0.27079  0.22485  0.17681  1.0000
  H   H14       1.0  0.16846  0.32323  0.16926  1.0000
  H   H15       1.0  0.20774  0.30768  0.09813  1.0000
  C   C8        1.0  0.28079  0.31753  0.16236  1.0000
  H   H16       1.0  0.16051  0.32175  0.18717  1.0000
  C   C9        1.0  0.30022  0.10141  0.17179  1.0000
  H   H17       1.0  0.22799  0.29598  0.08235  1.0000
  H   H18       1.0  0.13792  0.31441  0.19641  1.0000
  H   H19       1.0  0.21617  0.32101  0.07560  1.0000
  C   C10       1.0  0.31418  0.07874  0.17812  1.0000
  C   C11       1.0  0.22417  0.32330  0.07965  1.0000
  H   H20       1.0  0.28149  0.29320  0.18024  1.0000
  H   H21       1.0  0.26869  0.22651  0.15337  1.0000
  C   C12       1.0  0.23775  0.31668  0.09708  1.0000
  H   H22       1.0  0.16449  0.31557  0.03630  1.0000
  H   H23       1.0  0.03222  0.31744  0.12644  1.0000
  S   S6        1.0  0.31293  0.23941  0.15165  1.0000
  H   H24       1.0  0.27255  0.29087  0.15499  1.0000
  H   H25       1.0  0.31901  0.23543  0.19814  1.0000
  H   H26       1.0  0.32571  0.17980  0.05750  1.0000
  H   H27       1.0  0.23807  0.31456  0.17809  1.0000
  H   H28       1.0  0.32755  0.09820  0.16125  1.0000
  C   C13       1.0  0.21548  0.31040  0.10217  1.0000
  H   H29       1.0  0.33304  0.09261  0.17729  1.0000
  H   H30       1.0  0.13897  0.31923  0.02434  1.0000
  H   H31       1.0  0.24759  0.23474  0.17063  1.0000
  H   H32       1.0  0.05321  0.31159  0.13643  1.0000
  Fe  Fe5       1.0  0.14525  0.31623  0.22619  1.0000
  H   H33       1.0  0.29041  0.09763  0.17648  1.0000
  C   C14       1.0  0.26861  0.25778  0.15846  1.0000
  S   S7        1.0  0.30263  0.27146  0.12589  1.0000
  C   C15       1.0  0.25030  0.24505  0.16744  1.0000
  Fe  Fe6       1.0  0.22763  0.29732  0.13883  1.0000
  S   S8        1.0  0.20615  0.29571  0.15084  1.0000
  S   S9        1.0  0.23918  0.28309  0.12440  1.0000
  H   H34       1.0  0.32884  0.11100  0.11795  1.0000
  Fe  Fe7       1.0  0.21405  0.29656  0.16874  1.0000
  S   S10       1.0  0.21018  0.28034  0.18775  1.0000
  S   S11       1.0  0.23599  0.29643  0.15703  1.0000
  H   H35       1.0  0.24328  0.31397  0.20043  1.0000
  S   S12       1.0  0.14831  0.29599  0.22047  1.0000
  H   H36       1.0  0.30474  0.07436  0.18285  1.0000
  C   C16       1.0  0.15113  0.31120  0.16315  1.0000
  H   H37       1.0  0.26624  0.30901  0.14937  1.0000
  H   H38       1.0  0.29795  0.11249  0.17218  1.0000
  H   H39       1.0  0.31759  0.07746  0.16723  1.0000
  C   C17       1.0  0.16563  0.29155  0.21174  1.0000
  C   C18       1.0  0.17393  0.30135  0.20702  1.0000
  C   C19       1.0  0.18759  0.29798  0.19949  1.0000
  C   C20       1.0  0.19313  0.28464  0.19713  1.0000
  C   C21       1.0  0.18495  0.27472  0.20218  1.0000
  C   C22       1.0  0.17112  0.27824  0.20930  1.0000
  H   H40       1.0  0.16982  0.31163  0.20893  1.0000
  H   H41       1.0  0.19395  0.30561  0.19576  1.0000
  H   H42       1.0  0.18923  0.26440  0.20035  1.0000
  H   H43       1.0  0.16475  0.27062  0.21296  1.0000
  C   C23       1.0  0.28530  0.27483  0.12430  1.0000
  C   C24       1.0  0.27659  0.28750  0.12635  1.0000
  C   C25       1.0  0.26243  0.29009  0.12629  1.0000
  C   C26       1.0  0.25704  0.28020  0.12363  1.0000
  C   C27       1.0  0.26585  0.26779  0.12090  1.0000
  C   C28       1.0  0.27995  0.26500  0.12147  1.0000
  H   H44       1.0  0.28077  0.29528  0.12811  1.0000
  H   H45       1.0  0.25571  0.29980  0.12817  1.0000
  H   H46       1.0  0.26171  0.26020  0.11868  1.0000
  H   H47       1.0  0.28668  0.25532  0.11959  1.0000
  H   H48       1.0  0.30311  0.10067  0.16073  1.0000
  N   N3        1.0  0.26551  0.24389  0.16255  1.0000
  H   H49       1.0  0.16827  0.30656  0.18017  1.0000
  S   S13       1.0  0.22241  0.32033  0.13307  1.0000
  H   H50       1.0  0.15690  0.31531  0.01543  1.0000
  H   H51       1.0  0.29040  0.32016  0.16309  1.0000
  H   H52       1.0  0.30569  0.10525  0.19471  1.0000
  H   H53       1.0  0.28415  0.23449  0.17034  1.0000
  H   H54       1.0  0.24459  0.25129  0.15926  1.0000
  H   H55       1.0  0.31620  0.18632  0.10038  1.0000
  H   H56       1.0  0.29764  0.09071  0.19888  1.0000
  H   H57       1.0  0.23806  0.29101  0.09537  1.0000
  C   C29       1.0  0.24233  0.32266  0.17915  1.0000
  H   H58       1.0  0.14604  0.29891  0.19017  1.0000
  C   C30       1.0  0.14031  0.30972  0.18726  1.0000
  H   H59       1.0  0.32610  0.20786  0.22522  1.0000
  H   H60       1.0  0.32252  0.07234  0.18362  1.0000
  H   H61       1.0  0.32135  0.20394  0.04473  1.0000
  H   H62       1.0  0.21801  0.30204  0.11105  1.0000
  C   C31       1.0  0.05577  0.32153  0.13020  1.0000
  C   C32       1.0  0.29419  0.30337  0.14597  1.0000
  H   H63       1.0  0.33066  0.08583  0.21644  1.0000
  C   C33       1.0  0.32426  0.09871  0.17235  1.0000
  H   H64       1.0  0.26263  0.30129  0.16730  1.0000
  H   H65       1.0  0.29891  0.29499  0.17164  1.0000
  H   H66       1.0  0.29677  0.29308  0.14321  1.0000
  C   C34       1.0  0.23500  0.29942  0.08671  1.0000
  S   S14       1.0  0.20744  0.31957  0.16604  1.0000
  Fe  Fe8       1.0  0.22882  0.31936  0.15253  1.0000
  H   H67       1.0  0.26909  0.24009  0.18300  1.0000
  H   H68       1.0  0.29159  0.28270  0.16801  1.0000
  C   C35       1.0  0.27266  0.23552  0.17369  1.0000
  H   H69       1.0  0.32142  0.20542  0.10722  1.0000
  H   H70       1.0  0.33052  0.10962  0.21759  1.0000
  H   H71       1.0  0.26301  0.26445  0.15037  1.0000
  H   H72       1.0  0.26507  0.24301  0.14206  1.0000
  H   H73       1.0  0.27996  0.25734  0.15422  1.0000
  H   H74       1.0  0.28184  0.23640  0.14644  1.0000
  H   H75       1.0  0.24616  0.25013  0.17645  1.0000
  H   H76       1.0  0.32613  0.23264  0.17395  1.0000
  H   H77       1.0  0.24100  0.30873  0.10594  1.0000
  S   S15       1.0  0.33308  0.21166  0.14116  1.0000
  H   H78       1.0  0.14120  0.31126  0.16058  1.0000
  C   C36       1.0  0.27046  0.23719  0.15057  1.0000
  H   H79       1.0  0.26535  0.26298  0.16734  1.0000
  Fe  Fe9       1.0  0.31364  0.24912  0.12944  1.0000
  H   H80       1.0  0.31562  0.08813  0.19926  1.0000
  H   H81       1.0  0.21024  0.31985  0.10626  1.0000
  C   C37       1.0  0.27074  0.30109  0.15762  1.0000
  C   C38       1.0  0.28916  0.29319  0.17022  1.0000
  H   H82       1.0  0.29037  0.31116  0.13728  1.0000
  N   N4        1.0  0.28372  0.30379  0.15904  1.0000
  C   C39       1.0  0.32978  0.23474  0.19277  1.0000
  C   C40       1.0  0.33019  0.20234  0.23464  1.0000
  H   H83       1.0  0.32276  0.10959  0.17312  1.0000
  H   H84       1.0  0.15698  0.30032  0.16515  1.0000
  N   N5        1.0  0.14855  0.31753  0.17514  1.0000
  C   C41       1.0  0.24524  0.32235  0.19178  1.0000
  C   C42       1.0  0.32978  0.19827  0.10213  1.0000
  C   C43       1.0  0.32685  0.18747  0.09824  1.0000
  C   C44       1.0  0.16202  0.31726  0.17807  1.0000
  C   C45       1.0  0.33128  0.20132  0.03720  1.0000
  H   H85       1.0  0.32877  0.19817  0.02879  1.0000
  S   S16       1.0  0.16072  0.31954  0.23605  1.0000
  Fe  Fe10      1.0  0.33245  0.22358  0.11972  1.0000
  H   H86       1.0  0.27331  0.31803  0.17242  1.0000
  C   C46       1.0  0.09873  0.03833  0.38098  1.0000
  H   H87       1.0  0.17273  0.31749  0.26982  1.0000
  H   H88       1.0  0.25005  0.11662  0.29827  1.0000
  Fe  Fe11      1.0  0.22783  0.20791  0.37801  1.0000
  S   S17       1.0  0.20531  0.21107  0.38850  1.0000
  S   S18       1.0  0.23705  0.19422  0.36261  1.0000
  C   C47       1.0  0.00848  0.12988  0.36267  1.0000
  H   H89       1.0  0.12099  0.27271  0.25490  1.0000
  Fe  Fe12      1.0  0.21297  0.20846  0.40759  1.0000
  S   S19       1.0  0.20382  0.19405  0.42637  1.0000
  H   H90       1.0  0.13811  0.20538  0.38311  1.0000
  S   S20       1.0  0.23563  0.20363  0.39735  1.0000
  Fe  Fe13      1.0  0.20046  0.15831  0.33307  1.0000
  S   S21       1.0  0.18961  0.14206  0.33327  1.0000
  S   S22       1.0  0.19175  0.17273  0.34784  1.0000
  Fe  Fe14      1.0  0.22270  0.15239  0.30770  1.0000
  S   S23       1.0  0.21381  0.13562  0.30537  1.0000
  S   S24       1.0  0.24169  0.16090  0.29600  1.0000
  Fe  Fe15      1.0  0.19303  0.14985  0.31049  1.0000
  S   S25       1.0  0.17553  0.15255  0.30012  1.0000
  Fe  Fe16      1.0  0.21105  0.12912  0.32832  1.0000
  S   S26       1.0  0.21573  0.10729  0.33981  1.0000
  S   S27       1.0  0.20214  0.16728  0.31058  1.0000
  S   S28       1.0  0.22168  0.14458  0.33033  1.0000
  C   C48       1.0  0.14764  0.20612  0.38593  1.0000
  H   H91       1.0  0.00486  0.12137  0.33267  1.0000
  H   H92       1.0  0.18065  0.02035  0.32154  1.0000
  Fe  Fe17      1.0  0.13162  0.22790  0.33829  1.0000
  H   H93       1.0  0.11974  0.14833  0.48298  1.0000
  S   S29       1.0  0.12251  0.21495  0.35826  1.0000
  H   H94       1.0  0.32857  0.18573  0.25983  1.0000
  H   H95       1.0  0.17379  0.15502  0.47709  1.0000
  S   S30       1.0  0.21207  0.23100  0.40526  1.0000
  H   H96       1.0  0.31768  0.19854  0.26919  1.0000
  Fe  Fe18      1.0  0.14363  0.22582  0.30826  1.0000
  S   S31       1.0  0.14400  0.21489  0.29195  1.0000
  N   N6        1.0  0.18389  0.15427  0.39133  1.0000
  S   S32       1.0  0.15196  0.21697  0.32741  1.0000
  Fe  Fe19      1.0  0.15878  0.06746  0.35230  1.0000
  S   S33       1.0  0.16552  0.05327  0.37106  1.0000
  S   S34       1.0  0.17253  0.07695  0.33321  1.0000
  Fe  Fe20      1.0  0.12884  0.06454  0.36271  1.0000
  S   S35       1.0  0.13311  0.04992  0.38204  1.0000
  S   S36       1.0  0.10674  0.07090  0.36043  1.0000
  Fe  Fe21      1.0  0.14556  0.06456  0.38261  1.0000
  S   S37       1.0  0.14042  0.07170  0.40251  1.0000
  Fe  Fe22      1.0  0.15231  0.04013  0.36850  1.0000
  S   S38       1.0  0.15932  0.01704  0.37077  1.0000
  S   S39       1.0  0.14001  0.07990  0.36404  1.0000
  S   S40       1.0  0.14693  0.05364  0.34897  1.0000
  Fe  Fe23      1.0  0.07806  0.14722  0.35526  1.0000
  S   S41       1.0  0.06007  0.13918  0.37027  1.0000
  S   S42       1.0  0.09758  0.13549  0.34349  1.0000
  Fe  Fe24      1.0  0.06711  0.17604  0.36053  1.0000
  S   S43       1.0  0.04845  0.17040  0.37622  1.0000
  S   S44       1.0  0.06964  0.19793  0.35271  1.0000
  Fe  Fe25      1.0  0.06343  0.15131  0.38378  1.0000
  S   S45       1.0  0.06152  0.14083  0.40610  1.0000
  Fe  Fe26      1.0  0.04651  0.15886  0.36139  1.0000
  S   S46       1.0  0.02465  0.16356  0.35725  1.0000
  S   S47       1.0  0.08229  0.15797  0.36943  1.0000
  S   S48       1.0  0.06433  0.16585  0.34509  1.0000
  Fe  Fe27      1.0  0.14325  0.16264  0.42897  1.0000
  S   S49       1.0  0.14781  0.18380  0.41987  1.0000
  Fe  Fe28      1.0  0.14863  0.13457  0.42232  1.0000
  S   S50       1.0  0.15982  0.12442  0.40424  1.0000
  Fe  Fe29      1.0  0.12036  0.14635  0.43856  1.0000
  S   S51       1.0  0.09777  0.14518  0.44533  1.0000
  S   S52       1.0  0.13272  0.15397  0.41773  1.0000
  N   N7        1.0  0.15622  0.21418  0.37436  1.0000
  C   C49       1.0  0.07227  0.14230  0.41623  1.0000
  C   C50       1.0  0.06901  0.13693  0.43037  1.0000
  C   C51       1.0  0.07701  0.13784  0.43903  1.0000
  C   C52       1.0  0.08864  0.14381  0.43364  1.0000
  C   C53       1.0  0.09223  0.14893  0.41940  1.0000
  C   C54       1.0  0.08391  0.14835  0.41070  1.0000
  H   H97       1.0  0.06007  0.13224  0.43473  1.0000
  H   H98       1.0  0.07414  0.13392  0.44999  1.0000
  H   H99       1.0  0.10109  0.15375  0.41519  1.0000
  H   H100      1.0  0.08641  0.15272  0.39982  1.0000
  N   N8        1.0  0.10564  0.02850  0.37179  1.0000
  C   C55       1.0  0.15273  0.00841  0.36210  1.0000
  C   C56       1.0  0.14576  0.01567  0.35155  1.0000
  C   C57       1.0  0.14045  0.00863  0.34490  1.0000
  H   H101      1.0  0.14438  0.02670  0.34852  1.0000
  H   H102      1.0  0.13511  0.01428  0.33669  1.0000
  C   C58       1.0  0.14562  0.08660  0.40250  1.0000
  C   C59       1.0  0.14084  0.09222  0.41431  1.0000
  C   C60       1.0  0.14492  0.10399  0.41478  1.0000
  C   C61       1.0  0.15399  0.11010  0.40351  1.0000
  C   C62       1.0  0.15865  0.10459  0.39157  1.0000
  C   C63       1.0  0.15439  0.09290  0.39102  1.0000
  H   H103      1.0  0.13411  0.08733  0.42323  1.0000
  H   H104      1.0  0.14134  0.10807  0.42403  1.0000
  H   H105      1.0  0.16576  0.10922  0.38286  1.0000
  H   H106      1.0  0.15822  0.08853  0.38191  1.0000
  C   C64       1.0  0.10357  0.08878  0.35478  1.0000
  C   C65       1.0  0.09080  0.09695  0.35985  1.0000
  C   C66       1.0  0.08878  0.11134  0.35628  1.0000
  C   C67       1.0  0.09946  0.11756  0.34749  1.0000
  C   C68       1.0  0.11207  0.10936  0.34210  1.0000
  C   C69       1.0  0.11417  0.09499  0.34583  1.0000
  H   H107      1.0  0.08256  0.09216  0.36673  1.0000
  H   H108      1.0  0.07895  0.11755  0.36023  1.0000
  H   H109      1.0  0.12020  0.11410  0.33500  1.0000
  H   H110      1.0  0.12396  0.08870  0.34165  1.0000
  S   S53       1.0  0.18075  0.23429  0.32498  1.0000
  C   C70       1.0  0.01783  0.13819  0.36150  1.0000
  H   H111      1.0  0.19099  0.19093  0.46619  1.0000
  H   H112      1.0  0.02835  0.13350  0.36284  1.0000
  H   H113      1.0  0.32592  0.30061  0.41616  1.0000
  C   C71       1.0  0.10727  0.21057  0.35763  1.0000
  C   C72       1.0  0.10426  0.19781  0.36499  1.0000
  C   C73       1.0  0.09259  0.19384  0.36376  1.0000
  C   C74       1.0  0.08380  0.20275  0.35534  1.0000
  C   C75       1.0  0.08665  0.21563  0.34828  1.0000
  C   C76       1.0  0.09837  0.21951  0.34938  1.0000
  H   H114      1.0  0.11106  0.19090  0.37148  1.0000
  H   H115      1.0  0.09036  0.18396  0.36936  1.0000
  H   H116      1.0  0.07981  0.22260  0.34185  1.0000
  H   H117      1.0  0.20265  0.22460  0.33971  1.0000
  C   C77       1.0  0.20403  0.09845  0.33808  1.0000
  C   C78       1.0  0.19830  0.08906  0.34931  1.0000
  C   C79       1.0  0.18853  0.08240  0.34799  1.0000
  C   C80       1.0  0.18486  0.08481  0.33531  1.0000
  C   C81       1.0  0.19084  0.09396  0.32403  1.0000
  C   C82       1.0  0.20017  0.10098  0.32549  1.0000
  H   H118      1.0  0.20120  0.08714  0.35909  1.0000
  H   H119      1.0  0.18394  0.07537  0.35675  1.0000
  H   H120      1.0  0.18808  0.09582  0.31418  1.0000
  H   H121      1.0  0.20457  0.10817  0.31677  1.0000
  C   C83       1.0  0.16643  0.16972  0.29817  1.0000
  C   C84       1.0  0.15875  0.17534  0.28788  1.0000
  C   C85       1.0  0.15201  0.18928  0.28591  1.0000
  C   C86       1.0  0.15282  0.19757  0.29432  1.0000
  C   C87       1.0  0.16026  0.19183  0.30476  1.0000
  C   C88       1.0  0.16698  0.17792  0.30675  1.0000
  H   H122      1.0  0.15831  0.16901  0.28122  1.0000
  H   H123      1.0  0.14627  0.19366  0.27780  1.0000
  H   H124      1.0  0.16110  0.19811  0.31118  1.0000
  H   H125      1.0  0.17255  0.17355  0.31497  1.0000
  C   C89       1.0  0.25410  0.15310  0.28321  1.0000
  C   C90       1.0  0.26696  0.15703  0.27831  1.0000
  C   C91       1.0  0.27745  0.15052  0.26871  1.0000
  C   C92       1.0  0.27518  0.14003  0.26390  1.0000
  C   C93       1.0  0.26225  0.13616  0.26874  1.0000
  C   C94       1.0  0.25169  0.14275  0.27830  1.0000
  H   H126      1.0  0.26890  0.16502  0.28208  1.0000
  H   H127      1.0  0.28735  0.15351  0.26517  1.0000
  H   H128      1.0  0.26039  0.12812  0.26497  1.0000
  H   H129      1.0  0.24170  0.13986  0.28179  1.0000
  C   C95       1.0  0.18839  0.19112  0.42439  1.0000
  C   C96       1.0  0.18497  0.17822  0.43004  1.0000
  C   C97       1.0  0.17246  0.17590  0.42885  1.0000
  C   C98       1.0  0.16338  0.18644  0.42191  1.0000
  C   C99       1.0  0.16681  0.19933  0.41629  1.0000
  C   C100      1.0  0.17930  0.20166  0.41749  1.0000
  H   H130      1.0  0.19205  0.17001  0.43526  1.0000
  H   H131      1.0  0.16983  0.16602  0.43342  1.0000
  H   H132      1.0  0.15968  0.20762  0.41122  1.0000
  H   H133      1.0  0.18173  0.21174  0.41336  1.0000
  C   C101      1.0  0.16903  0.15997  0.39656  1.0000
  H   H134      1.0  0.18879  0.14839  0.41137  1.0000
  H   H135      1.0  0.18397  0.13526  0.40628  1.0000
  S   S54       1.0  0.12269  0.23519  0.31944  1.0000
  C   C102      1.0  0.13708  0.28683  0.25971  1.0000
  C   C103      1.0  0.11457  0.12649  0.47730  1.0000
  H   H136      1.0  0.30701  0.22139  0.25660  1.0000
  C   C104      1.0  0.20450  0.17866  0.35173  1.0000
  C   C105      1.0  0.21815  0.17097  0.35081  1.0000
  C   C106      1.0  0.22816  0.17583  0.35409  1.0000
  C   C107      1.0  0.22446  0.18827  0.35854  1.0000
  C   C108      1.0  0.21081  0.19596  0.35944  1.0000
  C   C109      1.0  0.20086  0.19118  0.35602  1.0000
  H   H137      1.0  0.22100  0.16119  0.34780  1.0000
  H   H138      1.0  0.23873  0.16986  0.35339  1.0000
  H   H139      1.0  0.20803  0.20576  0.36242  1.0000
  H   H140      1.0  0.19044  0.19733  0.35648  1.0000
  H   H141      1.0  0.25270  0.13043  0.32709  1.0000
  H   H142      1.0  0.14013  0.29278  0.24912  1.0000
  C   C110      1.0  0.26611  0.10054  0.31561  1.0000
  C   C111      1.0  0.18524  0.14778  0.37973  1.0000
  N   N9        1.0  0.18899  0.02960  0.33309  1.0000
  C   C112      1.0  0.17907  0.02193  0.33216  1.0000
  C   C113      1.0  0.18661  0.04351  0.32424  1.0000
  C   C114      1.0  0.20340  0.02214  0.32854  1.0000
  C   C115      1.0  0.18681  0.03083  0.34750  1.0000
  H   H143      1.0  0.31035  0.18799  0.24724  1.0000
  H   H144      1.0  0.16813  0.02755  0.33511  1.0000
  H   H145      1.0  0.18008  0.01162  0.33923  1.0000
  H   H146      1.0  0.19367  0.04975  0.32493  1.0000
  H   H147      1.0  0.03629  0.14480  0.39646  1.0000
  H   H148      1.0  0.02825  0.14588  0.38268  1.0000
  H   H149      1.0  0.32907  0.26273  0.42792  1.0000
  H   H150      1.0  0.20546  0.01160  0.33503  1.0000
  H   H151      1.0  0.21112  0.02763  0.32921  1.0000
  H   H152      1.0  0.19386  0.03681  0.34865  1.0000
  H   H153      1.0  0.31728  0.27911  0.42783  1.0000
  S   S55       1.0  0.11785  0.27346  0.30726  1.0000
  H   H154      1.0  0.19635  0.14409  0.37493  1.0000
  H   H155      1.0  0.10384  0.04447  0.35365  1.0000
  H   H156      1.0  0.27565  0.09729  0.31993  1.0000
  H   H157      1.0  0.16763  0.16475  0.40544  1.0000
  S   S56       1.0  0.15086  0.12703  0.47275  1.0000
  H   H158      1.0  0.17578  0.04936  0.32736  1.0000
  H   H159      1.0  0.13534  0.27459  0.24044  1.0000
  H   H160      1.0  0.17512  0.20428  0.38164  1.0000
  N   N10       1.0  0.01401  0.15158  0.40081  1.0000
  C   C116      1.0  0.18964  0.14385  0.40243  1.0000
  C   C117      1.0  0.14184  0.99432  0.34888  1.0000
  H   H161      1.0  0.10627  0.04365  0.38231  1.0000
  H   H162      1.0  0.13847  0.25315  0.27528  1.0000
  C   C118      1.0  0.14802  0.22830  0.37071  1.0000
  H   H163      1.0  0.15398  0.23455  0.36175  1.0000
  C   C119      1.0  0.22447  0.26773  0.36376  1.0000
  H   H164      1.0  0.20082  0.13929  0.39878  1.0000
  C   C120      1.0  0.11670  0.01800  0.37774  1.0000
  C   C121      1.0  0.00190  0.14925  0.39720  1.0000
  N   N11       1.0  0.21537  0.20426  0.31143  1.0000
  C   C122      1.0  0.22544  0.19871  0.32052  1.0000
  C   C123      1.0  0.22015  0.19746  0.29953  1.0000
  C   C124      1.0  0.21431  0.21926  0.30653  1.0000
  C   C125      1.0  0.20156  0.20160  0.31917  1.0000
  H   H165      1.0  0.22212  0.20349  0.32971  1.0000
  H   H166      1.0  0.23597  0.20057  0.31508  1.0000
  H   H167      1.0  0.22653  0.18739  0.32432  1.0000
  H   H168      1.0  0.21259  0.20105  0.29265  1.0000
  H   H169      1.0  0.23043  0.19942  0.29328  1.0000
  H   H170      1.0  0.22145  0.18609  0.30291  1.0000
  H   H171      1.0  0.22445  0.22168  0.30041  1.0000
  H   H172      1.0  0.21096  0.22464  0.31530  1.0000
  H   H173      1.0  0.20643  0.22384  0.30002  1.0000
  H   H174      1.0  0.19357  0.20594  0.31278  1.0000
  H   H175      1.0  0.19778  0.20630  0.32841  1.0000
  H   H176      1.0  0.20190  0.19040  0.32278  1.0000
  N   N12       1.0  0.26044  0.11550  0.31422  1.0000
  C   C126      1.0  0.25680  0.11915  0.32787  1.0000
  C   C127      1.0  0.27093  0.12310  0.30484  1.0000
  H   H177      1.0  0.26602  0.11623  0.33264  1.0000
  H   H178      1.0  0.24859  0.11389  0.33508  1.0000
  H   H179      1.0  0.24336  0.13052  0.30727  1.0000
  H   H180      1.0  0.28076  0.12031  0.30860  1.0000
  H   H181      1.0  0.26704  0.13443  0.30381  1.0000
  H   H182      1.0  0.27358  0.12097  0.29428  1.0000
  N   N13       1.0  0.10351  0.11055  0.39389  1.0000
  C   C128      1.0  0.10818  0.11161  0.40588  1.0000
  C   C129      1.0  0.08995  0.10641  0.39859  1.0000
  C   C130      1.0  0.11390  0.10015  0.38683  1.0000
  C   C131      1.0  0.10198  0.12405  0.38426  1.0000
  H   H183      1.0  0.11832  0.11489  0.40270  1.0000
  H   H184      1.0  0.10968  0.10152  0.41325  1.0000
  H   H185      1.0  0.10049  0.11923  0.41159  1.0000
  H   H186      1.0  0.08186  0.11404  0.40398  1.0000
  H   H187      1.0  0.08611  0.10558  0.38977  1.0000
  H   H188      1.0  0.09070  0.09625  0.40587  1.0000
  H   H189      1.0  0.11083  0.09921  0.37760  1.0000
  H   H190      1.0  0.11513  0.08978  0.39376  1.0000
  H   H191      1.0  0.12436  0.10275  0.38346  1.0000
  H   H192      1.0  0.09863  0.12361  0.37500  1.0000
  H   H193      1.0  0.11192  0.12769  0.38069  1.0000
  H   H194      1.0  0.09398  0.13201  0.38924  1.0000
  H   H195      1.0  0.16436  0.16798  0.38852  1.0000
  H   H196      1.0  0.19093  0.17049  0.39522  1.0000
  H   H197      1.0  0.18852  0.02055  0.35454  1.0000
  H   H198      1.0  0.08886  0.14152  0.47582  1.0000
  H   H199      1.0  0.09386  0.03310  0.39137  1.0000
  H   H200      1.0  0.01189  0.11879  0.36492  1.0000
  C   C132      1.0  0.19263  0.17999  0.46551  1.0000
  H   H201      1.0  0.18828  0.04304  0.31325  1.0000
  C   C133      1.0  0.15533  0.26718  0.25495  1.0000
  H   H202      1.0  0.10026  0.01416  0.36336  1.0000
  C   C134      1.0  0.09542  0.14603  0.47971  1.0000
  H   H203      1.0  0.23295  0.24950  0.41240  1.0000
  N   N14       1.0  0.18022  0.17421  0.47291  1.0000
  H   H204      1.0  0.13824  0.22824  0.36792  1.0000
  C   C135      1.0  0.18725  0.24603  0.36211  1.0000
  S   S57       1.0  0.32914  0.12636  0.24029  1.0000
  C   C136      1.0  0.01357  0.15253  0.35845  1.0000
  N   N15       1.0  0.11411  0.18978  0.31954  1.0000
  C   C137      1.0  0.12471  0.17678  0.31970  1.0000
  C   C138      1.0  0.10057  0.18689  0.32791  1.0000
  C   C139      1.0  0.11271  0.19626  0.30524  1.0000
  C   C140      1.0  0.11843  0.19924  0.32530  1.0000
  H   H205      1.0  0.12600  0.17169  0.33036  1.0000
  H   H206      1.0  0.13506  0.17863  0.31349  1.0000
  H   H207      1.0  0.12181  0.16941  0.31537  1.0000
  H   H208      1.0  0.09700  0.17965  0.32400  1.0000
  H   H209      1.0  0.10111  0.18225  0.33885  1.0000
  H   H210      1.0  0.09228  0.19648  0.32788  1.0000
  H   H211      1.0  0.10944  0.18945  0.30053  1.0000
  H   H212      1.0  0.12272  0.19863  0.29864  1.0000
  H   H213      1.0  0.10485  0.20616  0.30479  1.0000
  H   H214      1.0  0.11072  0.20920  0.32521  1.0000
  H   H215      1.0  0.12865  0.20161  0.31928  1.0000
  H   H216      1.0  0.11945  0.19481  0.33615  1.0000
  C   C141      1.0  0.24779  0.11926  0.30855  1.0000
  N   N16       1.0  0.15246  0.12131  0.33842  1.0000
  C   C142      1.0  0.16154  0.11429  0.34832  1.0000
  C   C143      1.0  0.15791  0.13318  0.32912  1.0000
  C   C144      1.0  0.13815  0.12614  0.34599  1.0000
  C   C145      1.0  0.15227  0.11163  0.33019  1.0000
  H   H217      1.0  0.16149  0.12110  0.35510  1.0000
  H   H218      1.0  0.17255  0.11117  0.34292  1.0000
  H   H219      1.0  0.15828  0.10480  0.35502  1.0000
  H   H220      1.0  0.15825  0.14076  0.33487  1.0000
  H   H221      1.0  0.16871  0.12984  0.32328  1.0000
  H   H222      1.0  0.15148  0.13868  0.32134  1.0000
  H   H223      1.0  0.13371  0.11737  0.35295  1.0000
  H   H224      1.0  0.13102  0.13159  0.33882  1.0000
  H   H225      1.0  0.13790  0.13340  0.35237  1.0000
  H   H226      1.0  0.14539  0.11653  0.32273  1.0000
  H   H227      1.0  0.14856  0.10234  0.33683  1.0000
  H   H228      1.0  0.16286  0.10798  0.32416  1.0000
  H   H229      1.0  0.19208  0.15334  0.47525  1.0000
  S   S58       1.0  0.22831  0.23024  0.37289  1.0000
  C   C146      1.0  0.30872  0.31780  0.43855  1.0000
  H   H230      1.0  0.10045  0.22950  0.34393  1.0000
  H   H231      1.0  0.14370  0.15622  0.47389  1.0000
  C   C147      1.0  0.16033  0.20760  0.36234  1.0000
  S   S59       1.0  0.31335  0.15674  0.24808  1.0000
  C   C148      1.0  0.16808  0.18255  0.46714  1.0000
  C   C149      1.0  0.19156  0.16553  0.38663  1.0000
  H   H232      1.0  0.15106  0.20710  0.35896  1.0000
  H   H233      1.0  0.18723  0.17367  0.37847  1.0000
  H   H234      1.0  0.18015  0.13879  0.38315  1.0000
  Fe  Fe30      1.0  0.20640  0.23312  0.38508  1.0000
  H   H235      1.0  0.15349  0.19546  0.38917  1.0000
  H   H236      1.0  0.12509  0.02266  0.37843  1.0000
  H   H237      1.0  0.16286  0.15183  0.40004  1.0000
  S   S60       1.0  0.12912  0.15713  0.44950  1.0000
  S   S61       1.0  0.16006  0.14369  0.43225  1.0000
  H   H238      1.0  0.16681  0.21343  0.35338  1.0000
  H   H239      1.0  0.12221  0.11811  0.48232  1.0000
  H   H240      1.0  0.23955  0.11386  0.31544  1.0000
  H   H241      1.0  0.26896  0.09750  0.30545  1.0000
  H   H242      1.0  0.17596  0.03614  0.35126  1.0000
  H   H243      1.0  0.20279  0.16176  0.38226  1.0000
  H   H244      1.0  0.25836  0.09456  0.32255  1.0000
  H   H245      1.0  0.18023  0.15512  0.37154  1.0000
  H   H246      1.0  0.12470  0.26776  0.27864  1.0000
  H   H247      1.0  0.02697  0.13200  0.39736  1.0000
  S   S62       1.0  0.13554  0.12626  0.44248  1.0000
  Fe  Fe31      1.0  0.14518  0.13753  0.45212  1.0000
  Fe  Fe32      1.0  0.23421  0.22647  0.39323  1.0000
  Fe  Fe33      1.0  0.30765  0.14007  0.24179  1.0000
  C   C150      1.0  0.19707  0.23592  0.35584  1.0000
  C   C151      1.0  0.15053  0.13589  0.48540  1.0000
  C   C152      1.0  0.16886  0.21476  0.37840  1.0000
  H   H248      1.0  0.16637  0.19686  0.36473  1.0000
  H   H249      1.0  0.14503  0.23372  0.37941  1.0000
  H   H250      1.0  0.20542  0.02104  0.31768  1.0000
  H   H251      1.0  0.16620  0.22013  0.38712  1.0000
  C   C153      1.0  0.02694  0.14318  0.39405  1.0000
  Fe  Fe34      1.0  0.15867  0.23685  0.32330  1.0000
  H   H252      1.0  0.11253  0.01253  0.38829  1.0000
  H   H253      1.0  0.12073  0.13264  0.46845  1.0000
  H   H254      1.0  0.19520  0.17974  0.45437  1.0000
  H   H255      1.0  0.15859  0.17832  0.47225  1.0000
  H   H256      1.0  0.30271  0.20453  0.23839  1.0000
  H   H257      1.0  0.12002  0.04088  0.35882  1.0000
  C   C154      1.0  0.11179  0.03603  0.35815  1.0000
  H   H258      1.0  0.12169  0.01003  0.37141  1.0000
  H   H259      1.0  0.22608  0.25352  0.38914  1.0000
  H   H260      1.0  0.20634  0.23074  0.35975  1.0000
  H   H261      1.0  0.17570  0.22046  0.36974  1.0000
  H   H262      1.0  0.11692  0.31788  0.27526  1.0000
  H   H263      1.0  0.02190  0.14903  0.41885  1.0000
  H   H264      1.0  0.11654  0.02909  0.35073  1.0000
  C   C155      1.0  0.18231  0.32109  0.26899  1.0000
  H   H265      1.0  0.27363  0.25079  0.38673  1.0000
  H   H266      1.0  0.16571  0.19339  0.46839  1.0000
  C   C156      1.0  0.00510  0.13765  0.30711  1.0000
  H   H267      1.0  0.32411  0.22365  0.24706  1.0000
  S   S63       1.0  0.28839  0.13130  0.25226  1.0000
  H   H268      1.0  0.14413  0.21088  0.39513  1.0000
  C   C157      1.0  0.19499  0.23248  0.34441  1.0000
  H   H269      1.0  0.09048  0.04654  0.37667  1.0000
  C   C158      1.0  0.32538  0.19702  0.25947  1.0000
  C   C159      1.0  0.18277  0.15985  0.47131  1.0000
  C   C160      1.0  0.31782  0.31627  0.44718  1.0000
  C   C161      1.0  0.18300  0.23903  0.33924  1.0000
  C   C162      1.0  0.31515  0.21932  0.24731  1.0000
  C   C163      1.0  0.30735  0.19915  0.24751  1.0000
  C   C164      1.0  0.15448  0.99403  0.36585  1.0000
  S   S64       1.0  0.15211  0.24487  0.30305  1.0000
  Fe  Fe35      1.0  0.28281  0.32169  0.39456  1.0000
  S   S65       1.0  0.25283  0.23534  0.39152  1.0000
  Fe  Fe36      1.0  0.30321  0.29446  0.39322  1.0000
  S   S66       1.0  0.30417  0.31359  0.39891  1.0000
  Fe  Fe37      1.0  0.27316  0.29528  0.40878  1.0000
  S   S67       1.0  0.27190  0.31436  0.41626  1.0000
  S   S68       1.0  0.25402  0.28599  0.41498  1.0000
  H   H270      1.0  0.29908  0.20046  0.25691  1.0000
  Fe  Fe38      1.0  0.29342  0.30464  0.42003  1.0000
  S   S69       1.0  0.30284  0.30338  0.43803  1.0000
  S   S70       1.0  0.28273  0.30335  0.38672  1.0000
  S   S71       1.0  0.29366  0.28481  0.41466  1.0000
  H   H271      1.0  0.08685  0.02927  0.36573  1.0000
  C   C165      1.0  0.23462  0.27708  0.37690  1.0000
  S   S72       1.0  0.32379  0.28306  0.38276  1.0000
  H   H272      1.0  0.31487  0.30740  0.33710  1.0000
  H   H273      1.0  0.16768  0.26059  0.36165  1.0000
  H   H274      1.0  0.21306  0.29392  0.36638  1.0000
  H   H275      1.0  0.21518  0.26433  0.36320  1.0000
  N   N17       1.0  0.22182  0.27344  0.37617  1.0000
  H   H276      1.0  0.20062  0.28328  0.37509  1.0000
  C   C166      1.0  0.25314  0.24892  0.39881  1.0000
  H   H277      1.0  0.20808  0.26008  0.38835  1.0000
  H   H278      1.0  0.13453  0.25796  0.25146  1.0000
  C   C167      1.0  0.21041  0.28581  0.37558  1.0000
  C   C168      1.0  0.31842  0.29648  0.35723  1.0000
  H   H279      1.0  0.22718  0.27540  0.35418  1.0000
  H   H280      1.0  0.24349  0.26798  0.37698  1.0000
  H   H281      1.0  0.21583  0.26683  0.39813  1.0000
  C   C169      1.0  0.12521  0.28755  0.29767  1.0000
  C   C170      1.0  0.13873  0.28809  0.29776  1.0000
  C   C171      1.0  0.14425  0.29956  0.28995  1.0000
  C   C172      1.0  0.13645  0.31026  0.28172  1.0000
  C   C173      1.0  0.12305  0.30958  0.28147  1.0000
  C   C174      1.0  0.11737  0.29834  0.28959  1.0000
  H   H282      1.0  0.14478  0.27981  0.30404  1.0000
  H   H283      1.0  0.15460  0.30008  0.29022  1.0000
  H   H284      1.0  0.23784  0.28519  0.36796  1.0000
  H   H285      1.0  0.10689  0.29797  0.28957  1.0000
  H   H286      1.0  0.18452  0.15930  0.46032  1.0000
  C   C175      1.0  0.21775  0.26303  0.38850  1.0000
  H   H287      1.0  0.18934  0.31945  0.25894  1.0000
  H   H288      1.0  0.23360  0.26962  0.42104  1.0000
  H   H289      1.0  0.31089  0.22523  0.23807  1.0000
  S   S73       1.0  0.18982  0.24996  0.37667  1.0000
  S   S74       1.0  0.13889  0.24732  0.33579  1.0000
  H   H290      1.0  0.01381  0.13793  0.31153  1.0000
  C   C176      1.0  0.17530  0.25273  0.35686  1.0000
  H   H291      1.0  0.10092  0.15258  0.47057  1.0000
  C   C177      1.0  0.25401  0.27158  0.40880  1.0000
  C   C178      1.0  0.26530  0.26618  0.39918  1.0000
  C   C179      1.0  0.26486  0.25488  0.39422  1.0000
  H   H292      1.0  0.27437  0.27071  0.39555  1.0000
  H   H293      1.0  0.20814  0.29028  0.38486  1.0000
  H   H294      1.0  0.16150  0.26913  0.26135  1.0000
  C   C180      1.0  0.24189  0.25422  0.40855  1.0000
  N   N18       1.0  0.14022  0.27190  0.26010  1.0000
  H   H295      1.0  0.16397  0.25446  0.34135  1.0000
  H   H296      1.0  0.23329  0.25857  0.36378  1.0000
  H   H297      1.0  0.09046  0.01586  0.38035  1.0000
  H   H298      1.0  0.30759  0.29900  0.36232  1.0000
  H   H299      1.0  0.14279  0.28923  0.26624  1.0000
  C   C181      1.0  0.13607  0.26450  0.27443  1.0000
  H   H300      1.0  0.00323  0.15386  0.42136  1.0000
  N   N19       1.0  0.31951  0.20445  0.24725  1.0000
  H   H301      1.0  0.16994  0.18285  0.45594  1.0000
  Fe  Fe39      1.0  0.13169  0.25376  0.31573  1.0000
  H   H302      1.0  0.15877  0.27264  0.24415  1.0000
  C   C182      1.0  0.24231  0.26556  0.41347  1.0000
  H   H303      1.0  0.32729  0.31547  0.29252  1.0000
  C   C183      1.0  0.32255  0.30123  0.34297  1.0000
  C   C184      1.0  0.09532  0.02166  0.37026  1.0000
  H   H304      1.0  0.32125  0.30626  0.45333  1.0000
  H   H305      1.0  0.12577  0.29079  0.26347  1.0000
  C   C185      1.0  0.01455  0.16631  0.39611  1.0000
  H   H306      1.0  0.23321  0.28086  0.38646  1.0000
  C   C186      1.0  0.17315  0.24920  0.34544  1.0000
  C   C187      1.0  0.13242  0.26916  0.25134  1.0000
  C   C188      1.0  0.32833  0.28845  0.36481  1.0000
  H   H307      1.0  0.00244  0.14781  0.30015  1.0000
  H   H308      1.0  0.14153  0.26663  0.28136  1.0000
  H   H309      1.0  0.32434  0.27285  0.41215  1.0000
  C   C189      1.0  0.32684  0.27341  0.42182  1.0000
  H   H310      1.0  0.10852  0.12177  0.47300  1.0000
  H   H311      1.0  0.01218  0.13656  0.41979  1.0000
  H   H312      1.0  0.15810  0.25594  0.25511  1.0000
  H   H313      1.0  0.18751  0.31434  0.27732  1.0000
  H   H314      1.0  0.01591  0.16959  0.38471  1.0000
  H   H315      1.0  0.00482  0.17300  0.40073  1.0000
  H   H316      1.0  0.02340  0.16850  0.39891  1.0000
  H   H317      1.0  0.33298  0.29405  0.40071  1.0000
  C   C190      1.0  0.14649  0.15023  0.48345  1.0000
  H   H318      1.0  0.00905  0.12970  0.30069  1.0000
  H   H319      1.0  0.20198  0.17412  0.46971  1.0000
  H   H320      1.0  0.00239  0.15260  0.38593  1.0000
  C   C191      1.0  0.01274  0.14759  0.41589  1.0000
  H   H321      1.0  0.33202  0.28700  0.43805  1.0000
  H   H322      1.0  0.00114  0.11277  0.32138  1.0000
  H   H323      1.0  0.00144  0.13816  0.40008  1.0000
  Fe  Fe40      1.0  0.20561  0.12604  0.70462  1.0000
  S   S75       1.0  0.18902  0.11671  0.70259  1.0000
  S   S76       1.0  0.20797  0.14773  0.69510  1.0000
  Fe  Fe41      1.0  0.20588  0.09768  0.70108  1.0000
  S   S77       1.0  0.20834  0.08460  0.68569  1.0000
  S   S78       1.0  0.22287  0.10781  0.70105  1.0000
  C   C192      1.0  0.27739  0.23716  0.63438  1.0000
  Fe  Fe42      1.0  0.10974  0.19762  0.70502  1.0000
  S   S79       1.0  0.12185  0.21376  0.70247  1.0000
  S   S80       1.0  0.09485  0.19893  0.69173  1.0000
  Fe  Fe43      1.0  0.13934  0.19591  0.70690  1.0000
  H   H324      1.0  0.23743  0.13058  0.69164  1.0000
  S   S81       1.0  0.12790  0.17992  0.70748  1.0000
  Fe  Fe44      1.0  0.21623  0.18369  0.62123  1.0000
  S   S82       1.0  0.19487  0.19059  0.61678  1.0000
  S   S83       1.0  0.22282  0.16117  0.63022  1.0000
  Fe  Fe45      1.0  0.22432  0.21113  0.60653  1.0000
  C   C193      1.0  0.21399  0.08117  0.62044  1.0000
  Fe  Fe46      1.0  0.19487  0.21036  0.62190  1.0000
  C   C194      1.0  0.15728  0.14859  0.69331  1.0000
  Fe  Fe47      1.0  0.20568  0.19937  0.59558  1.0000
  S   S84       1.0  0.20250  0.19500  0.57643  1.0000
  S   S85       1.0  0.21530  0.20269  0.62855  1.0000
  S   S86       1.0  0.22718  0.19140  0.59973  1.0000
  H   H325      1.0  0.22811  0.15128  0.70978  1.0000
  Fe  Fe48      1.0  0.17288  0.05606  0.63107  1.0000
  S   S87       1.0  0.15673  0.04683  0.62796  1.0000
  S   S88       1.0  0.19194  0.05930  0.61454  1.0000
  Fe  Fe49      1.0  0.15664  0.06183  0.65907  1.0000
  S   S89       1.0  0.13880  0.05351  0.65820  1.0000
  S   S90       1.0  0.15413  0.07361  0.67550  1.0000
  Fe  Fe50      1.0  0.15531  0.03622  0.65021  1.0000
  S   S91       1.0  0.15106  0.01479  0.65982  1.0000
  Fe  Fe51      1.0  0.14179  0.06457  0.63619  1.0000
  S   S92       1.0  0.12625  0.07899  0.62451  1.0000
  S   S93       1.0  0.17308  0.04386  0.65270  1.0000
  S   S94       1.0  0.15801  0.07450  0.63774  1.0000
  Fe  Fe52      1.0  0.13547  0.13350  0.56810  1.0000
  S   S95       1.0  0.13537  0.15561  0.55816  1.0000
  S   S96       1.0  0.11698  0.12421  0.57981  1.0000
  Fe  Fe53      1.0  0.16691  0.12500  0.56087  1.0000
  S   S97       1.0  0.16956  0.14648  0.55010  1.0000
  S   S98       1.0  0.18553  0.10736  0.56206  1.0000
  Fe  Fe54      1.0  0.15326  0.15292  0.56811  1.0000
  S   S99       1.0  0.15262  0.16676  0.58212  1.0000
  Fe  Fe55      1.0  0.15157  0.14728  0.54088  1.0000
  S   S100      1.0  0.15002  0.15807  0.51881  1.0000
  S   S101      1.0  0.15199  0.13136  0.57946  1.0000
  S   S102      1.0  0.15032  0.12523  0.55024  1.0000
  Fe  Fe56      1.0  0.07066  0.14475  0.66805  1.0000
  S   S103      1.0  0.05477  0.13156  0.67674  1.0000
  S   S104      1.0  0.08576  0.14464  0.68064  1.0000
  Fe  Fe57      1.0  0.06612  0.14968  0.63906  1.0000
  S   S105      1.0  0.05041  0.13645  0.64508  1.0000
  S   S106      1.0  0.07201  0.16161  0.61752  1.0000
  Fe  Fe58      1.0  0.04160  0.14699  0.66293  1.0000
  C   C195      1.0  0.24192  0.23396  0.61064  1.0000
  Fe  Fe59      1.0  0.06459  0.12211  0.65834  1.0000
  S   S107      1.0  0.06836  0.09913  0.66214  1.0000
  S   S108      1.0  0.05649  0.16138  0.65606  1.0000
  S   S109      1.0  0.08139  0.13417  0.65041  1.0000
  H   H326      1.0  0.14857  0.15348  0.70084  1.0000
  C   C196      1.0  0.15509  0.21218  0.67297  1.0000
  H   H327      1.0  0.02475  0.20096  0.62263  1.0000
  H   H328      1.0  0.14582  0.15757  0.72759  1.0000
  H   H329      1.0  0.17832  0.15128  0.70256  1.0000
  H   H330      1.0  0.15270  0.14605  0.68592  1.0000
  C   C197      1.0  0.23328  0.14066  0.71420  1.0000
  N   N20       1.0  0.08323  0.16143  0.73254  1.0000
  C   C198      1.0  0.14976  0.14921  0.50637  1.0000
  C   C199      1.0  0.15372  0.13488  0.50834  1.0000
  C   C200      1.0  0.15407  0.12826  0.49790  1.0000
  H   H331      1.0  0.14106  0.14167  0.62319  1.0000
  H   H332      1.0  0.21098  0.09668  0.63863  1.0000
  S   S110      1.0  0.20157  0.12012  0.72763  1.0000
  H   H333      1.0  0.15670  0.12890  0.51782  1.0000
  H   H334      1.0  0.15721  0.11716  0.49950  1.0000
  C   C201      1.0  0.21271  0.08539  0.64273  1.0000
  H   H335      1.0  0.25383  0.23006  0.65005  1.0000
  C   C202      1.0  0.10350  0.13481  0.58939  1.0000
  C   C203      1.0  0.10172  0.14914  0.58581  1.0000
  C   C204      1.0  0.09136  0.15738  0.59403  1.0000
  C   C205      1.0  0.08318  0.15130  0.60617  1.0000
  C   C206      1.0  0.08469  0.13700  0.60957  1.0000
  C   C207      1.0  0.09467  0.12880  0.60105  1.0000
  H   H336      1.0  0.10825  0.15388  0.57666  1.0000
  H   H337      1.0  0.09004  0.16846  0.59122  1.0000
  H   H338      1.0  0.07822  0.13227  0.61880  1.0000
  H   H339      1.0  0.09577  0.11775  0.60365  1.0000
  C   C208      1.0  0.15447  0.00171  0.65046  1.0000
  C   C209      1.0  0.31218  0.27672  0.66332  1.0000
  H   H340      1.0  0.22408  0.08134  0.64211  1.0000
  S   S111      1.0  0.17572  0.22249  0.63359  1.0000
  C   C210      1.0  0.25646  0.14470  0.70437  1.0000
  C   C211      1.0  0.16479  0.00132  0.63839  1.0000
  C   C212      1.0  0.17741  0.17445  0.48770  1.0000
  S   S112      1.0  0.10162  0.19704  0.72762  1.0000
  H   H341      1.0  0.00550  0.13686  0.63601  1.0000
  C   C213      1.0  0.15831  0.21822  0.65893  1.0000
  C   C214      1.0  0.10996  0.08409  0.63485  1.0000
  C   C215      1.0  0.10472  0.07522  0.64681  1.0000
  C   C216      1.0  0.09162  0.07966  0.65497  1.0000
  C   C217      1.0  0.08399  0.09305  0.65129  1.0000
  C   C218      1.0  0.08929  0.10189  0.63937  1.0000
  C   C219      1.0  0.10222  0.09737  0.63110  1.0000
  H   H342      1.0  0.11064  0.06487  0.64964  1.0000
  H   H343      1.0  0.08753  0.07280  0.66421  1.0000
  H   H344      1.0  0.08337  0.11216  0.63642  1.0000
  H   H345      1.0  0.10636  0.10423  0.62190  1.0000
  C   C220      1.0  0.18964  0.07302  0.60032  1.0000
  C   C221      1.0  0.17788  0.08388  0.60079  1.0000
  C   C222      1.0  0.17662  0.09476  0.58926  1.0000
  C   C223      1.0  0.18695  0.09462  0.57714  1.0000
  C   C224      1.0  0.19873  0.08385  0.57680  1.0000
  C   C225      1.0  0.20013  0.07319  0.58836  1.0000
  H   H346      1.0  0.16977  0.08395  0.60998  1.0000
  H   H347      1.0  0.16761  0.10315  0.58967  1.0000
  H   H348      1.0  0.20678  0.08369  0.56749  1.0000
  H   H349      1.0  0.20927  0.06489  0.58789  1.0000
  H   H350      1.0  0.10451  0.16180  0.62818  1.0000
  H   H351      1.0  0.14391  0.14483  0.60476  1.0000
  N   N21       1.0  0.24681  0.13596  0.70521  1.0000
  S   S113      1.0  0.01822  0.15359  0.67036  1.0000
  N   N22       1.0  0.02569  0.10330  0.66698  1.0000
  H   H352      1.0  0.04370  0.10553  0.65060  1.0000
  H   H353      1.0  0.10868  0.16720  0.60316  1.0000
  H   H354      1.0  0.12182  0.13382  0.49691  1.0000
  Fe  Fe60      1.0  0.11561  0.21130  0.72547  1.0000
  H   H355      1.0  0.02200  0.14276  0.64602  1.0000
  C   C226      1.0  0.18855  0.18727  0.57801  1.0000
  C   C227      1.0  0.18857  0.18081  0.56762  1.0000
  C   C228      1.0  0.17775  0.17424  0.56883  1.0000
  C   C229      1.0  0.16672  0.17434  0.58035  1.0000
  C   C230      1.0  0.16671  0.18081  0.59072  1.0000
  C   C231      1.0  0.17762  0.18717  0.58961  1.0000
  H   H356      1.0  0.19693  0.18094  0.55856  1.0000
  H   H357      1.0  0.17778  0.16938  0.56073  1.0000
  H   H358      1.0  0.15815  0.18104  0.59960  1.0000
  H   H359      1.0  0.17738  0.19229  0.59757  1.0000
  C   C232      1.0  0.09301  0.18396  0.68776  1.0000
  C   C233      1.0  0.08206  0.18470  0.68161  1.0000
  C   C234      1.0  0.07986  0.17278  0.67907  1.0000
  C   C235      1.0  0.08861  0.16003  0.68272  1.0000
  C   C236      1.0  0.09972  0.15932  0.68861  1.0000
  C   C237      1.0  0.10194  0.17123  0.69110  1.0000
  H   H360      1.0  0.07513  0.19452  0.67897  1.0000
  H   H361      1.0  0.07126  0.17344  0.67452  1.0000
  H   H362      1.0  0.10659  0.14950  0.69134  1.0000
  H   H363      1.0  0.11048  0.17054  0.69568  1.0000
  H   H364      1.0  0.01573  0.19841  0.61108  1.0000
  C   C238      1.0  0.17908  0.19993  0.67161  1.0000
  C   C239      1.0  0.18220  0.20564  0.65751  1.0000
  H   H365      1.0  0.18592  0.15774  0.67051  1.0000
  C   C240      1.0  0.16551  0.20309  0.67934  1.0000
  H   H366      1.0  0.18716  0.19288  0.67650  1.0000
  H   H367      1.0  0.19265  0.20300  0.65163  1.0000
  C   C241      1.0  0.19304  0.08081  0.68414  1.0000
  C   C242      1.0  0.17989  0.08878  0.68854  1.0000
  C   C243      1.0  0.16798  0.08631  0.68607  1.0000
  C   C244      1.0  0.16916  0.07591  0.67913  1.0000
  C   C245      1.0  0.18225  0.06767  0.67510  1.0000
  C   C246      1.0  0.19413  0.07008  0.67768  1.0000
  H   H368      1.0  0.17888  0.09693  0.69373  1.0000
  H   H369      1.0  0.15787  0.09257  0.68944  1.0000
  H   H370      1.0  0.18316  0.05936  0.67014  1.0000
  H   H371      1.0  0.20424  0.06361  0.67470  1.0000
  C   C247      1.0  0.21241  0.15125  0.67712  1.0000
  C   C248      1.0  0.21639  0.14064  0.66985  1.0000
  C   C249      1.0  0.21970  0.14374  0.65541  1.0000
  C   C250      1.0  0.21878  0.15744  0.64826  1.0000
  C   C251      1.0  0.21463  0.16802  0.65557  1.0000
  C   C252      1.0  0.21161  0.16491  0.66999  1.0000
  H   H372      1.0  0.21693  0.13006  0.67532  1.0000
  H   H373      1.0  0.22289  0.13553  0.64978  1.0000
  H   H374      1.0  0.21385  0.17859  0.65015  1.0000
  H   H375      1.0  0.20845  0.17313  0.67561  1.0000
  S   S114      1.0  0.20381  0.21996  0.60018  1.0000
  H   H376      1.0  0.16249  0.13873  0.69919  1.0000
  H   H377      1.0  0.15500  0.16870  0.67099  1.0000
  H   H378      1.0  0.21017  0.07593  0.61449  1.0000
  C   C253      1.0  0.09779  0.15563  0.72634  1.0000
  H   H379      1.0  0.01187  0.17544  0.61273  1.0000
  N   N23       1.0  0.16716  0.15771  0.68620  1.0000
  C   C254      1.0  0.17280  0.16081  0.69653  1.0000
  C   C255      1.0  0.15992  0.17065  0.67847  1.0000
  C   C256      1.0  0.17868  0.15082  0.67647  1.0000
  H   H380      1.0  0.16441  0.16604  0.70404  1.0000
  H   H381      1.0  0.18033  0.16767  0.69161  1.0000
  H   H382      1.0  0.15167  0.17660  0.68546  1.0000
  H   H383      1.0  0.16725  0.17749  0.67260  1.0000
  H   H384      1.0  0.17478  0.14770  0.66894  1.0000
  H   H385      1.0  0.18498  0.14148  0.68193  1.0000
  N   N24       1.0  0.14249  0.08469  0.58290  1.0000
  C   C257      1.0  0.15723  0.08141  0.57567  1.0000
  C   C258      1.0  0.13827  0.07194  0.59150  1.0000
  C   C259      1.0  0.13362  0.09104  0.57271  1.0000
  C   C260      1.0  0.14080  0.09444  0.59175  1.0000
  H   H386      1.0  0.16092  0.09088  0.56944  1.0000
  H   H387      1.0  0.15883  0.07440  0.56858  1.0000
  H   H388      1.0  0.16415  0.07623  0.58307  1.0000
  H   H389      1.0  0.12718  0.07409  0.59710  1.0000
  H   H390      1.0  0.13950  0.06426  0.58524  1.0000
  H   H391      1.0  0.14459  0.06704  0.59949  1.0000
  H   H392      1.0  0.12245  0.09387  0.57787  1.0000
  H   H393      1.0  0.13450  0.08399  0.56588  1.0000
  H   H394      1.0  0.13654  0.10072  0.56610  1.0000
  H   H395      1.0  0.12973  0.09731  0.59718  1.0000
  H   H396      1.0  0.14397  0.10413  0.58563  1.0000
  H   H397      1.0  0.14708  0.08992  0.59978  1.0000
  H   H398      1.0  0.14257  0.15852  0.61294  1.0000
  H   H399      1.0  0.18625  0.16807  0.49248  1.0000
  H   H400      1.0  0.17029  0.00964  0.63411  1.0000
  H   H401      1.0  0.15025  0.22532  0.65404  1.0000
  C   C261      1.0  0.17185  0.21488  0.65115  1.0000
  Fe  Fe61      1.0  0.18666  0.10889  0.72533  1.0000
  H   H402      1.0  0.14019  0.22101  0.72554  1.0000
  H   H403      1.0  0.21186  0.09235  0.61575  1.0000
  H   H404      1.0  0.22133  0.05904  0.63984  1.0000
  H   H405      1.0  0.10659  0.14305  0.61694  1.0000
  N   N25       1.0  0.22294  0.15454  0.59021  1.0000
  C   C262      1.0  0.22110  0.14166  0.58790  1.0000
  C   C263      1.0  0.20994  0.16108  0.59868  1.0000
  C   C264      1.0  0.22625  0.16399  0.57682  1.0000
  C   C265      1.0  0.23444  0.15146  0.59746  1.0000
  H   H406      1.0  0.23074  0.13639  0.58160  1.0000
  H   H407      1.0  0.21254  0.14374  0.58235  1.0000
  H   H408      1.0  0.21843  0.13438  0.59782  1.0000
  H   H409      1.0  0.21068  0.17124  0.59982  1.0000
  H   H410      1.0  0.20086  0.16291  0.59393  1.0000
  H   H411      1.0  0.20759  0.15473  0.60924  1.0000
  H   H412      1.0  0.23587  0.15936  0.57002  1.0000
  H   H413      1.0  0.22784  0.17379  0.57816  1.0000
  H   H414      1.0  0.21761  0.16687  0.57124  1.0000
  H   H415      1.0  0.23592  0.16099  0.59950  1.0000
  H   H416      1.0  0.24447  0.14662  0.59136  1.0000
  H   H417      1.0  0.23227  0.14442  0.60767  1.0000
  H   H418      1.0  0.20758  0.08384  0.65385  1.0000
  H   H419      1.0  0.25223  0.15570  0.70013  1.0000
  C   C266      1.0  0.02856  0.11226  0.67447  1.0000
  H   H420      1.0  0.20597  0.05792  0.63530  1.0000
  H   H421      1.0  0.25824  0.14407  0.71474  1.0000
  C   C267      1.0  0.12007  0.16351  0.60249  1.0000
  S   S115      1.0  0.16188  0.19531  0.69684  1.0000
  N   N26       1.0  0.32932  0.28917  0.61286  1.0000
  H   H422      1.0  0.11956  0.16826  0.62695  1.0000
  H   H423      1.0  0.12062  0.11122  0.68102  1.0000
  C   C268      1.0  0.20998  0.06346  0.64079  1.0000
  C   C269      1.0  0.12028  0.10012  0.68448  1.0000
  H   H424      1.0  0.12231  0.10894  0.65717  1.0000
  H   H425      1.0  0.13117  0.09416  0.68431  1.0000
  H   H426      1.0  0.09917  0.11526  0.67262  1.0000
  H   H427      1.0  0.23452  0.14066  0.72456  1.0000
  H   H428      1.0  0.03156  0.16445  0.64083  1.0000
  H   H429      1.0  0.12268  0.13647  0.60611  1.0000
  C   C270      1.0  0.27943  0.21354  0.64661  1.0000
  C   C271      1.0  0.01113  0.14438  0.65092  1.0000
  N   N27       1.0  0.11370  0.09578  0.67567  1.0000
  C   C272      1.0  0.12182  0.09794  0.66134  1.0000
  C   C273      1.0  0.09934  0.10404  0.67617  1.0000
  H   H430      1.0  0.13270  0.09179  0.66061  1.0000
  H   H431      1.0  0.11449  0.09847  0.69539  1.0000
  H   H432      1.0  0.09283  0.10251  0.68679  1.0000
  H   H433      1.0  0.22756  0.22545  0.62821  1.0000
  H   H434      1.0  0.00522  0.10255  0.67963  1.0000
  H   H435      1.0  0.09124  0.12153  0.49542  1.0000
  H   H436      1.0  0.04308  0.08692  0.67138  1.0000
  H   H437      1.0  0.11714  0.09472  0.65444  1.0000
  H   H438      1.0  0.09410  0.10118  0.66952  1.0000
  H   H439      1.0  0.31502  0.30329  0.62490  1.0000
  H   H440      1.0  0.21180  0.24477  0.60414  1.0000
  H   H441      1.0  0.15810  0.21327  0.71964  1.0000
  H   H442      1.0  0.12449  0.17267  0.60108  1.0000
  H   H443      1.0  0.13817  0.24594  0.70231  1.0000
  H   H444      1.0  0.02796  0.11765  0.64756  1.0000
  C   C274      1.0  0.11339  0.08102  0.68070  1.0000
  H   H445      1.0  0.10731  0.07895  0.69147  1.0000
  H   H446      1.0  0.12409  0.07453  0.68052  1.0000
  C   C275      1.0  0.26585  0.31782  0.66356  1.0000
  H   H447      1.0  0.27128  0.23521  0.62791  1.0000
  C   C276      1.0  0.11809  0.14069  0.61564  1.0000
  H   H448      1.0  0.18630  0.24421  0.60928  1.0000
  H   H449      1.0  0.18644  0.08187  0.64776  1.0000
  H   H450      1.0  0.10862  0.07737  0.67420  1.0000
  C   C277      1.0  0.01047  0.10534  0.66863  1.0000
  H   H451      1.0  0.02455  0.12332  0.67035  1.0000
  C   C278      1.0  0.25044  0.24364  0.60549  1.0000
  H   H452      1.0  0.12463  0.15931  0.59295  1.0000
  H   H453      1.0  0.00771  0.19713  0.62906  1.0000
  H   H454      1.0  0.09844  0.15155  0.71719  1.0000
  C   C279      1.0  0.00644  0.14974  0.66285  1.0000
  H   H455      1.0  0.00467  0.17326  0.63094  1.0000
  N   N28       1.0  0.12313  0.15309  0.61485  1.0000
  H   H456      1.0  0.25480  0.12040  0.72135  1.0000
  H   H457      1.0  0.00789  0.09899  0.66285  1.0000
  H   H458      1.0  0.11803  0.15130  0.63682  1.0000
  H   H459      1.0  0.03397  0.18127  0.63982  1.0000
  H   H460      1.0  0.14458  0.21463  0.67883  1.0000
  N   N29       1.0  0.10539  0.13521  0.48690  1.0000
  Fe  Fe62      1.0  0.12059  0.18022  0.72988  1.0000
  H   H461      1.0  0.18942  0.09510  0.63267  1.0000
  C   C280      1.0  0.11602  0.15885  0.62726  1.0000
  H   H462      1.0  0.12072  0.13238  0.62450  1.0000
  H   H463      1.0  0.26275  0.11743  0.70433  1.0000
  H   H464      1.0  0.09065  0.13289  0.50623  1.0000
  C   C281      1.0  0.28506  0.23006  0.65585  1.0000
  C   C282      1.0  0.13832  0.14933  0.61397  1.0000
  H   H465      1.0  0.18182  0.27015  0.62999  1.0000
  H   H466      1.0  0.32708  0.30980  0.60086  1.0000
  C   C283      1.0  0.25274  0.12150  0.71101  1.0000
  C   C284      1.0  0.24472  0.13702  0.69131  1.0000
  C   C285      1.0  0.11393  0.14169  0.49173  1.0000
  H   H467      1.0  0.25944  0.22461  0.66613  1.0000
  H   H468      1.0  0.18749  0.07884  0.63116  1.0000
  H   H469      1.0  0.10745  0.14823  0.49915  1.0000
  H   H470      1.0  0.15939  0.24653  0.72640  1.0000
  H   H471      1.0  0.08371  0.18142  0.71933  1.0000
  C   C286      1.0  0.14120  0.24664  0.71165  1.0000
  H   H472      1.0  0.25802  0.24219  0.65699  1.0000
  H   H473      1.0  0.22547  0.07733  0.61886  1.0000
  C   C287      1.0  0.19197  0.08382  0.63677  1.0000
  H   H474      1.0  0.20488  0.06098  0.65184  1.0000
  N   N30       1.0  0.20716  0.07846  0.63519  1.0000
  S   S116      1.0  0.24102  0.22361  0.59991  1.0000
  H   H475      1.0  0.33135  0.29577  0.63021  1.0000
  C   C288      1.0  0.23398  0.23299  0.62408  1.0000
  H   H476      1.0  0.32142  0.32228  0.63525  1.0000
  H   H477      1.0  0.01934  0.16085  0.62437  1.0000
  N   N31       1.0  0.27576  0.22801  0.64815  1.0000
  C   C289      1.0  0.30708  0.31951  0.66123  1.0000
  H   H478      1.0  0.17396  0.25466  0.62024  1.0000
  H   H479      1.0  0.14275  0.16792  0.49246  1.0000
  C   C290      1.0  0.32329  0.29375  0.62605  1.0000
  C   C291      1.0  0.26882  0.32254  0.67375  1.0000
  H   H480      1.0  0.24006  0.14778  0.68669  1.0000
  S   S117      1.0  0.20256  0.08916  0.72384  1.0000
  H   H481      1.0  0.27252  0.21165  0.64091  1.0000
  C   C292      1.0  0.31833  0.28603  0.60811  1.0000
  H   H482      1.0  0.27843  0.20632  0.65680  1.0000
  N   N32       1.0  0.02415  0.17989  0.62435  1.0000
  H   H483      1.0  0.32976  0.26078  0.73454  1.0000
  C   C293      1.0  0.19155  0.26925  0.62186  1.0000
  H   H484      1.0  0.28405  0.22343  0.66635  1.0000
  H   H485      1.0  0.29035  0.21083  0.64079  1.0000
  C   C294      1.0  0.26114  0.23131  0.65569  1.0000
  H   H486      1.0  0.32757  0.31754  0.71800  1.0000
  H   H487      1.0  0.29619  0.22772  0.65043  1.0000
  N   N33       1.0  0.19526  0.25580  0.61778  1.0000
  H   H488      1.0  0.07497  0.14723  0.72676  1.0000
  H   H489      1.0  0.28210  0.31966  0.62313  1.0000
  C   C295      1.0  0.14603  0.15684  0.49394  1.0000
  H   H490      1.0  0.31113  0.30827  0.66444  1.0000
  N   N34       1.0  0.15314  0.23545  0.71491  1.0000
  H   H491      1.0  0.10278  0.14706  0.73380  1.0000
  H   H492      1.0  0.33253  0.31043  0.64607  1.0000
  H   H493      1.0  0.22789  0.24124  0.64249  1.0000
  H   H494      1.0  0.28848  0.23586  0.62876  1.0000
  H   H495      1.0  0.03992  0.11080  0.67364  1.0000
  C   C296      1.0  0.16534  0.23647  0.70337  1.0000
  C   C297      1.0  0.02676  0.17560  0.63843  1.0000
  C   C298      1.0  0.01780  0.19476  0.62165  1.0000
  Fe  Fe63      1.0  0.21790  0.10115  0.72410  1.0000
  Fe  Fe64      1.0  0.27666  0.29577  0.61794  1.0000
  S   S118      1.0  0.25519  0.29808  0.63169  1.0000
  S   S119      1.0  0.28446  0.31038  0.59854  1.0000
  S   S120      1.0  0.26817  0.26974  0.65191  1.0000
  Fe  Fe65      1.0  0.25850  0.27516  0.63353  1.0000
  S   S121      1.0  0.24176  0.26317  0.63726  1.0000
  Fe  Fe66      1.0  0.26668  0.29232  0.64883  1.0000
  S   S122      1.0  0.26165  0.30164  0.66746  1.0000
  S   S123      1.0  0.27898  0.27337  0.61820  1.0000
  S   S124      1.0  0.28777  0.29161  0.63501  1.0000
  H   H496      1.0  0.20695  0.26291  0.59751  1.0000
  H   H497      1.0  0.29511  0.27180  0.65862  1.0000
  H   H498      1.0  0.04506  0.18276  0.61513  1.0000
  H   H499      1.0  0.33141  0.31408  0.66900  1.0000
  H   H500      1.0  0.27357  0.24812  0.63518  1.0000
  H   H501      1.0  0.20078  0.23437  0.62708  1.0000
  C   C299      1.0  0.19733  0.24464  0.62992  1.0000
  H   H502      1.0  0.25707  0.26018  0.60944  1.0000
  Fe  Fe67      1.0  0.28830  0.26949  0.63654  1.0000
  H   H503      1.0  0.18990  0.27791  0.61295  1.0000
  H   H504      1.0  0.28272  0.24092  0.65703  1.0000
  S   S125      1.0  0.13388  0.19426  0.72973  1.0000
  S   S126      1.0  0.30761  0.25348  0.63996  1.0000
  C   C300      1.0  0.25071  0.25256  0.61360  1.0000
  H   H505      1.0  0.30556  0.28493  0.66830  1.0000
  H   H506      1.0  0.25663  0.24442  0.59509  1.0000
  H   H507      1.0  0.26678  0.14145  0.69768  1.0000
  H   H508      1.0  0.16478  0.13659  0.72520  1.0000
  H   H509      1.0  0.17447  0.22809  0.70553  1.0000
  C   C301      1.0  0.01458  0.17205  0.62303  1.0000
  H   H510      1.0  0.21692  0.25670  0.61063  1.0000
  H   H511      1.0  0.18751  0.24443  0.63791  1.0000
  H   H512      1.0  0.03041  0.10013  0.64627  1.0000
  C   C302      1.0  0.20827  0.25502  0.60705  1.0000
  H   H513      1.0  0.02703  0.08575  0.68376  1.0000
  C   C303      1.0  0.23418  0.24194  0.63214  1.0000
  H   H514      1.0  0.19995  0.27071  0.62600  1.0000
  H   H515      1.0  0.04257  0.16601  0.61609  1.0000
  C   C304      1.0  0.14945  0.22205  0.71703  1.0000
  H   H516      1.0  0.20530  0.24583  0.63475  1.0000
  H   H517      1.0  0.22597  0.13388  0.71561  1.0000
  C   C305      1.0  0.31474  0.25940  0.65039  1.0000
  H   H518      1.0  0.30971  0.29518  0.60671  1.0000
  H   H519      1.0  0.14693  0.22081  0.70765  1.0000
  C   C306      1.0  0.24243  0.25182  0.62689  1.0000
  C   C307      1.0  0.30625  0.26934  0.65772  1.0000
  C   C308      1.0  0.07741  0.17336  0.72259  1.0000
  H   H520      1.0  0.18199  0.26249  0.60316  1.0000
  C   C309      1.0  0.03157  0.08876  0.67260  1.0000
  C   C310      1.0  0.18389  0.25429  0.61234  1.0000
  H   H521      1.0  0.01695  0.17740  0.64634  1.0000
  H   H522      1.0  0.03600  0.18031  0.60355  1.0000
  H   H523      1.0  0.00567  0.11627  0.66477  1.0000
  H   H524      1.0  0.31371  0.27765  0.61565  1.0000
  H   H525      1.0  0.13184  0.24614  0.72022  1.0000
  H   H526      1.0  0.02359  0.11007  0.68561  1.0000
  H   H527      1.0  0.07720  0.17029  0.71309  1.0000
  H   H528      1.0  0.24552  0.11465  0.71226  1.0000
  H   H529      1.0  0.02958  0.08168  0.66722  1.0000
  C   C311      1.0  0.03222  0.10681  0.65220  1.0000
  H   H530      1.0  0.25467  0.13357  0.68420  1.0000
  H   H531      1.0  0.26866  0.31609  0.68393  1.0000
  C   C312      1.0  0.09771  0.12662  0.49878  1.0000
  C   C313      1.0  0.32909  0.25581  0.64993  1.0000
  H   H532      1.0  0.31848  0.28577  0.63397  1.0000
  C   C314      1.0  0.03748  0.17716  0.61432  1.0000
  S   S127      1.0  0.10965  0.23069  0.73402  1.0000
  C   C315      1.0  0.32751  0.32144  0.64300  1.0000
  H   H533      1.0  0.14357  0.25695  0.70992  1.0000
  C   C316      1.0  0.00173  0.14110  0.64522  1.0000
  H   H534      1.0  0.10424  0.16355  0.72300  1.0000
  H   H535      1.0  0.16845  0.24648  0.70141  1.0000
  S   S128      1.0  0.23587  0.09265  0.73513  1.0000
  H   H536      1.0  0.16313  0.23553  0.69369  1.0000
  C   C317      1.0  0.32660  0.27387  0.66203  1.0000
  H   H537      1.0  0.10498  0.11839  0.50440  1.0000
  C   C318      1.0  0.15491  0.13577  0.73225  1.0000
  C   C319      1.0  0.29272  0.32168  0.60192  1.0000
  H   H538      1.0  0.06657  0.17828  0.72702  1.0000
  C   C320      1.0  0.14420  0.14759  0.73359  1.0000
  C   C321      1.0  0.15650  0.23656  0.72759  1.0000
  H   H539      1.0  0.17557  0.18509  0.48933  1.0000
  H   H540      1.0  0.16525  0.22812  0.73057  1.0000
  H   H541      1.0  0.26357  0.32259  0.64260  1.0000
  H   H542      1.0  0.16802  0.17031  0.49358  1.0000
  H   H543      1.0  0.14744  0.23593  0.73644  1.0000
  H   H544      1.0  0.30032  0.32091  0.65390  1.0000
  H   H545      1.0  0.32240  0.28275  0.59807  1.0000
  H   H546      1.0  0.13942  0.99107  0.66521  1.0000
  C   C322      1.0  0.07491  0.15080  0.73608  1.0000
  H   H547      1.0  0.30037  0.32315  0.67058  1.0000
  C   C323      1.0  0.14746  0.99081  0.65592  1.0000
  H   H548      1.0  0.08837  0.15292  0.48656  1.0000
  Fe  Fe68      1.0  0.29376  0.11174  0.78953  1.0000
  S   S129      1.0  0.29502  0.12391  0.76766  1.0000
  Fe  Fe69      1.0  0.26996  0.13254  0.80157  1.0000
  S   S130      1.0  0.26943  0.14642  0.78109  1.0000
  S   S131      1.0  0.25406  0.14014  0.81915  1.0000
  Fe  Fe70      1.0  0.27151  0.12749  0.77327  1.0000
  S   S132      1.0  0.25463  0.13207  0.76119  1.0000
  C   C324      1.0  0.09606  0.32191  0.82190  1.0000
  S   S133      1.0  0.27052  0.11382  0.79429  1.0000
  S   S134      1.0  0.29301  0.12938  0.79874  1.0000
  H   H549      1.0  0.30528  0.14317  0.88135  1.0000
  C   C325      1.0  0.17561  0.30240  0.81628  1.0000
  H   H550      1.0  0.13858  0.11196  0.75580  1.0000
  C   C326      1.0  0.23664  0.12461  0.75076  1.0000
  H   H551      1.0  0.32214  0.13635  0.77939  1.0000
  N   N35       1.0  0.27875  0.17837  0.80568  1.0000
  H   H552      1.0  0.31793  0.11874  0.84425  1.0000
  H   H553      1.0  0.29808  0.18507  0.80064  1.0000
  H   H554      1.0  0.28236  0.18246  0.82365  1.0000
  C   C327      1.0  0.27035  0.19234  0.80181  1.0000
  H   H555      1.0  0.01810  0.30780  0.82412  1.0000
  H   H556      1.0  0.14242  0.31260  0.90737  1.0000
  Fe  Fe71      1.0  0.26483  0.19166  0.87672  1.0000
  S   S135      1.0  0.28148  0.17329  0.88245  1.0000
  S   S136      1.0  0.24463  0.19857  0.89092  1.0000
  Fe  Fe72      1.0  0.27907  0.19726  0.84684  1.0000
  S   S137      1.0  0.29721  0.17965  0.84959  1.0000
  S   S138      1.0  0.27505  0.21181  0.82722  1.0000
  Fe  Fe73      1.0  0.28134  0.16777  0.86294  1.0000
  S   S139      1.0  0.28606  0.14573  0.86106  1.0000
  Fe  Fe74      1.0  0.29621  0.18635  0.86883  1.0000
  S   S140      1.0  0.31686  0.18428  0.87372  1.0000
  S   S141      1.0  0.26317  0.18482  0.85844  1.0000
  S   S142      1.0  0.27965  0.20537  0.86474  1.0000
  C   C328      1.0  0.25180  0.22284  0.88939  1.0000
  S   S143      1.0  0.16574  0.10776  0.73922  1.0000
  C   C329      1.0  0.22718  0.22344  0.89358  1.0000
  C   C330      1.0  0.24100  0.21603  0.89166  1.0000
  H   H557      1.0  0.29399  0.18074  0.78674  1.0000
  C   C331      1.0  0.14032  0.32059  0.87299  1.0000
  C   C332      1.0  0.25290  0.09854  0.74839  1.0000
  H   H558      1.0  0.21879  0.21818  0.89545  1.0000
  H   H559      1.0  0.26246  0.21713  0.88823  1.0000
  C   C333      1.0  0.23506  0.23811  0.83388  1.0000
  C   C334      1.0  0.29039  0.21422  0.81515  1.0000
  C   C335      1.0  0.29075  0.22690  0.80602  1.0000
  C   C336      1.0  0.24042  0.10302  0.74365  1.0000
  S   S144      1.0  0.30719  0.09148  0.79724  1.0000
  H   H560      1.0  0.20888  0.31547  0.91586  1.0000
  H   H561      1.0  0.29638  0.17718  0.92305  1.0000
  H   H562      1.0  0.14023  0.21167  0.76708  1.0000
  C   C337      1.0  0.25731  0.10713  0.75418  1.0000
  C   C338      1.0  0.15172  0.31391  0.92332  1.0000
  H   H563      1.0  0.12180  0.29582  0.87968  1.0000
  C   C339      1.0  0.11607  0.27996  0.83251  1.0000
  C   C340      1.0  0.22418  0.23772  0.89267  1.0000
  H   H564      1.0  0.28244  0.13973  0.89520  1.0000
  H   H565      1.0  0.19084  0.31595  0.92369  1.0000
  H   H566      1.0  0.28295  0.14979  0.90680  1.0000
  H   H567      1.0  0.30191  0.19362  0.82123  1.0000
  C   C341      1.0  0.30311  0.22908  0.79656  1.0000
  C   C342      1.0  0.27644  0.14337  0.85047  1.0000
  C   C343      1.0  0.26356  0.15211  0.84907  1.0000
  C   C344      1.0  0.25645  0.15076  0.83980  1.0000
  C   C345      1.0  0.26231  0.14080  0.83174  1.0000
  C   C346      1.0  0.27501  0.13181  0.83340  1.0000
  C   C347      1.0  0.28197  0.13299  0.84288  1.0000
  H   H568      1.0  0.25898  0.15980  0.85528  1.0000
  H   H569      1.0  0.24651  0.15759  0.83870  1.0000
  H   H570      1.0  0.27932  0.12375  0.82758  1.0000
  H   H571      1.0  0.29169  0.12591  0.84428  1.0000
  C   C348      1.0  0.24927  0.12030  0.75515  1.0000
  C   C349      1.0  0.21530  0.31825  0.83162  1.0000
  H   H572      1.0  0.30619  0.15349  0.89249  1.0000
  C   C350      1.0  0.27818  0.17506  0.82064  1.0000
  C   C351      1.0  0.19964  0.29759  0.80423  1.0000
  H   H573      1.0  0.06386  0.15481  0.74081  1.0000
  H   H574      1.0  0.20665  0.31867  0.88628  1.0000
  H   H575      1.0  0.25932  0.19320  0.80753  1.0000
  H   H576      1.0  0.11991  0.13269  0.75835  1.0000
  C   C352      1.0  0.31805  0.15850  0.77383  1.0000
  C   C353      1.0  0.31721  0.16497  0.91881  1.0000
  C   C354      1.0  0.30477  0.11971  0.90056  1.0000
  S   S145      1.0  0.31751  0.15882  0.93632  1.0000
  C   C355      1.0  0.31676  0.17653  0.89102  1.0000
  C   C356      1.0  0.30504  0.17990  0.90124  1.0000
  C   C357      1.0  0.30532  0.17421  0.91512  1.0000
  S   S146      1.0  0.30181  0.16047  0.76998  1.0000
  H   H577      1.0  0.29589  0.18723  0.89849  1.0000
  N   N36       1.0  0.22659  0.12730  0.80000  1.0000
  C   C358      1.0  0.23295  0.13927  0.79286  1.0000
  C   C359      1.0  0.23081  0.12140  0.81335  1.0000
  C   C360      1.0  0.23134  0.11682  0.79138  1.0000
  C   C361      1.0  0.21126  0.13177  0.80238  1.0000
  H   H578      1.0  0.23013  0.14397  0.78267  1.0000
  H   H579      1.0  0.24448  0.13619  0.79088  1.0000
  H   H580      1.0  0.22977  0.14736  0.79909  1.0000
  H   H581      1.0  0.22618  0.11236  0.81910  1.0000
  H   H582      1.0  0.24232  0.11795  0.81192  1.0000
  H   H583      1.0  0.22760  0.12912  0.82001  1.0000
  H   H584      1.0  0.22696  0.10751  0.79648  1.0000
  H   H585      1.0  0.24290  0.11345  0.78907  1.0000
  H   H586      1.0  0.22823  0.12093  0.78128  1.0000
  H   H587      1.0  0.20611  0.12297  0.80771  1.0000
  H   H588      1.0  0.20777  0.13632  0.79249  1.0000
  H   H589      1.0  0.20733  0.13969  0.80884  1.0000
  H   H590      1.0  0.26728  0.17554  0.82664  1.0000
  C   C362      1.0  0.30559  0.13390  0.91549  1.0000
  C   C363      1.0  0.30221  0.20354  0.81446  1.0000
  C   C364      1.0  0.13373  0.22081  0.76223  1.0000
  H   H591      1.0  0.30294  0.14444  0.91765  1.0000
  H   H592      1.0  0.16455  0.30631  0.81538  1.0000
  H   H593      1.0  0.27446  0.20025  0.80411  1.0000
  C   C365      1.0  0.29333  0.17784  0.79805  1.0000
  Fe  Fe75      1.0  0.29256  0.14173  0.77746  1.0000
  C   C366      1.0  0.18165  0.29412  0.79519  1.0000
  C   C367      1.0  0.12629  0.21976  0.75307  1.0000
  H   H594      1.0  0.07205  0.17025  0.75021  1.0000
  H   H595      1.0  0.14396  0.32276  0.92612  1.0000
  C   C368      1.0  0.30850  0.14277  0.89097  1.0000
  N   N37       1.0  0.30123  0.13389  0.90293  1.0000
  N   N38       1.0  0.23420  0.23660  0.84871  1.0000
  H   H596      1.0  0.17659  0.29172  0.82250  1.0000
  H   H597      1.0  0.28018  0.13259  0.91337  1.0000
  H   H598      1.0  0.31077  0.14416  0.83739  1.0000
  H   H599      1.0  0.25931  0.08847  0.74734  1.0000
  H   H600      1.0  0.25716  0.24230  0.88700  1.0000
  H   H601      1.0  0.18271  0.28325  0.80085  1.0000
  H   H602      1.0  0.24533  0.24014  0.82764  1.0000
  H   H603      1.0  0.21897  0.22398  0.85515  1.0000
  C   C369      1.0  0.24878  0.23706  0.88879  1.0000
  H   H604      1.0  0.25588  0.22704  0.84751  1.0000
  H   H605      1.0  0.12698  0.20983  0.75105  1.0000
  C   C370      1.0  0.28603  0.13922  0.90465  1.0000
  C   C371      1.0  0.31442  0.20559  0.80470  1.0000
  H   H606      1.0  0.27909  0.15758  0.80516  1.0000
  H   H607      1.0  0.27040  0.19508  0.79061  1.0000
  H   H608      1.0  0.31999  0.13897  0.88922  1.0000
  C   C372      1.0  0.12434  0.24534  0.75893  1.0000
  H   H609      1.0  0.28426  0.16451  0.82397  1.0000
  H   H610      1.0  0.30042  0.12719  0.92471  1.0000
  C   C373      1.0  0.19863  0.31595  0.91376  1.0000
  H   H611      1.0  0.26207  0.16846  0.80754  1.0000
  H   H612      1.0  0.10472  0.27504  0.85950  1.0000
  H   H613      1.0  0.29990  0.16731  0.80022  1.0000
  C   C374      1.0  0.31501  0.21846  0.79599  1.0000
  H   H614      1.0  0.27376  0.17025  0.79088  1.0000
  H   H615      1.0  0.22680  0.24678  0.83018  1.0000
  H   H616      1.0  0.26706  0.10369  0.75756  1.0000
  C   C375      1.0  0.27315  0.16826  0.80216  1.0000
  H   H617      1.0  0.21181  0.24216  0.85347  1.0000
  H   H618      1.0  0.22248  0.11948  0.74173  1.0000
  H   H619      1.0  0.31702  0.13011  0.91453  1.0000
  H   H620      1.0  0.31892  0.22372  0.84044  1.0000
  C   C376      1.0  0.32863  0.16100  0.90853  1.0000
  H   H621      1.0  0.33317  0.24663  0.76376  1.0000
  H   H622      1.0  0.30180  0.11939  0.89104  1.0000
  C   C377      1.0  0.22051  0.23373  0.85663  1.0000
  H   H623      1.0  0.14766  0.31505  0.87990  1.0000
  H   H624      1.0  0.24460  0.21523  0.85130  1.0000
  S   S147      1.0  0.11792  0.16083  0.74536  1.0000
  H   H625      1.0  0.17803  0.30874  0.82220  1.0000
  C   C378      1.0  0.13286  0.23359  0.76513  1.0000
  S   S148      1.0  0.16441  0.31523  0.94326  1.0000
  H   H626      1.0  0.32335  0.19722  0.80392  1.0000
  H   H627      1.0  0.32755  0.14583  0.83820  1.0000
  S   S149      1.0  0.14319  0.23439  0.77598  1.0000
  C   C379      1.0  0.23500  0.24456  0.89020  1.0000
  C   C380      1.0  0.09439  0.31274  0.81482  1.0000
  H   H628      1.0  0.24499  0.22362  0.86426  1.0000
  C   C381      1.0  0.24540  0.22512  0.85312  1.0000
  H   H629      1.0  0.31280  0.21388  0.83227  1.0000
  H   H630      1.0  0.30347  0.23902  0.78977  1.0000
  H   H631      1.0  0.29940  0.11271  0.90931  1.0000
  H   H632      1.0  0.18149  0.31863  0.89737  1.0000
  H   H633      1.0  0.15451  0.26255  0.85309  1.0000
  H   H634      1.0  0.21946  0.23271  0.86785  1.0000
  H   H635      1.0  0.23376  0.22860  0.83165  1.0000
  H   H636      1.0  0.28158  0.23516  0.80645  1.0000
  H   H637      1.0  0.31614  0.11529  0.89933  1.0000
  C   C382      1.0  0.11692  0.24429  0.74969  1.0000
  H   H638      1.0  0.21351  0.24340  0.89406  1.0000
  C   C383      1.0  0.11800  0.23151  0.74662  1.0000
  Fe  Fe76      1.0  0.14642  0.26098  0.80831  1.0000
  S   S150      1.0  0.16108  0.25459  0.78948  1.0000
  H   H639      1.0  0.10141  0.27002  0.82080  1.0000
  Fe  Fe77      1.0  0.12543  0.28038  0.79228  1.0000
  S   S151      1.0  0.13795  0.27576  0.77175  1.0000
  S   S152      1.0  0.10434  0.29429  0.79767  1.0000
  Fe  Fe78      1.0  0.14191  0.25369  0.78318  1.0000
  Fe  Fe79      1.0  0.15617  0.27692  0.77938  1.0000
  S   S153      1.0  0.17334  0.28776  0.76703  1.0000
  S   S154      1.0  0.12766  0.25819  0.80299  1.0000
  S   S155      1.0  0.14342  0.28334  0.79883  1.0000
  Fe  Fe80      1.0  0.21291  0.27419  0.87947  1.0000
  S   S156      1.0  0.19577  0.26556  0.87738  1.0000
  Fe  Fe81      1.0  0.20197  0.30293  0.86395  1.0000
  S   S157      1.0  0.18423  0.29670  0.86020  1.0000
  H   H640      1.0  0.11046  0.25342  0.74480  1.0000
  Fe  Fe82      1.0  0.18200  0.28556  0.88223  1.0000
  S   S158      1.0  0.16046  0.29009  0.89520  1.0000
  Fe  Fe83      1.0  0.19967  0.27760  0.85565  1.0000
  S   S159      1.0  0.20243  0.26934  0.83680  1.0000
  S   S160      1.0  0.19879  0.29311  0.88629  1.0000
  S   S161      1.0  0.21778  0.28484  0.85737  1.0000
  C   C384      1.0  0.33305  0.19110  0.83554  1.0000
  H   H641      1.0  0.32544  0.24453  0.74386  1.0000
  H   H642      1.0  0.33249  0.08419  0.83343  1.0000
  C   C385      1.0  0.15286  0.12290  0.74029  1.0000
  C   C386      1.0  0.16099  0.29677  0.90899  1.0000
  C   C387      1.0  0.17181  0.29099  0.91603  1.0000
  C   C388      1.0  0.17245  0.29648  0.92684  1.0000
  C   C389      1.0  0.16253  0.30804  0.93040  1.0000
  H   H643      1.0  0.08900  0.17395  0.74282  1.0000
  C   C390      1.0  0.15085  0.30816  0.91273  1.0000
  H   H644      1.0  0.17956  0.28209  0.91332  1.0000
  H   H645      1.0  0.18075  0.29184  0.93236  1.0000
  H   H646      1.0  0.23501  0.24879  0.86236  1.0000
  C   C391      1.0  0.12467  0.31870  0.86008  1.0000
  H   H647      1.0  0.32114  0.15342  0.82268  1.0000
  H   H648      1.0  0.01249  0.31684  0.84558  1.0000
  C   C392      1.0  0.32850  0.16694  0.89464  1.0000
  H   H649      1.0  0.20708  0.29808  0.79408  1.0000
  S   S162      1.0  0.23163  0.26251  0.88825  1.0000
  H   H650      1.0  0.12169  0.27720  0.82245  1.0000
  H   H651      1.0  0.17480  0.25667  0.81214  1.0000
  C   C393      1.0  0.10546  0.30756  0.80477  1.0000
  C   C394      1.0  0.11781  0.31226  0.80122  1.0000
  S   S163      1.0  0.33061  0.22167  0.78475  1.0000
  N   N39       1.0  0.32812  0.13142  0.82626  1.0000
  C   C395      1.0  0.21738  0.32011  0.81734  1.0000
  H   H652      1.0  0.12606  0.30896  0.79295  1.0000
  H   H653      1.0  0.11999  0.25523  0.84955  1.0000
  H   H654      1.0  0.08468  0.30937  0.81738  1.0000
  C   C396      1.0  0.16806  0.30558  0.76601  1.0000
  C   C397      1.0  0.15401  0.31169  0.77001  1.0000
  C   C398      1.0  0.17810  0.31363  0.76196  1.0000
  H   H655      1.0  0.14621  0.30555  0.77295  1.0000
  H   H656      1.0  0.18898  0.30894  0.75879  1.0000
  C   C399      1.0  0.16323  0.25937  0.83240  1.0000
  C   C400      1.0  0.16358  0.26244  0.84473  1.0000
  C   C401      1.0  0.17562  0.26549  0.84621  1.0000
  C   C402      1.0  0.18743  0.26508  0.83548  1.0000
  C   C403      1.0  0.18716  0.26175  0.82328  1.0000
  C   C404      1.0  0.17500  0.25913  0.82164  1.0000
  H   H657      1.0  0.17581  0.26801  0.85568  1.0000
  H   H658      1.0  0.11131  0.29113  0.83039  1.0000
  H   H659      1.0  0.12359  0.25524  0.76112  1.0000
  N   N40       1.0  0.18508  0.30280  0.80259  1.0000
  C   C405      1.0  0.18341  0.31713  0.79464  1.0000
  H   H660      1.0  0.17075  0.29779  0.79371  1.0000
  C   C406      1.0  0.32094  0.08805  0.81768  1.0000
  H   H661      1.0  0.24612  0.25189  0.84561  1.0000
  H   H662      1.0  0.32806  0.18558  0.84570  1.0000
  H   H663      1.0  0.11978  0.31180  0.85713  1.0000
  H   H664      1.0  0.31708  0.18035  0.76883  1.0000
  C   C407      1.0  0.12960  0.13360  0.75098  1.0000
  C   C408      1.0  0.23219  0.11600  0.74511  1.0000
  H   H665      1.0  0.14133  0.29372  0.85922  1.0000
  H   H666      1.0  0.30902  0.12922  0.82284  1.0000
  C   C409      1.0  0.33230  0.08835  0.82272  1.0000
  C   C410      1.0  0.12649  0.30326  0.88199  1.0000
  H   H667      1.0  0.33321  0.03878  0.82679  1.0000
  H   H668      1.0  0.18863  0.29410  0.78483  1.0000
  H   H669      1.0  0.08961  0.27011  0.85819  1.0000
  C   C411      1.0  0.32306  0.17027  0.77249  1.0000
  H   H670      1.0  0.08767  0.26725  0.83565  1.0000
  C   C412      1.0  0.11249  0.25694  0.84287  1.0000
  N   N41       1.0  0.10551  0.27161  0.83964  1.0000
  C   C413      1.0  0.09767  0.27620  0.85252  1.0000
  C   C414      1.0  0.09582  0.27336  0.83064  1.0000
  C   C415      1.0  0.23583  0.24947  0.85123  1.0000
  C   C416      1.0  0.01162  0.31757  0.81947  1.0000
  H   H671      1.0  0.19631  0.26134  0.81499  1.0000
  S   S164      1.0  0.14802  0.25593  0.83051  1.0000
  H   H672      1.0  0.09055  0.28433  0.82780  1.0000
  N   N42       1.0  0.13425  0.31090  0.86933  1.0000
  C   C417      1.0  0.32052  0.09349  0.80381  1.0000
  C   C418      1.0  0.14552  0.30108  0.86229  1.0000
  H   H673      1.0  0.09229  0.28724  0.85039  1.0000
  H   H674      1.0  0.31938  0.13848  0.80820  1.0000
  C   C419      1.0  0.32856  0.11962  0.83810  1.0000
  H   H675      1.0  0.11862  0.25320  0.83336  1.0000
  C   C420      1.0  0.33132  0.09952  0.79505  1.0000
  H   H676      1.0  0.15181  0.30648  0.85287  1.0000
  H   H677      1.0  0.00745  0.31531  0.81158  1.0000
  H   H678      1.0  0.22764  0.25836  0.84784  1.0000
  H   H679      1.0  0.32711  0.19120  0.82794  1.0000
  H   H680      1.0  0.31254  0.08346  0.82450  1.0000
  H   H681      1.0  0.12405  0.27832  0.83863  1.0000
  H   H682      1.0  0.10488  0.25027  0.84818  1.0000
  H   H683      1.0  0.20245  0.30374  0.81004  1.0000
  H   H684      1.0  0.15276  0.29486  0.86912  1.0000
  H   H685      1.0  0.17262  0.32135  0.79292  1.0000
  C   C421      1.0  0.08285  0.16590  0.74514  1.0000
  H   H686      1.0  0.20137  0.28670  0.80993  1.0000
  C   C422      1.0  0.31987  0.12978  0.81726  1.0000
  H   H687      1.0  0.08749  0.15723  0.75275  1.0000
  H   H688      1.0  0.19060  0.31785  0.78433  1.0000
  C   C423      1.0  0.13157  0.14647  0.74307  1.0000
  H   H689      1.0  0.07911  0.14164  0.74352  1.0000
  C   C424      1.0  0.31905  0.21307  0.83987  1.0000
  H   H690      1.0  0.11792  0.31032  0.88761  1.0000
  C   C425      1.0  0.14017  0.12187  0.74956  1.0000
  H   H691      1.0  0.22091  0.30908  0.83731  1.0000
  H   H692      1.0  0.22446  0.31228  0.81211  1.0000
  H   H693      1.0  0.13338  0.29737  0.88927  1.0000
  H   H694      1.0  0.33319  0.06154  0.81089  1.0000
  H   H695      1.0  0.31358  0.20808  0.85012  1.0000
  H   H696      1.0  0.32449  0.12019  0.81321  1.0000
  C   C426      1.0  0.11951  0.32136  0.80826  1.0000
  H   H697      1.0  0.19932  0.30627  0.91050  1.0000
  H   H698      1.0  0.23029  0.13474  0.75162  1.0000
  C   C427      1.0  0.32590  0.14548  0.77844  1.0000
  C   C428      1.0  0.32160  0.14430  0.83134  1.0000
  N   N43       1.0  0.00025  0.32341  0.83003  1.0000
  H   H699      1.0  0.33105  0.10373  0.78431  1.0000
  N   N44       1.0  0.33343  0.20519  0.83600  1.0000
  C   C429      1.0  0.26709  0.40425  0.20274  1.0000
  H   H700      1.0  0.15441  0.59315  0.07204  1.0000
  Fe  Fe84      1.0  0.24907  0.35300  0.21464  1.0000
  S   S165      1.0  0.22887  0.36687  0.21104  1.0000
  C   C430      1.0  0.13928  0.34371  0.02844  1.0000
  Fe  Fe85      1.0  0.24011  0.38404  0.20466  1.0000
  S   S166      1.0  0.23677  0.40121  0.18636  1.0000
  H   H701      1.0  0.06175  0.32495  0.13576  1.0000
  H   H702      1.0  0.13538  0.34959  0.01904  1.0000
  S   S167      1.0  0.26087  0.36987  0.20604  1.0000
  H   H703      1.0  0.21922  0.64491  0.16744  1.0000
  H   H704      1.0  0.13749  0.39176  0.21785  1.0000
  C   C431      1.0  0.14776  0.36915  0.98945  1.0000
  H   H705      1.0  0.26824  0.40575  0.19143  1.0000
  C   C432      1.0  0.03151  0.61472  0.16500  1.0000
  S   S168      1.0  0.17036  0.65162  0.04480  1.0000
  H   H706      1.0  0.14501  0.32995  0.00813  1.0000
  H   H707      1.0  0.18137  0.36922  0.98850  1.0000
  H   H708      1.0  0.00856  0.35884  0.16836  1.0000
  S   S169      1.0  0.11185  0.36088  0.21581  1.0000
  Fe  Fe86      1.0  0.25573  0.37305  0.22783  1.0000
  H   H709      1.0  0.24099  0.43219  0.20763  1.0000
  H   H710      1.0  0.26421  0.43730  0.20458  1.0000
  Fe  Fe87      1.0  0.08668  0.34868  0.15797  1.0000
  S   S170      1.0  0.07382  0.36991  0.15907  1.0000
  S   S171      1.0  0.09740  0.33430  0.17435  1.0000
  Fe  Fe88      1.0  0.08136  0.34991  0.13008  1.0000
  S   S172      1.0  0.06826  0.37125  0.12866  1.0000
  S   S173      1.0  0.08322  0.33805  0.11417  1.0000
  Fe  Fe89      1.0  0.08478  0.37521  0.13693  1.0000
  S   S174      1.0  0.09575  0.39265  0.12654  1.0000
  Fe  Fe90      1.0  0.05857  0.36378  0.15080  1.0000
  S   S175      1.0  0.03579  0.36518  0.16119  1.0000
  S   S176      1.0  0.09867  0.35433  0.13648  1.0000
  S   S177      1.0  0.07064  0.34208  0.15158  1.0000
  Fe  Fe91      1.0  0.17556  0.35869  0.06626  1.0000
  S   S178      1.0  0.17453  0.37993  0.05311  1.0000
  S   S179      1.0  0.19370  0.34896  0.07651  1.0000
  Fe  Fe92      1.0  0.14799  0.35670  0.06212  1.0000
  S   S180      1.0  0.14425  0.37801  0.04926  1.0000
  S   S181      1.0  0.13404  0.34270  0.06358  1.0000
  Fe  Fe93      1.0  0.16667  0.37217  0.03880  1.0000
  S   S182      1.0  0.17477  0.37483  0.01571  1.0000
  Fe  Fe94      1.0  0.15237  0.38367  0.06481  1.0000
  S   S183      1.0  0.14219  0.40182  0.07501  1.0000
  S   S184      1.0  0.17000  0.35048  0.05091  1.0000
  S   S185      1.0  0.15380  0.36281  0.07876  1.0000
  Fe  Fe95      1.0  0.16714  0.42171  0.16047  1.0000
  S   S186      1.0  0.14691  0.43727  0.16307  1.0000
  S   S187      1.0  0.17482  0.41047  0.17993  1.0000
  Fe  Fe96      1.0  0.16598  0.42094  0.13123  1.0000
  S   S188      1.0  0.17668  0.40873  0.11458  1.0000
  Fe  Fe97      1.0  0.13947  0.42433  0.15334  1.0000
  S   S189      1.0  0.12084  0.41491  0.16398  1.0000
  S   S190      1.0  0.17617  0.43305  0.13943  1.0000
  S   S191      1.0  0.15911  0.40828  0.15201  1.0000
  H   H711      1.0  0.15891  0.57006  0.21870  1.0000
  C   C433      1.0  0.16415  0.37343  0.00539  1.0000
  H   H712      1.0  0.12134  0.39324  0.21310  1.0000
  C   C434      1.0  0.14160  0.37294  0.00219  1.0000
  C   C435      1.0  0.14976  0.37490  0.01021  1.0000
  H   H713      1.0  0.13048  0.37407  0.00602  1.0000
  H   H714      1.0  0.14492  0.37756  0.02012  1.0000
  C   C436      1.0  0.16728  0.40780  0.10290  1.0000
  C   C437      1.0  0.15413  0.41622  0.10204  1.0000
  C   C438      1.0  0.14665  0.41465  0.09313  1.0000
  C   C439      1.0  0.15219  0.40450  0.08519  1.0000
  C   C440      1.0  0.16535  0.39612  0.08603  1.0000
  C   C441      1.0  0.17292  0.39788  0.09472  1.0000
  H   H715      1.0  0.14971  0.42396  0.10822  1.0000
  H   H716      1.0  0.13648  0.42117  0.09255  1.0000
  H   H717      1.0  0.16973  0.38823  0.08001  1.0000
  H   H718      1.0  0.18310  0.39134  0.09528  1.0000
  C   C442      1.0  0.10304  0.39842  0.13701  1.0000
  C   C443      1.0  0.10012  0.39393  0.15131  1.0000
  C   C444      1.0  0.10568  0.39901  0.15951  1.0000
  C   C445      1.0  0.11442  0.40837  0.15343  1.0000
  C   C446      1.0  0.11776  0.41246  0.13909  1.0000
  C   C447      1.0  0.11194  0.40763  0.13091  1.0000
  H   H719      1.0  0.09330  0.38684  0.15610  1.0000
  H   H720      1.0  0.10307  0.39581  0.17060  1.0000
  H   H721      1.0  0.12447  0.41971  0.13433  1.0000
  H   H722      1.0  0.11424  0.41117  0.11985  1.0000
  C   C448      1.0  0.09747  0.33965  0.10029  1.0000
  C   C449      1.0  0.04710  0.34497  0.11938  1.0000
  C   C450      1.0  0.11053  0.33403  0.07838  1.0000
  C   C451      1.0  0.12006  0.34179  0.07778  1.0000
  C   C452      1.0  0.11829  0.34855  0.08844  1.0000
  C   C453      1.0  0.10698  0.34745  0.09973  1.0000
  H   H723      1.0  0.14510  0.60561  0.14030  1.0000
  C   C454      1.0  0.15942  0.63344  0.99212  1.0000
  H   H724      1.0  0.12573  0.35441  0.08808  1.0000
  H   H725      1.0  0.10570  0.35250  0.10802  1.0000
  N   N45       1.0  0.15148  0.33256  0.02528  1.0000
  C   C455      1.0  0.02686  0.37143  0.13682  1.0000
  H   H726      1.0  0.03649  0.37482  0.13191  1.0000
  C   C456      1.0  0.10791  0.35371  0.20408  1.0000
  C   C457      1.0  0.10290  0.36216  0.19261  1.0000
  C   C458      1.0  0.09994  0.35629  0.18319  1.0000
  C   C459      1.0  0.10163  0.34201  0.18547  1.0000
  C   C460      1.0  0.10669  0.33360  0.19689  1.0000
  C   C461      1.0  0.10996  0.33942  0.20610  1.0000
  H   H727      1.0  0.09632  0.36283  0.17422  1.0000
  C   C462      1.0  0.03544  0.32717  0.12040  1.0000
  C   C463      1.0  0.18364  0.33706  0.12333  1.0000
  C   C464      1.0  0.17452  0.33592  0.11591  1.0000
  C   C465      1.0  0.17718  0.34018  0.10152  1.0000
  C   C466      1.0  0.18896  0.34560  0.09455  1.0000
  C   C467      1.0  0.19773  0.34726  0.10205  1.0000
  C   C468      1.0  0.19507  0.34302  0.11642  1.0000
  N   N46       1.0  0.18011  0.57247  0.21269  1.0000
  C   C469      1.0  0.16330  0.33858  0.01643  1.0000
  H   H728      1.0  0.20670  0.35170  0.09671  1.0000
  H   H729      1.0  0.20192  0.34431  0.12213  1.0000
  C   C470      1.0  0.21933  0.40506  0.18470  1.0000
  C   C471      1.0  0.21574  0.41190  0.17204  1.0000
  C   C472      1.0  0.20200  0.41395  0.17044  1.0000
  C   C473      1.0  0.19184  0.40928  0.18157  1.0000
  C   C474      1.0  0.19540  0.40277  0.19429  1.0000
  C   C475      1.0  0.20907  0.40066  0.19586  1.0000
  H   H730      1.0  0.22363  0.41531  0.16337  1.0000
  H   H731      1.0  0.19932  0.41898  0.16059  1.0000
  H   H732      1.0  0.18758  0.39917  0.20295  1.0000
  H   H733      1.0  0.21167  0.39554  0.20572  1.0000
  C   C476      1.0  0.09125  0.65040  0.21334  1.0000
  H   H734      1.0  0.19599  0.55658  0.22106  1.0000
  N   N47       1.0  0.13947  0.39133  0.19668  1.0000
  H   H735      1.0  0.11188  0.32878  0.07016  1.0000
  H   H736      1.0  0.15984  0.38805  0.20071  1.0000
  H   H737      1.0  0.21364  0.34667  0.23230  1.0000
  C   C477      1.0  0.23988  0.61120  0.23409  1.0000
  C   C478      1.0  0.25285  0.34388  0.18220  1.0000
  C   C479      1.0  0.25046  0.34391  0.16942  1.0000
  C   C480      1.0  0.24514  0.33335  0.16791  1.0000
  H   H738      1.0  0.24728  0.42434  0.19281  1.0000
  C   C481      1.0  0.04855  0.34819  0.21415  1.0000
  H   H739      1.0  0.25689  0.35208  0.18336  1.0000
  H   H740      1.0  0.25266  0.35218  0.16072  1.0000
  H   H741      1.0  0.15983  0.38664  0.18383  1.0000
  H   H742      1.0  0.17184  0.65243  0.16348  1.0000
  H   H743      1.0  0.13325  0.37694  0.21523  1.0000
  S   S192      1.0  0.14564  0.43621  0.13188  1.0000
  Fe  Fe98      1.0  0.15519  0.44780  0.14143  1.0000
  H   H744      1.0  0.15065  0.35191  0.13548  1.0000
  H   H745      1.0  0.21206  0.63052  0.05673  1.0000
  N   N48       1.0  0.10291  0.39408  0.08511  1.0000
  C   C482      1.0  0.11526  0.38676  0.07651  1.0000
  C   C483      1.0  0.10716  0.40353  0.09098  1.0000
  C   C484      1.0  0.09649  0.38396  0.09637  1.0000
  C   C485      1.0  0.09274  0.40207  0.07657  1.0000
  H   H746      1.0  0.12336  0.38102  0.08253  1.0000
  H   H747      1.0  0.12017  0.39410  0.06772  1.0000
  H   H748      1.0  0.11259  0.37923  0.07219  1.0000
  H   H749      1.0  0.09815  0.40908  0.09774  1.0000
  H   H750      1.0  0.11499  0.39788  0.09734  1.0000
  H   H751      1.0  0.11199  0.41136  0.08277  1.0000
  H   H752      1.0  0.10385  0.37794  0.10313  1.0000
  H   H753      1.0  0.09332  0.37654  0.09235  1.0000
  H   H754      1.0  0.08707  0.38912  0.10303  1.0000
  H   H755      1.0  0.09729  0.40981  0.06798  1.0000
  H   H756      1.0  0.08329  0.40773  0.08278  1.0000
  H   H757      1.0  0.08935  0.39525  0.07196  1.0000
  H   H758      1.0  0.14332  0.40904  0.18089  1.0000
  H   H759      1.0  0.13859  0.60469  0.06826  1.0000
  C   C486      1.0  0.13824  0.40636  0.19194  1.0000
  N   N49       1.0  0.20855  0.36621  0.17647  1.0000
  C   C487      1.0  0.21868  0.37496  0.17389  1.0000
  C   C488      1.0  0.21188  0.35389  0.18720  1.0000
  C   C489      1.0  0.20930  0.36198  0.16364  1.0000
  C   C490      1.0  0.19435  0.37400  0.18122  1.0000
  H   H760      1.0  0.21867  0.37797  0.18347  1.0000
  H   H761      1.0  0.21625  0.38461  0.16618  1.0000
  H   H762      1.0  0.22948  0.36951  0.17004  1.0000
  H   H763      1.0  0.21173  0.35679  0.19687  1.0000
  H   H764      1.0  0.20431  0.34714  0.18966  1.0000
  H   H765      1.0  0.22239  0.34764  0.18397  1.0000
  H   H766      1.0  0.20200  0.35511  0.16530  1.0000
  H   H767      1.0  0.21995  0.35624  0.15969  1.0000
  H   H768      1.0  0.20665  0.37105  0.15538  1.0000
  H   H769      1.0  0.18644  0.36777  0.18304  1.0000
  H   H770      1.0  0.19158  0.38361  0.17357  1.0000
  H   H771      1.0  0.19335  0.37701  0.19110  1.0000
  N   N50       1.0  0.14743  0.37367  0.12714  1.0000
  C   C491      1.0  0.14501  0.35992  0.12812  1.0000
  C   C492      1.0  0.16255  0.37328  0.12294  1.0000
  C   C493      1.0  0.14187  0.37770  0.14065  1.0000
  C   C494      1.0  0.14025  0.38381  0.11683  1.0000
  H   H772      1.0  0.14877  0.35686  0.11794  1.0000
  H   H773      1.0  0.13372  0.35975  0.13156  1.0000
  H   H774      1.0  0.16702  0.37084  0.11252  1.0000
  H   H775      1.0  0.16480  0.38337  0.12257  1.0000
  H   H776      1.0  0.16838  0.36538  0.13022  1.0000
  H   H777      1.0  0.13045  0.37824  0.14407  1.0000
  H   H778      1.0  0.14353  0.38810  0.14015  1.0000
  H   H779      1.0  0.14705  0.37033  0.14870  1.0000
  H   H780      1.0  0.12890  0.38398  0.11939  1.0000
  H   H781      1.0  0.14458  0.38153  0.10635  1.0000
  H   H782      1.0  0.14134  0.39438  0.11630  1.0000
  H   H783      1.0  0.14335  0.41050  0.19774  1.0000
  H   H784      1.0  0.19974  0.63642  0.09815  1.0000
  H   H785      1.0  0.12716  0.41197  0.19299  1.0000
  H   H786      1.0  0.17405  0.59186  0.21908  1.0000
  S   S193      1.0  0.16784  0.61451  0.23244  1.0000
  C   C495      1.0  0.13261  0.38820  0.21138  1.0000
  H   H787      1.0  0.15574  0.37304  0.19837  1.0000
  H   H788      1.0  0.15329  0.57283  0.09127  1.0000
  C   C496      1.0  0.15436  0.38441  0.19483  1.0000
  C   C497      1.0  0.17025  0.37028  0.99234  1.0000
  H   H789      1.0  0.15957  0.47065  0.15836  1.0000
  C   C498      1.0  0.13266  0.38635  0.18856  1.0000
  H   H790      1.0  0.18463  0.59218  0.20207  1.0000
  H   H791      1.0  0.13755  0.38857  0.17739  1.0000
  H   H792      1.0  0.12144  0.39152  0.18961  1.0000
  C   C499      1.0  0.02378  0.36659  0.15107  1.0000
  H   H793      1.0  0.19118  0.57197  0.22791  1.0000
  N   N51       1.0  0.04310  0.33205  0.12778  1.0000
  H   H794      1.0  0.04317  0.35629  0.22025  1.0000
  H   H795      1.0  0.13320  0.37507  0.19199  1.0000
  H   H796      1.0  0.16703  0.62391  0.99142  1.0000
  H   H797      1.0  0.01978  0.37595  0.11790  1.0000
  S   S194      1.0  0.15245  0.47090  0.13255  1.0000
  H   H798      1.0  0.04193  0.32524  0.11024  1.0000
  H   H799      1.0  0.16605  0.34555  0.02141  1.0000
  H   H800      1.0  0.10147  0.37322  0.19093  1.0000
  S   S195      1.0  0.04411  0.64317  0.17503  1.0000
  H   H801      1.0  0.04769  0.60431  0.13490  1.0000
  H   H802      1.0  0.18537  0.55594  0.20184  1.0000
  H   H803      1.0  0.15817  0.33050  0.04387  1.0000
  H   H804      1.0  0.17383  0.57116  0.19483  1.0000
  N   N52       1.0  0.05508  0.35420  0.19997  1.0000
  H   H805      1.0  0.22203  0.64580  0.07327  1.0000
  H   H806      1.0  0.14242  0.58364  0.10288  1.0000
  H   H807      1.0  0.03788  0.35294  0.11681  1.0000
  C   C500      1.0  0.17616  0.58765  0.20966  1.0000
  H   H808      1.0  0.22419  0.62329  0.06792  1.0000
  C   C501      1.0  0.21092  0.64833  0.07252  1.0000
  S   S196      1.0  0.24231  0.33358  0.15185  1.0000
  S   S197      1.0  0.25435  0.33226  0.20908  1.0000
  C   C502      1.0  0.21950  0.65562  0.16354  1.0000
  C   C503      1.0  0.19279  0.56800  0.21842  1.0000
  H   H809      1.0  0.14186  0.35111  0.03300  1.0000
  H   H810      1.0  0.05462  0.33725  0.19172  1.0000
  C   C504      1.0  0.01107  0.36252  0.15733  1.0000
  C   C505      1.0  0.12115  0.59332  0.09015  1.0000
  H   H811      1.0  0.21966  0.33343  0.08268  1.0000
  H   H812      1.0  0.09194  0.32692  0.09000  1.0000
  H   H813      1.0  0.13663  0.56945  0.10114  1.0000
  H   H814      1.0  0.19091  0.52461  0.13774  1.0000
  H   H815      1.0  0.26208  0.60352  0.23119  1.0000
  N   N53       1.0  0.26030  0.41714  0.20769  1.0000
  S   S198      1.0  0.17714  0.34911  0.20906  1.0000
  Fe  Fe99      1.0  0.15902  0.34006  0.22163  1.0000
  H   H816      1.0  0.03691  0.62319  0.16356  1.0000
  C   C506      1.0  0.18425  0.35453  0.21979  1.0000
  H   H817      1.0  0.03674  0.60565  0.17184  1.0000
  H   H818      1.0  0.20172  0.57188  0.21089  1.0000
  C   C507      1.0  0.24836  0.65143  0.23557  1.0000
  H   H819      1.0  0.27047  0.42966  0.18967  1.0000
  C   C508      1.0  0.11542  0.64222  0.21486  1.0000
  C   C509      1.0  0.01735  0.37209  0.12891  1.0000
  H   H820      1.0  0.19431  0.50234  0.10707  1.0000
  C   C510      1.0  0.00485  0.36762  0.13507  1.0000
  H   H821      1.0  0.13021  0.58519  0.06602  1.0000
  N   N54       1.0  0.20497  0.63590  0.07664  1.0000
  H   H822      1.0  0.25361  0.42386  0.22698  1.0000
  C   C511      1.0  0.20342  0.35206  0.23047  1.0000
  C   C512      1.0  0.14077  0.33193  0.17207  1.0000
  C   C513      1.0  0.25869  0.41440  0.22280  1.0000
  C   C514      1.0  0.19734  0.34748  0.22238  1.0000
  C   C515      1.0  0.06209  0.34307  0.19231  1.0000
  C   C516      1.0  0.06542  0.36162  0.20042  1.0000
  C   C517      1.0  0.15656  0.48123  0.15314  1.0000
  H   H823      1.0  0.03642  0.35861  0.19218  1.0000
  C   C518      1.0  0.21295  0.62613  0.06764  1.0000
  H   H824      1.0  0.17049  0.33868  0.09576  1.0000
  C   C519      1.0  0.00664  0.64645  0.16502  1.0000
  C   C520      1.0  0.04425  0.36389  0.19302  1.0000
  H   H825      1.0  0.27954  0.42369  0.20355  1.0000
  H   H826      1.0  0.26083  0.39631  0.20770  1.0000
  H   H827      1.0  0.14597  0.57357  0.06987  1.0000
  H   H828      1.0  0.14679  0.33814  0.16308  1.0000
  H   H829      1.0  0.12947  0.64638  0.09104  1.0000
  H   H830      1.0  0.27755  0.39985  0.20527  1.0000
  C   C521      1.0  0.17692  0.52132  0.12073  1.0000
  H   H831      1.0  0.20287  0.33854  0.21802  1.0000
  H   H832      1.0  0.11418  0.63137  0.21834  1.0000
  H   H833      1.0  0.17006  0.52454  0.13021  1.0000
  H   H834      1.0  0.18987  0.65310  0.16054  1.0000
  H   H835      1.0  0.16078  0.34476  0.00646  1.0000
  C   C522      1.0  0.18291  0.56738  0.19988  1.0000
  C   C523      1.0  0.26902  0.42743  0.20107  1.0000
  H   H836      1.0  0.05446  0.34332  0.10951  1.0000
  H   H837      1.0  0.06709  0.34722  0.18156  1.0000
  C   C524      1.0  0.15239  0.48407  0.14065  1.0000
  H   H838      1.0  0.18217  0.50352  0.14428  1.0000
  Fe  Fe100     1.0  0.13829  0.63685  0.06694  1.0000
  S   S199      1.0  0.15610  0.63635  0.07582  1.0000
  S   S200      1.0  0.11997  0.62828  0.08047  1.0000
  H   H839      1.0  0.19197  0.57092  0.19229  1.0000
  H   H840      1.0  0.01430  0.64430  0.17121  1.0000
  Fe  Fe101     1.0  0.16935  0.63000  0.05655  1.0000
  S   S201      1.0  0.18859  0.61324  0.05794  1.0000
  S   S202      1.0  0.15158  0.62860  0.04845  1.0000
  Fe  Fe102     1.0  0.16649  0.56101  0.12398  1.0000
  S   S203      1.0  0.17027  0.55187  0.14530  1.0000
  S   S204      1.0  0.18424  0.56005  0.10552  1.0000
  Fe  Fe103     1.0  0.13523  0.56803  0.13405  1.0000
  S   S205      1.0  0.13630  0.55917  0.15614  1.0000
  S   S206      1.0  0.11657  0.58007  0.12535  1.0000
  Fe  Fe104     1.0  0.15393  0.57002  0.15144  1.0000
  S   S207      1.0  0.15254  0.58475  0.16485  1.0000
  Fe  Fe105     1.0  0.15244  0.54174  0.14802  1.0000
  S   S208      1.0  0.15529  0.51918  0.15884  1.0000
  S   S209      1.0  0.15179  0.57994  0.12981  1.0000
  S   S210      1.0  0.14975  0.54983  0.12623  1.0000
  H   H841      1.0  0.19824  0.49371  0.13629  1.0000
  C   C525      1.0  0.13525  0.57861  0.07455  1.0000
  H   H842      1.0  0.14379  0.60408  0.08366  1.0000
  H   H843      1.0  0.23280  0.32643  0.10081  1.0000
  Fe  Fe106     1.0  0.06247  0.62996  0.16353  1.0000
  S   S211      1.0  0.06685  0.60684  0.16857  1.0000
  S   S212      1.0  0.05956  0.64181  0.14259  1.0000
  C   C526      1.0  0.09809  0.64892  0.23443  1.0000
  C   C527      1.0  0.15701  0.49210  0.15880  1.0000
  Fe  Fe107     1.0  0.20188  0.63808  0.19480  1.0000
  S   S213      1.0  0.18616  0.62660  0.19466  1.0000
  Fe  Fe108     1.0  0.21878  0.61375  0.21133  1.0000
  S   S214      1.0  0.20471  0.59981  0.21267  1.0000
  Fe  Fe109     1.0  0.20451  0.60941  0.19046  1.0000
  S   S215      1.0  0.20633  0.59613  0.17545  1.0000
  H   H844      1.0  0.20768  0.51541  0.13020  1.0000
  S   S216      1.0  0.22034  0.62169  0.18859  1.0000
  S   S217      1.0  0.20121  0.63095  0.21744  1.0000
  H   H845      1.0  0.14516  0.50016  0.12441  1.0000
  H   H846      1.0  0.11961  0.60447  0.16335  1.0000
  C   C528      1.0  0.25042  0.33299  0.19334  1.0000
  H   H847      1.0  0.03859  0.37235  0.19858  1.0000
  H   H848      1.0  0.27463  0.63768  0.23545  1.0000
  H   H849      1.0  0.01437  0.62750  0.14718  1.0000
  S   S218      1.0  0.07791  0.64112  0.16474  1.0000
  H   H850      1.0  0.11574  0.60036  0.08207  1.0000
  C   C529      1.0  0.15325  0.50589  0.15207  1.0000
  H   H851      1.0  0.11378  0.33284  0.21497  1.0000
  C   C530      1.0  0.24646  0.42243  0.20412  1.0000
  H   H852      1.0  0.20964  0.50242  0.11238  1.0000
  H   H853      1.0  0.13058  0.33247  0.16970  1.0000
  C   C531      1.0  0.14880  0.50873  0.13974  1.0000
  H   H854      1.0  0.20100  0.51778  0.10231  1.0000
  C   C532      1.0  0.00805  0.65576  0.15237  1.0000
  H   H855      1.0  0.14564  0.51927  0.13457  1.0000
  C   C533      1.0  0.08049  0.59928  0.15649  1.0000
  C   C534      1.0  0.08324  0.60604  0.14268  1.0000
  C   C535      1.0  0.09394  0.59977  0.13308  1.0000
  C   C536      1.0  0.10246  0.58705  0.13738  1.0000
  C   C537      1.0  0.09984  0.58031  0.15119  1.0000
  C   C538      1.0  0.08868  0.58630  0.16068  1.0000
  H   H856      1.0  0.07706  0.61604  0.13929  1.0000
  H   H857      1.0  0.09587  0.60498  0.12238  1.0000
  H   H858      1.0  0.10623  0.57037  0.15454  1.0000
  H   H859      1.0  0.08657  0.58098  0.17134  1.0000
  C   C539      1.0  0.16770  0.58858  0.16659  1.0000
  C   C540      1.0  0.16632  0.59882  0.17381  1.0000
  C   C541      1.0  0.17814  0.60168  0.17604  1.0000
  C   C542      1.0  0.19141  0.59416  0.17125  1.0000
  C   C543      1.0  0.19281  0.58418  0.16370  1.0000
  C   C544      1.0  0.18099  0.58139  0.16137  1.0000
  H   H860      1.0  0.15606  0.60445  0.17783  1.0000
  H   H861      1.0  0.17693  0.60950  0.18169  1.0000
  H   H862      1.0  0.20305  0.57836  0.15992  1.0000
  H   H863      1.0  0.18215  0.57351  0.15576  1.0000
  H   H864      1.0  0.05207  0.59768  0.15154  1.0000
  C   C545      1.0  0.19926  0.50868  0.11073  1.0000
  C   C546      1.0  0.02444  0.60058  0.15403  1.0000
  Fe  Fe110     1.0  0.12796  0.34509  0.22590  1.0000
  C   C547      1.0  0.15738  0.63964  0.00336  1.0000
  C   C548      1.0  0.20567  0.62930  0.09109  1.0000
  H   H865      1.0  0.16343  0.63492  0.01119  1.0000
  C   C549      1.0  0.11258  0.63629  0.09456  1.0000
  C   C550      1.0  0.09970  0.63424  0.10300  1.0000
  H   H866      1.0  0.17278  0.33052  0.01402  1.0000
  C   C551      1.0  0.09354  0.64119  0.11391  1.0000
  H   H867      1.0  0.23330  0.32466  0.07101  1.0000
  C   C552      1.0  0.14232  0.57776  0.09532  1.0000
  H   H868      1.0  0.09432  0.62760  0.10087  1.0000
  H   H869      1.0  0.02060  0.61790  0.17058  1.0000
  H   H870      1.0  0.26893  0.41016  0.22585  1.0000
  C   C553      1.0  0.18699  0.59873  0.07142  1.0000
  C   C554      1.0  0.17556  0.59888  0.08260  1.0000
  C   C555      1.0  0.17467  0.58713  0.09324  1.0000
  C   C556      1.0  0.18514  0.57516  0.09267  1.0000
  C   C557      1.0  0.19656  0.57507  0.08151  1.0000
  C   C558      1.0  0.19753  0.58683  0.07099  1.0000
  H   H871      1.0  0.16745  0.60802  0.08311  1.0000
  H   H872      1.0  0.16590  0.58737  0.10184  1.0000
  H   H873      1.0  0.20471  0.56588  0.08099  1.0000
  H   H874      1.0  0.20641  0.58663  0.06241  1.0000
  C   C559      1.0  0.11352  0.65149  0.10845  1.0000
  H   H875      1.0  0.25224  0.40659  0.22813  1.0000
  H   H876      1.0  0.10379  0.63023  0.14537  1.0000
  C   C560      1.0  0.02563  0.62407  0.14272  1.0000
  C   C561      1.0  0.11480  0.62927  0.14579  1.0000
  N   N55       1.0  0.03208  0.61158  0.15167  1.0000
  H   H877      1.0  0.13847  0.33694  0.18100  1.0000
  H   H878      1.0  0.07042  0.36644  0.18989  1.0000
  H   H879      1.0  0.02464  0.59795  0.14419  1.0000
  H   H880      1.0  0.05274  0.61506  0.14297  1.0000
  N   N56       1.0  0.12362  0.61610  0.14254  1.0000
  H   H881      1.0  0.02906  0.59102  0.16077  1.0000
  H   H882      1.0  0.19892  0.53084  0.12023  1.0000
  H   H883      1.0  0.03120  0.32495  0.14792  1.0000
  H   H884      1.0  0.02643  0.62228  0.13234  1.0000
  H   H885      1.0  0.16042  0.48979  0.16837  1.0000
  C   C562      1.0  0.17702  0.36593  0.22564  1.0000
  H   H886      1.0  0.04881  0.36876  0.18233  1.0000
  C   C563      1.0  0.04677  0.60693  0.14494  1.0000
  C   C564      1.0  0.14850  0.49787  0.13402  1.0000
  C   C565      1.0  0.19735  0.52129  0.12810  1.0000
  C   C566      1.0  0.09925  0.33298  0.08959  1.0000
  H   H887      1.0  0.17236  0.65617  0.23273  1.0000
  H   H888      1.0  0.17814  0.53084  0.11273  1.0000
  H   H889      1.0  0.07390  0.35457  0.20538  1.0000
  H   H890      1.0  0.12932  0.57039  0.07989  1.0000
  H   H891      1.0  0.02421  0.34205  0.13967  1.0000
  H   H892      1.0  0.11485  0.58550  0.09596  1.0000
  H   H893      1.0  0.07046  0.33563  0.19713  1.0000
  H   H894      1.0  0.16613  0.57073  0.23252  1.0000
  S   S219      1.0  0.14537  0.33578  0.21042  1.0000
  C   C567      1.0  0.16859  0.56691  0.22280  1.0000
  H   H895      1.0  0.06055  0.36999  0.20627  1.0000
  H   H896      1.0  0.17122  0.55547  0.22547  1.0000
  H   H897      1.0  0.12394  0.64308  0.21923  1.0000
  H   H898      1.0  0.05645  0.34081  0.21966  1.0000
  H   H899      1.0  0.12099  0.59960  0.09750  1.0000
  H   H900      1.0  0.10741  0.60515  0.15344  1.0000
  S   S220      1.0  0.23559  0.38827  0.22580  1.0000
  H   H901      1.0  0.11480  0.63022  0.15628  1.0000
  H   H902      1.0  0.03069  0.63283  0.14127  1.0000
  H   H903      1.0  0.18225  0.49454  0.13159  1.0000
  N   N57       1.0  0.19047  0.51296  0.12347  1.0000
  H   H904      1.0  0.16687  0.37136  0.22369  1.0000
  H   H905      1.0  0.12454  0.59440  0.15041  1.0000
  S   S221      1.0  0.18102  0.33054  0.14114  1.0000
  H   H906      1.0  0.23961  0.41491  0.20890  1.0000
  C   C568      1.0  0.15586  0.64188  0.22438  1.0000
  H   H907      1.0  0.13917  0.61571  0.15321  1.0000
  C   C569      1.0  0.10036  0.65004  0.11646  1.0000
  C   C570      1.0  0.18823  0.50063  0.13435  1.0000
  H   H908      1.0  0.01331  0.60378  0.15914  1.0000
  H   H909      1.0  0.18938  0.64477  0.06454  1.0000
  C   C571      1.0  0.11857  0.60454  0.15287  1.0000
  H   H910      1.0  0.16418  0.64202  0.21530  1.0000
  Fe  Fe111     1.0  0.18725  0.61786  0.21671  1.0000
  H   H911      1.0  0.03928  0.33883  0.14675  1.0000
  C   C572      1.0  0.12287  0.61523  0.12870  1.0000
  H   H912      1.0  0.14232  0.62404  0.13528  1.0000
  H   H913      1.0  0.11835  0.63826  0.13830  1.0000
  H   H914      1.0  0.12739  0.62328  0.12056  1.0000
  H   H915      1.0  0.11192  0.61670  0.12788  1.0000
  H   H916      1.0  0.12850  0.60503  0.12623  1.0000
  C   C573      1.0  0.13819  0.61539  0.14281  1.0000
  S   S222      1.0  0.23895  0.60704  0.21887  1.0000
  H   H917      1.0  0.17136  0.51544  0.11718  1.0000
  N   N58       1.0  0.13555  0.58683  0.08418  1.0000
  C   C574      1.0  0.14347  0.59762  0.07669  1.0000
  C   C575      1.0  0.03408  0.33455  0.14112  1.0000
  H   H918      1.0  0.18388  0.64729  0.08189  1.0000
  S   S223      1.0  0.27328  0.37856  0.23345  1.0000
  H   H919      1.0  0.04067  0.34252  0.21418  1.0000
  H   H920      1.0  0.05238  0.34929  0.12488  1.0000
  Fe  Fe112     1.0  0.05945  0.65572  0.17410  1.0000
  H   H921      1.0  0.20901  0.61643  0.07079  1.0000
  Fe  Fe113     1.0  0.22606  0.36973  0.23246  1.0000
  Fe  Fe114     1.0  0.15128  0.65079  0.03819  1.0000
  H   H922      1.0  0.21662  0.62616  0.09245  1.0000
  C   C576      1.0  0.19029  0.63983  0.07534  1.0000
  C   C577      1.0  0.11951  0.64482  0.09741  1.0000
  H   H923      1.0  0.16664  0.59147  0.20530  1.0000
  H   H924      1.0  0.20121  0.61990  0.09452  1.0000
  C   C578      1.0  0.14565  0.65390  0.22621  1.0000
  H   H925      1.0  0.08342  0.63994  0.12009  1.0000
  C   C579      1.0  0.18312  0.37052  0.23379  1.0000
  H   H926      1.0  0.02579  0.33492  0.11847  1.0000
  H   H927      1.0  0.08954  0.63971  0.21646  1.0000
  C   C580      1.0  0.14784  0.65215  0.00420  1.0000
  N   N59       1.0  0.10230  0.65191  0.21924  1.0000
  H   H928      1.0  0.18553  0.63066  0.07833  1.0000
  H   H929      1.0  0.21041  0.65364  0.06170  1.0000
  Fe  Fe115     1.0  0.07370  0.65410  0.14457  1.0000
  H   H930      1.0  0.09381  0.65310  0.20188  1.0000
  H   H931      1.0  0.13050  0.33961  0.03598  1.0000
  H   H932      1.0  0.25364  0.64723  0.22613  1.0000
  H   H933      1.0  0.16572  0.33123  0.12121  1.0000
  H   H934      1.0  0.11894  0.64432  0.20345  1.0000
  H   H935      1.0  0.27612  0.32575  0.15442  1.0000
  Fe  Fe116     1.0  0.04221  0.65595  0.15404  1.0000
  H   H936      1.0  0.23458  0.65193  0.14500  1.0000
  H   H937      1.0  0.20518  0.65589  0.07916  1.0000
  C   C581      1.0  0.15523  0.62968  0.23431  1.0000
  C   C582      1.0  0.19639  0.36366  0.23606  1.0000
  C   C583      1.0  0.00167  0.36290  0.14935  1.0000
  S   S224      1.0  0.14174  0.35086  0.23613  1.0000
  C   C584      1.0  0.15539  0.32416  0.03823  1.0000
  C   C585      1.0  0.14794  0.32384  0.01800  1.0000
  C   C586      1.0  0.31501  0.64563  0.26976  1.0000
  S   S225      1.0  0.27743  0.34361  0.38331  1.0000
  Fe  Fe117     1.0  0.29297  0.39023  0.29576  1.0000
  S   S226      1.0  0.30475  0.40730  0.28809  1.0000
  S   S227      1.0  0.27263  0.38917  0.29165  1.0000
  Fe  Fe118     1.0  0.31354  0.37258  0.31309  1.0000
  S   S228      1.0  0.32727  0.38764  0.30698  1.0000
  S   S229      1.0  0.31951  0.35179  0.32611  1.0000
  Fe  Fe119     1.0  0.30745  0.40355  0.30982  1.0000
  S   S230      1.0  0.30515  0.42155  0.31956  1.0000
  C   C587      1.0  0.31692  0.64997  0.30776  1.0000
  C   C588      1.0  0.31878  0.43506  0.32954  1.0000
  S   S231      1.0  0.29379  0.38812  0.31781  1.0000
  S   S232      1.0  0.31185  0.37353  0.29168  1.0000
  C   C589      1.0  0.28492  0.38312  0.25235  1.0000
  H   H938      1.0  0.30491  0.35229  0.42583  1.0000
  C   C590      1.0  0.28499  0.38549  0.26514  1.0000
  H   H939      1.0  0.29958  0.63285  0.32160  1.0000
  H   H940      1.0  0.24668  0.36104  0.32730  1.0000
  H   H941      1.0  0.30922  0.65055  0.30167  1.0000
  H   H942      1.0  0.25776  0.36739  0.31139  1.0000
  H   H943      1.0  0.30967  0.44337  0.32919  1.0000
  H   H944      1.0  0.26542  0.38108  0.32311  1.0000
  H   H945      1.0  0.31807  0.43122  0.27969  1.0000
  C   C591      1.0  0.26074  0.38155  0.26027  1.0000
  H   H946      1.0  0.29437  0.38707  0.26690  1.0000
  C   C592      1.0  0.28191  0.35655  0.31962  1.0000
  H   H947      1.0  0.32798  0.64332  0.32995  1.0000
  C   C593      1.0  0.29014  0.35002  0.47669  1.0000
  C   C594      1.0  0.31917  0.42287  0.32569  1.0000
  H   H948      1.0  0.19939  0.33880  0.25874  1.0000
  N   N60       1.0  0.26784  0.35907  0.32852  1.0000
  H   H949      1.0  0.27231  0.65320  0.30742  1.0000
  H   H950      1.0  0.33003  0.55937  0.34937  1.0000
  H   H951      1.0  0.29990  0.60527  0.38238  1.0000
  C   C595      1.0  0.26481  0.64606  0.32910  1.0000
  H   H952      1.0  0.12615  0.64138  0.25710  1.0000
  C   C596      1.0  0.27289  0.38602  0.27553  1.0000
  C   C597      1.0  0.26077  0.38404  0.27305  1.0000
  H   H953      1.0  0.25136  0.38447  0.28102  1.0000
  C   C598      1.0  0.26908  0.64194  0.24479  1.0000
  C   C599      1.0  0.30866  0.34222  0.43171  1.0000
  C   C600      1.0  0.30781  0.60860  0.38560  1.0000
  H   H954      1.0  0.32015  0.62124  0.36076  1.0000
  C   C601      1.0  0.19201  0.34010  0.26870  1.0000
  S   S233      1.0  0.32213  0.35560  0.44190  1.0000
  C   C602      1.0  0.28944  0.34602  0.36769  1.0000
  C   C603      1.0  0.29080  0.35931  0.36047  1.0000
  C   C604      1.0  0.30027  0.36118  0.34778  1.0000
  C   C605      1.0  0.30809  0.34978  0.34220  1.0000
  C   C606      1.0  0.30657  0.33657  0.34936  1.0000
  C   C607      1.0  0.29745  0.33465  0.36219  1.0000
  H   H955      1.0  0.28465  0.36811  0.36479  1.0000
  H   H956      1.0  0.30163  0.37141  0.34246  1.0000
  N   N61       1.0  0.29974  0.35128  0.48453  1.0000
  N   N62       1.0  0.32052  0.63605  0.31621  1.0000
  C   C608      1.0  0.33157  0.65301  0.41689  1.0000
  H   H957      1.0  0.28998  0.35683  0.32484  1.0000
  S   S234      1.0  0.25590  0.63494  0.32668  1.0000
  C   C609      1.0  0.31771  0.34073  0.44035  1.0000
  C   C610      1.0  0.25744  0.35914  0.32093  1.0000
  H   H958      1.0  0.28274  0.36448  0.30991  1.0000
  H   H959      1.0  0.31778  0.40109  0.39521  1.0000
  H   H960      1.0  0.27342  0.65513  0.35461  1.0000
  S   S235      1.0  0.12637  0.32493  0.24088  1.0000
  H   H961      1.0  0.30222  0.41441  0.39497  1.0000
  H   H962      1.0  0.30613  0.60569  0.39703  1.0000
  H   H963      1.0  0.30198  0.43530  0.37614  1.0000
  H   H964      1.0  0.16193  0.34169  0.25964  1.0000
  H   H965      1.0  0.33136  0.61545  0.41982  1.0000
  Fe  Fe120     1.0  0.32374  0.39026  0.28593  1.0000
  H   H966      1.0  0.25869  0.64121  0.35121  1.0000
  H   H967      1.0  0.31690  0.43810  0.38010  1.0000
  C   C611      1.0  0.27283  0.38112  0.24986  1.0000
  H   H968      1.0  0.25436  0.37480  0.33906  1.0000
  C   C612      1.0  0.13435  0.64154  0.24789  1.0000
  H   H969      1.0  0.18996  0.35119  0.26905  1.0000
  H   H970      1.0  0.29640  0.32438  0.36766  1.0000
  H   H971      1.0  0.33123  0.40261  0.32377  1.0000
  C   C613      1.0  0.33029  0.43670  0.33351  1.0000
  H   H972      1.0  0.10621  0.64997  0.23921  1.0000
  C   C614      1.0  0.26475  0.64700  0.34241  1.0000
  H   H973      1.0  0.27701  0.64400  0.24912  1.0000
  H   H974      1.0  0.25135  0.38006  0.25845  1.0000
  C   C615      1.0  0.31415  0.41087  0.36908  1.0000
  C   C616      1.0  0.33121  0.61723  0.48408  1.0000
  H   H975      1.0  0.30889  0.36586  0.46785  1.0000
  H   H976      1.0  0.32243  0.33829  0.26761  1.0000
  N   N63       1.0  0.17901  0.33572  0.26996  1.0000
  S   S236      1.0  0.33269  0.57212  0.38117  1.0000
  H   H977      1.0  0.31738  0.43702  0.36289  1.0000
  H   H978      1.0  0.15970  0.33425  0.28463  1.0000
  H   H979      1.0  0.27254  0.37284  0.33818  1.0000
  H   H980      1.0  0.31620  0.62522  0.39650  1.0000
  H   H981      1.0  0.31796  0.39950  0.37143  1.0000
  C   C617      1.0  0.26491  0.37254  0.33239  1.0000
  H   H982      1.0  0.30187  0.62388  0.36170  1.0000
  C   C618      1.0  0.26713  0.34809  0.34111  1.0000
  H   H983      1.0  0.29449  0.56366  0.37161  1.0000
  H   H984      1.0  0.26930  0.33775  0.33864  1.0000
  H   H985      1.0  0.33229  0.42396  0.26728  1.0000
  H   H986      1.0  0.31817  0.60250  0.38145  1.0000
  H   H987      1.0  0.31045  0.62254  0.33327  1.0000
  C   C619      1.0  0.31356  0.43266  0.37396  1.0000
  H   H988      1.0  0.31259  0.63609  0.26962  1.0000
  H   H989      1.0  0.32450  0.54647  0.37332  1.0000
  H   H990      1.0  0.29430  0.38284  0.24434  1.0000
  H   H991      1.0  0.30729  0.53580  0.35171  1.0000
  H   H992      1.0  0.32951  0.32637  0.45457  1.0000
  H   H993      1.0  0.30258  0.41299  0.37110  1.0000
  C   C620      1.0  0.16962  0.33749  0.28336  1.0000
  Fe  Fe121     1.0  0.28201  0.63933  0.27725  1.0000
  H   H994      1.0  0.30913  0.63810  0.36128  1.0000
  H   H995      1.0  0.28486  0.62837  0.38345  1.0000
  H   H996      1.0  0.30842  0.54070  0.37984  1.0000
  H   H997      1.0  0.27492  0.34779  0.34699  1.0000
  N   N64       1.0  0.31896  0.41763  0.37737  1.0000
  H   H998      1.0  0.17772  0.37955  0.23803  1.0000
  H   H999      1.0  0.17002  0.35538  0.25872  1.0000
  C   C621      1.0  0.25283  0.60831  0.23773  1.0000
  H   H1000     1.0  0.31888  0.56139  0.33785  1.0000
  H   H1001     1.0  0.29289  0.54357  0.36366  1.0000
  H   H1002     1.0  0.26431  0.63375  0.25246  1.0000
  Fe  Fe122     1.0  0.28855  0.60942  0.29147  1.0000
  S   S237      1.0  0.26615  0.60913  0.30176  1.0000
  S   S238      1.0  0.30697  0.59242  0.29586  1.0000
  C   C622      1.0  0.32860  0.43225  0.27334  1.0000
  S   S239      1.0  0.29951  0.65672  0.39932  1.0000
  Fe  Fe123     1.0  0.26579  0.62940  0.30606  1.0000
  H   H1003     1.0  0.33119  0.45237  0.28413  1.0000
  Fe  Fe124     1.0  0.26147  0.62142  0.28129  1.0000
  S   S240      1.0  0.24248  0.62211  0.27350  1.0000
  S   S241      1.0  0.28844  0.62893  0.29716  1.0000
  S   S242      1.0  0.28405  0.61980  0.27048  1.0000
  H   H1004     1.0  0.24576  0.65139  0.26218  1.0000
  H   H1005     1.0  0.25671  0.34970  0.34817  1.0000
  H   H1006     1.0  0.29727  0.33208  0.42403  1.0000
  H   H1007     1.0  0.29469  0.37343  0.48004  1.0000
  H   H1008     1.0  0.28057  0.35834  0.47740  1.0000
  H   H1009     1.0  0.09630  0.63828  0.23852  1.0000
  H   H1010     1.0  0.16684  0.34845  0.28433  1.0000
  C   C623      1.0  0.30804  0.63281  0.32655  1.0000
  H   H1011     1.0  0.31348  0.33918  0.28507  1.0000
  H   H1012     1.0  0.14383  0.62010  0.25365  1.0000
  H   H1013     1.0  0.29124  0.62935  0.39776  1.0000
  H   H1014     1.0  0.31031  0.56990  0.36604  1.0000
  H   H1015     1.0  0.17448  0.33123  0.29209  1.0000
  H   H1016     1.0  0.25937  0.34917  0.31776  1.0000
  Fe  Fe125     1.0  0.14192  0.32978  0.24971  1.0000
  C   C624      1.0  0.33259  0.44179  0.29059  1.0000
  H   H1017     1.0  0.32245  0.35243  0.27461  1.0000
  C   C625      1.0  0.13501  0.65379  0.23809  1.0000
  C   C626      1.0  0.24189  0.61741  0.25845  1.0000
  C   C627      1.0  0.22897  0.62031  0.25479  1.0000
  C   C628      1.0  0.25386  0.61142  0.24986  1.0000
  H   H1018     1.0  0.21966  0.62489  0.26142  1.0000
  H   H1019     1.0  0.26385  0.60901  0.25265  1.0000
  H   H1020     1.0  0.32219  0.53215  0.36803  1.0000
  H   H1021     1.0  0.17855  0.34255  0.24853  1.0000
  C   C629      1.0  0.32561  0.58740  0.32751  1.0000
  C   C630      1.0  0.29328  0.63124  0.38632  1.0000
  H   H1022     1.0  0.31134  0.36586  0.48449  1.0000
  C   C631      1.0  0.14435  0.62950  0.24595  1.0000
  C   C632      1.0  0.31488  0.59395  0.33685  1.0000
  C   C633      1.0  0.30996  0.59245  0.31183  1.0000
  C   C634      1.0  0.29926  0.59877  0.32132  1.0000
  C   C635      1.0  0.30170  0.59946  0.33379  1.0000
  C   C636      1.0  0.27303  0.65489  0.34433  1.0000
  H   H1023     1.0  0.28904  0.60315  0.31905  1.0000
  H   H1024     1.0  0.29333  0.60451  0.34098  1.0000
  H   H1025     1.0  0.32843  0.61523  0.31332  1.0000
  H   H1026     1.0  0.29728  0.55267  0.34616  1.0000
  C   C637      1.0  0.32296  0.34114  0.27711  1.0000
  H   H1027     1.0  0.31789  0.63855  0.38134  1.0000
  C   C638      1.0  0.32280  0.55445  0.34692  1.0000
  H   H1028     1.0  0.31795  0.41459  0.35785  1.0000
  S   S243      1.0  0.25931  0.64170  0.28670  1.0000
  S   S244      1.0  0.31753  0.59615  0.35217  1.0000
  C   C639      1.0  0.30173  0.54571  0.35493  1.0000
  C   C640      1.0  0.27260  0.65353  0.31772  1.0000
  C   C641      1.0  0.31380  0.41238  0.39219  1.0000
  N   N65       1.0  0.31121  0.55191  0.35881  1.0000
  C   C642      1.0  0.30349  0.56509  0.36284  1.0000
  C   C643      1.0  0.32311  0.58657  0.31502  1.0000
  N   N66       1.0  0.30719  0.62353  0.38059  1.0000
  H   H1029     1.0  0.33004  0.44624  0.33617  1.0000
  C   C644      1.0  0.31681  0.54241  0.37050  1.0000
  C   C645      1.0  0.30970  0.62687  0.36539  1.0000
  C   C646      1.0  0.31795  0.62739  0.38506  1.0000
  H   H1030     1.0  0.32560  0.41495  0.42112  1.0000
  C   C647      1.0  0.32788  0.64553  0.27222  1.0000
  H   H1031     1.0  0.31748  0.64052  0.41749  1.0000
  H   H1032     1.0  0.29239  0.64252  0.38251  1.0000
  H   H1033     1.0  0.30384  0.64039  0.33335  1.0000
  H   H1034     1.0  0.33142  0.58170  0.30766  1.0000
  C   C648      1.0  0.30432  0.33078  0.43066  1.0000
  H   H1035     1.0  0.28463  0.34632  0.31679  1.0000
  H   H1036     1.0  0.19747  0.33406  0.27709  1.0000
  H   H1037     1.0  0.32807  0.33916  0.36016  1.0000
  H   H1038     1.0  0.32896  0.54471  0.34370  1.0000
  H   H1039     1.0  0.32627  0.65308  0.30049  1.0000
  C   C649      1.0  0.22796  0.61727  0.24265  1.0000
  H   H1040     1.0  0.24283  0.64357  0.24290  1.0000
  H   H1041     1.0  0.32699  0.33405  0.30332  1.0000
  H   H1042     1.0  0.31227  0.32782  0.34490  1.0000
  C   C650      1.0  0.33149  0.63560  0.32328  1.0000
  H   H1043     1.0  0.29519  0.35071  0.46555  1.0000
  C   C651      1.0  0.33094  0.41218  0.32627  1.0000
  H   H1044     1.0  0.31721  0.41740  0.39867  1.0000
  H   H1045     1.0  0.32855  0.62149  0.38123  1.0000
  H   H1046     1.0  0.29940  0.57264  0.35415  1.0000
  C   C652      1.0  0.32059  0.65026  0.41306  1.0000
  C   C653      1.0  0.30383  0.36471  0.47899  1.0000
  S   S245      1.0  0.20455  0.36973  0.24543  1.0000
  H   H1047     1.0  0.31761  0.62590  0.30179  1.0000
  C   C654      1.0  0.17208  0.34422  0.25873  1.0000
  H   H1048     1.0  0.32222  0.44051  0.29726  1.0000
  H   H1049     1.0  0.32344  0.61522  0.47951  1.0000
  C   C655      1.0  0.32245  0.32767  0.44795  1.0000
  H   H1050     1.0  0.32998  0.41559  0.29775  1.0000
  H   H1051     1.0  0.21792  0.61940  0.24004  1.0000
  H   H1052     1.0  0.31772  0.34064  0.47218  1.0000
  S   S246      1.0  0.14349  0.32447  0.27191  1.0000
  N   N67       1.0  0.25840  0.65452  0.24169  1.0000
  C   C656      1.0  0.31227  0.34010  0.48316  1.0000
  H   H1053     1.0  0.32735  0.44233  0.26596  1.0000
  H   H1054     1.0  0.28691  0.33996  0.48050  1.0000
  C   C657      1.0  0.32565  0.62586  0.30727  1.0000
  H   H1055     1.0  0.08832  0.65617  0.23809  1.0000
  S   S247      1.0  0.24569  0.35472  0.23664  1.0000
  H   H1056     1.0  0.28701  0.36968  0.62440  1.0000
  H   H1057     1.0  0.21810  0.34845  0.71359  1.0000
  H   H1058     1.0  0.27897  0.38357  0.61246  1.0000
  C   C658      1.0  0.24536  0.38058  0.72046  1.0000
  Fe  Fe126     1.0  0.28929  0.39010  0.67709  1.0000
  S   S248      1.0  0.27037  0.38100  0.68212  1.0000
  S   S249      1.0  0.29007  0.41215  0.66706  1.0000
  Fe  Fe127     1.0  0.30907  0.36245  0.68154  1.0000
  S   S250      1.0  0.29225  0.35058  0.68707  1.0000
  H   H1059     1.0  0.31867  0.61245  0.72313  1.0000
  Fe  Fe128     1.0  0.28382  0.36558  0.66971  1.0000
  S   S251      1.0  0.27679  0.35996  0.65351  1.0000
  Fe  Fe129     1.0  0.27980  0.36663  0.69937  1.0000
  S   S252      1.0  0.30173  0.37600  0.66298  1.0000
  S   S253      1.0  0.29766  0.37709  0.69554  1.0000
  C   C659      1.0  0.29285  0.35029  0.49923  1.0000
  H   H1060     1.0  0.32044  0.32928  0.67453  1.0000
  H   H1061     1.0  0.28819  0.40503  0.60362  1.0000
  H   H1062     1.0  0.32460  0.44100  0.65392  1.0000
  C   C660      1.0  0.32943  0.33409  0.70012  1.0000
  C   C661      1.0  0.27250  0.34377  0.65757  1.0000
  C   C662      1.0  0.31010  0.33585  0.59467  1.0000
  C   C663      1.0  0.29758  0.33173  0.61839  1.0000
  H   H1063     1.0  0.30463  0.32625  0.58118  1.0000
  C   C664      1.0  0.30261  0.32785  0.59155  1.0000
  H   H1064     1.0  0.26946  0.34552  0.63725  1.0000
  H   H1065     1.0  0.29997  0.35124  0.50530  1.0000
  H   H1066     1.0  0.22721  0.33718  0.69322  1.0000
  N   N68       1.0  0.23683  0.35086  0.69823  1.0000
  C   C665      1.0  0.23186  0.38740  0.72597  1.0000
  H   H1067     1.0  0.25549  0.33513  0.69939  1.0000
  H   H1068     1.0  0.30578  0.34622  0.65934  1.0000
  H   H1069     1.0  0.25219  0.38620  0.71231  1.0000
  C   C666      1.0  0.30769  0.33761  0.60817  1.0000
  H   H1070     1.0  0.28877  0.61957  0.71961  1.0000
  H   H1071     1.0  0.29553  0.33322  0.62879  1.0000
  H   H1072     1.0  0.30630  0.37203  0.63278  1.0000
  C   C667      1.0  0.30898  0.42872  0.66002  1.0000
  C   C668      1.0  0.30414  0.41750  0.66932  1.0000
  S   S254      1.0  0.31730  0.34662  0.61298  1.0000
  H   H1073     1.0  0.24029  0.33100  0.71177  1.0000
  H   H1074     1.0  0.30375  0.43436  0.65174  1.0000
  H   H1075     1.0  0.30557  0.39530  0.59872  1.0000
  H   H1076     1.0  0.28973  0.34023  0.50380  1.0000
  S   S255      1.0  0.26702  0.35771  0.71972  1.0000
  H   H1077     1.0  0.25411  0.35808  0.68352  1.0000
  C   C669      1.0  0.27222  0.33548  0.67074  1.0000
  H   H1078     1.0  0.28690  0.58958  0.73244  1.0000
  C   C670      1.0  0.31083  0.60746  0.73124  1.0000
  H   H1079     1.0  0.28265  0.38592  0.64010  1.0000
  H   H1080     1.0  0.33142  0.65011  0.61699  1.0000
  H   H1081     1.0  0.30620  0.34342  0.64285  1.0000
  H   H1082     1.0  0.31784  0.34046  0.58669  1.0000
  C   C671      1.0  0.26935  0.33911  0.64745  1.0000
  N   N69       1.0  0.29495  0.38813  0.61944  1.0000
  H   H1083     1.0  0.31289  0.38763  0.62679  1.0000
  C   C672      1.0  0.26612  0.32611  0.65041  1.0000
  C   C673      1.0  0.32755  0.42523  0.67197  1.0000
  N   N70       1.0  0.30334  0.60079  0.72536  1.0000
  C   C674      1.0  0.28502  0.39406  0.63084  1.0000
  S   S256      1.0  0.33215  0.35427  0.67657  1.0000
  H   H1084     1.0  0.28924  0.40137  0.63399  1.0000
  C   C675      1.0  0.30807  0.38068  0.62385  1.0000
  C   C676      1.0  0.31090  0.41033  0.68004  1.0000
  H   H1085     1.0  0.24232  0.34133  0.68073  1.0000
  C   C677      1.0  0.24117  0.35948  0.73636  1.0000
  Fe  Fe130     1.0  0.32358  0.64119  0.71936  1.0000
  H   H1086     1.0  0.32699  0.42390  0.61657  1.0000
  H   H1087     1.0  0.27496  0.39972  0.62791  1.0000
  H   H1088     1.0  0.24883  0.34315  0.71394  1.0000
  H   H1089     1.0  0.30217  0.40691  0.60997  1.0000
  C   C678      1.0  0.29638  0.61114  0.71498  1.0000
  H   H1090     1.0  0.31894  0.33987  0.70314  1.0000
  H   H1091     1.0  0.22624  0.35386  0.68191  1.0000
  H   H1092     1.0  0.28335  0.35859  0.50069  1.0000
  C   C679      1.0  0.32080  0.43246  0.66122  1.0000
  H   H1093     1.0  0.32158  0.59413  0.71049  1.0000
  C   C680      1.0  0.25008  0.36663  0.72580  1.0000
  C   C681      1.0  0.29780  0.39933  0.60741  1.0000
  C   C682      1.0  0.24573  0.33953  0.70618  1.0000
  H   H1094     1.0  0.30710  0.40188  0.68742  1.0000
  H   H1095     1.0  0.29626  0.37387  0.60699  1.0000
  H   H1096     1.0  0.22668  0.36077  0.71533  1.0000
  C   C683      1.0  0.23296  0.34558  0.68810  1.0000
  H   H1097     1.0  0.22831  0.39826  0.72199  1.0000
  C   C684      1.0  0.24455  0.36185  0.69094  1.0000
  H   H1098     1.0  0.31579  0.37620  0.61542  1.0000
  C   C685      1.0  0.28901  0.37844  0.61564  1.0000
  H   H1099     1.0  0.21708  0.36500  0.70207  1.0000
  H   H1100     1.0  0.24785  0.36585  0.69830  1.0000
  H   H1101     1.0  0.32822  0.40201  0.63298  1.0000
  H   H1102     1.0  0.32097  0.34767  0.64576  1.0000
  H   H1103     1.0  0.27463  0.33897  0.67860  1.0000
  H   H1104     1.0  0.31977  0.34073  0.48895  1.0000
  C   C686      1.0  0.22411  0.35649  0.70771  1.0000
  H   H1105     1.0  0.32394  0.35411  0.53066  1.0000
  S   S257      1.0  0.30405  0.64366  0.71212  1.0000
  C   C687      1.0  0.31335  0.58987  0.71875  1.0000
  C   C688      1.0  0.31263  0.34173  0.65055  1.0000
  H   H1106     1.0  0.30815  0.58481  0.71390  1.0000
  C   C689      1.0  0.32244  0.41429  0.68147  1.0000
  S   S258      1.0  0.32951  0.37636  0.58225  1.0000
  H   H1107     1.0  0.32754  0.40875  0.68987  1.0000
  H   H1108     1.0  0.23810  0.37071  0.68502  1.0000
  H   H1109     1.0  0.32266  0.61700  0.67896  1.0000
  N   N71       1.0  0.31853  0.32695  0.65503  1.0000
  S   S259      1.0  0.33272  0.40170  0.60263  1.0000
  C   C690      1.0  0.32950  0.40157  0.64346  1.0000
  H   H1110     1.0  0.31869  0.58178  0.72629  1.0000
  H   H1111     1.0  0.33307  0.35952  0.54821  1.0000
  H   H1112     1.0  0.30405  0.61592  0.70643  1.0000
  H   H1113     1.0  0.32006  0.39871  0.65091  1.0000
  C   C691      1.0  0.29275  0.59474  0.73647  1.0000
  H   H1114     1.0  0.29059  0.60648  0.71036  1.0000
  H   H1115     1.0  0.32959  0.41217  0.64403  1.0000
  H   H1116     1.0  0.33321  0.37424  0.65066  1.0000
  C   C692      1.0  0.32687  0.32515  0.66533  1.0000
  H   H1117     1.0  0.32543  0.63160  0.69318  1.0000
  C   C693      1.0  0.33059  0.61330  0.68500  1.0000
  H   H1118     1.0  0.32568  0.62049  0.49397  1.0000
  Fe  Fe131     1.0  0.29343  0.64324  0.73424  1.0000
  H   H1119     1.0  0.30964  0.32978  0.48714  1.0000
  C   C694      1.0  0.33200  0.62148  0.69324  1.0000
  H   H1120     1.0  0.32553  0.65332  0.63410  1.0000
  H   H1121     1.0  0.32939  0.59068  0.49095  1.0000
  C   C695      1.0  0.29007  0.32389  0.61524  1.0000
  H   H1122     1.0  0.33137  0.59579  0.50556  1.0000
  C   C696      1.0  0.01683  0.34807  0.86780  1.0000
  Fe  Fe132     1.0  0.17177  0.35919  0.77068  1.0000
  S   S260      1.0  0.17379  0.35397  0.79255  1.0000
  S   S261      1.0  0.15501  0.35130  0.76691  1.0000
  Fe  Fe133     1.0  0.19347  0.37675  0.76176  1.0000
  S   S262      1.0  0.19654  0.37356  0.78326  1.0000
  H   H1123     1.0  0.11643  0.61196  0.87608  1.0000
  Fe  Fe134     1.0  0.19659  0.35164  0.78402  1.0000
  C   C697      1.0  0.10875  0.32600  0.81876  1.0000
  Fe  Fe135     1.0  0.17324  0.37635  0.78974  1.0000
  S   S263      1.0  0.15697  0.38551  0.80645  1.0000
  S   S264      1.0  0.19477  0.35458  0.76227  1.0000
  S   S265      1.0  0.17003  0.38180  0.76812  1.0000
  Fe  Fe136     1.0  0.15447  0.33757  0.94278  1.0000
  S   S266      1.0  0.13337  0.34661  0.95436  1.0000
  Fe  Fe137     1.0  0.16209  0.36511  0.93031  1.0000
  S   S267      1.0  0.14191  0.37660  0.94093  1.0000
  S   S268      1.0  0.17751  0.37490  0.91328  1.0000
  Fe  Fe138     1.0  0.14475  0.35986  0.95956  1.0000
  Fe  Fe139     1.0  0.13230  0.36265  0.93488  1.0000
  S   S269      1.0  0.11421  0.37317  0.92463  1.0000
  S   S270      1.0  0.16602  0.34953  0.94940  1.0000
  S   S271      1.0  0.15230  0.35235  0.92288  1.0000
  Fe  Fe140     1.0  0.09423  0.34568  0.84353  1.0000
  S   S272      1.0  0.08428  0.33378  0.86355  1.0000
  S   S273      1.0  0.31309  0.63903  0.74179  1.0000
  Fe  Fe141     1.0  0.08163  0.37306  0.85209  1.0000
  S   S274      1.0  0.07081  0.36352  0.87306  1.0000
  S   S275      1.0  0.08136  0.39560  0.84414  1.0000
  Fe  Fe142     1.0  0.09069  0.34757  0.87311  1.0000
  S   S276      1.0  0.10288  0.33720  0.88957  1.0000
  Fe  Fe143     1.0  0.06514  0.35068  0.86165  1.0000
  S   S277      1.0  0.10196  0.35831  0.85322  1.0000
  S   S278      1.0  0.07465  0.36144  0.84052  1.0000
  Fe  Fe144     1.0  0.15213  0.43636  0.84888  1.0000
  S   S279      1.0  0.13028  0.44574  0.84602  1.0000
  S   S280      1.0  0.16936  0.42919  0.83187  1.0000
  Fe  Fe145     1.0  0.14541  0.44087  0.87802  1.0000
  S   S281      1.0  0.12324  0.45083  0.87739  1.0000
  S   S282      1.0  0.15104  0.43815  0.89818  1.0000
  Fe  Fe146     1.0  0.12398  0.43368  0.86747  1.0000
  S   S283      1.0  0.10939  0.41928  0.87793  1.0000
  Fe  Fe147     1.0  0.13196  0.46186  0.85626  1.0000
  S   S284      1.0  0.14576  0.42303  0.86940  1.0000
  S   S285      1.0  0.15420  0.45318  0.85775  1.0000
  C   C698      1.0  0.08991  0.40183  0.85314  1.0000
  C   C699      1.0  0.09526  0.41373  0.84700  1.0000
  C   C700      1.0  0.10172  0.41898  0.85433  1.0000
  C   C701      1.0  0.10244  0.41254  0.86795  1.0000
  C   C702      1.0  0.09714  0.40064  0.87403  1.0000
  C   C703      1.0  0.09110  0.39516  0.86658  1.0000
  H   H1124     1.0  0.09438  0.41891  0.83659  1.0000
  H   H1125     1.0  0.10574  0.42821  0.84959  1.0000
  H   H1126     1.0  0.09758  0.39569  0.88457  1.0000
  H   H1127     1.0  0.08700  0.38600  0.87139  1.0000
  C   C704      1.0  0.17107  0.39270  0.90932  1.0000
  C   C705      1.0  0.17355  0.39982  0.89563  1.0000
  C   C706      1.0  0.16765  0.41389  0.89224  1.0000
  C   C707      1.0  0.15944  0.42089  0.90256  1.0000
  C   C708      1.0  0.15733  0.41390  0.91631  1.0000
  C   C709      1.0  0.16307  0.39977  0.91967  1.0000
  H   H1128     1.0  0.17990  0.39443  0.88762  1.0000
  H   H1129     1.0  0.16962  0.41935  0.88164  1.0000
  H   H1130     1.0  0.15115  0.41932  0.92434  1.0000
  H   H1131     1.0  0.16154  0.39440  0.93031  1.0000
  C   C710      1.0  0.11105  0.36318  0.91490  1.0000
  C   C711      1.0  0.10149  0.36906  0.90633  1.0000
  C   C712      1.0  0.09907  0.36126  0.89827  1.0000
  C   C713      1.0  0.10600  0.34748  0.89903  1.0000
  C   C714      1.0  0.11556  0.34163  0.90758  1.0000
  C   C715      1.0  0.11816  0.34949  0.91544  1.0000
  H   H1132     1.0  0.09584  0.37959  0.90607  1.0000
  H   H1133     1.0  0.09161  0.36579  0.89176  1.0000
  C   C716      1.0  0.08730  0.64729  0.93199  1.0000
  H   H1134     1.0  0.12539  0.34484  0.92218  1.0000
  Fe  Fe148     1.0  0.06312  0.65140  0.88396  1.0000
  H   H1135     1.0  0.04225  0.35828  0.84092  1.0000
  C   C717      1.0  0.00755  0.35836  0.84720  1.0000
  H   H1136     1.0  0.14725  0.60670  0.96335  1.0000
  H   H1137     1.0  0.04165  0.40811  0.86108  1.0000
  C   C718      1.0  0.16074  0.39746  0.81351  1.0000
  C   C719      1.0  0.15085  0.40271  0.82429  1.0000
  C   C720      1.0  0.15350  0.41236  0.83008  1.0000
  C   C721      1.0  0.16606  0.41679  0.82506  1.0000
  C   C722      1.0  0.17595  0.41156  0.81428  1.0000
  C   C723      1.0  0.17331  0.40187  0.80851  1.0000
  H   H1138     1.0  0.14108  0.39936  0.82814  1.0000
  H   H1139     1.0  0.14580  0.41640  0.83836  1.0000
  H   H1140     1.0  0.18567  0.41498  0.81038  1.0000
  H   H1141     1.0  0.18095  0.39787  0.80017  1.0000
  H   H1142     1.0  0.14616  0.32661  0.86371  1.0000
  H   H1143     1.0  0.02327  0.41059  0.86845  1.0000
  C   C724      1.0  0.19921  0.34035  0.83098  1.0000
  C   C725      1.0  0.20107  0.34211  0.81668  1.0000
  H   H1144     1.0  0.19209  0.34813  0.83626  1.0000
  H   H1145     1.0  0.19544  0.35129  0.81096  1.0000
  H   H1146     1.0  0.17273  0.32891  0.90999  1.0000
  H   H1147     1.0  0.20266  0.33705  0.88206  1.0000
  C   C726      1.0  0.15202  0.47113  0.90498  1.0000
  C   C727      1.0  0.18113  0.32823  0.90058  1.0000
  H   H1148     1.0  0.19607  0.63588  0.90008  1.0000
  C   C728      1.0  0.22771  0.36627  0.74182  1.0000
  N   N72       1.0  0.18787  0.54827  0.83587  1.0000
  C   C729      1.0  0.10521  0.61344  0.87614  1.0000
  S   S286      1.0  0.08255  0.65609  0.86921  1.0000
  C   C730      1.0  0.16008  0.33379  0.76626  1.0000
  H   H1149     1.0  0.16695  0.36519  0.97456  1.0000
  C   C731      1.0  0.18772  0.65000  0.87657  1.0000
  H   H1150     1.0  0.27932  0.65519  0.76715  1.0000
  H   H1151     1.0  0.14070  0.47121  0.82570  1.0000
  H   H1152     1.0  0.16868  0.65654  0.81007  1.0000
  H   H1153     1.0  0.26038  0.34823  0.78596  1.0000
  C   C732      1.0  0.15152  0.46743  0.82017  1.0000
  H   H1154     1.0  0.15446  0.47479  0.91310  1.0000
  H   H1155     1.0  0.17276  0.46668  0.79816  1.0000
  C   C733      1.0  0.03008  0.35039  0.86061  1.0000
  N   N73       1.0  0.14168  0.37996  0.87970  1.0000
  C   C734      1.0  0.15628  0.38018  0.87902  1.0000
  C   C735      1.0  0.13240  0.38722  0.89046  1.0000
  C   C736      1.0  0.13999  0.36557  0.88315  1.0000
  C   C737      1.0  0.13797  0.38692  0.86627  1.0000
  H   H1156     1.0  0.15788  0.39092  0.87642  1.0000
  H   H1157     1.0  0.16364  0.37474  0.87104  1.0000
  H   H1158     1.0  0.15935  0.37519  0.88907  1.0000
  H   H1159     1.0  0.12131  0.38719  0.89130  1.0000
  H   H1160     1.0  0.13493  0.38226  0.90073  1.0000
  H   H1161     1.0  0.13329  0.39814  0.88816  1.0000
  H   H1162     1.0  0.12907  0.36509  0.88372  1.0000
  H   H1163     1.0  0.14244  0.36011  0.89337  1.0000
  H   H1164     1.0  0.14691  0.35969  0.87533  1.0000
  H   H1165     1.0  0.12705  0.38682  0.86643  1.0000
  H   H1166     1.0  0.14491  0.38190  0.85780  1.0000
  H   H1167     1.0  0.13878  0.39791  0.86351  1.0000
  N   N74       1.0  0.12595  0.36823  0.79823  1.0000
  C   C738      1.0  0.11858  0.36144  0.79233  1.0000
  C   C739      1.0  0.13171  0.37908  0.78739  1.0000
  C   C740      1.0  0.13742  0.35793  0.80366  1.0000
  C   C741      1.0  0.11617  0.37443  0.80954  1.0000
  H   H1168     1.0  0.10989  0.36888  0.78807  1.0000
  H   H1169     1.0  0.11412  0.35317  0.80022  1.0000
  H   H1170     1.0  0.12577  0.35655  0.78384  1.0000
  H   H1171     1.0  0.13739  0.38439  0.79146  1.0000
  H   H1172     1.0  0.13922  0.37471  0.77876  1.0000
  H   H1173     1.0  0.12337  0.38702  0.78300  1.0000
  H   H1174     1.0  0.13346  0.34977  0.81208  1.0000
  H   H1175     1.0  0.14346  0.36277  0.80782  1.0000
  H   H1176     1.0  0.14473  0.35275  0.79549  1.0000
  H   H1177     1.0  0.10736  0.38229  0.80587  1.0000
  H   H1178     1.0  0.12149  0.37955  0.81423  1.0000
  H   H1179     1.0  0.11164  0.36650  0.81789  1.0000
  C   C742      1.0  0.03207  0.35658  0.84662  1.0000
  H   H1180     1.0  0.17665  0.65441  0.88082  1.0000
  Fe  Fe149     1.0  0.11915  0.64915  0.93670  1.0000
  H   H1181     1.0  0.03098  0.64981  0.92140  1.0000
  C   C743      1.0  0.14359  0.45349  0.80964  1.0000
  C   C744      1.0  0.13909  0.47642  0.88714  1.0000
  H   H1182     1.0  0.17121  0.44944  0.80675  1.0000
  C   C745      1.0  0.03551  0.38426  0.87694  1.0000
  H   H1183     1.0  0.25750  0.65427  0.79475  1.0000
  H   H1184     1.0  0.18373  0.63071  0.86568  1.0000
  H   H1185     1.0  0.22187  0.35816  0.79156  1.0000
  C   C746      1.0  0.01949  0.38825  0.86217  1.0000
  H   H1186     1.0  0.15660  0.49280  0.88425  1.0000
  C   C747      1.0  0.14549  0.47672  0.79800  1.0000
  H   H1187     1.0  0.04551  0.37373  0.85440  1.0000
  S   S287      1.0  0.12445  0.48474  0.84928  1.0000
  H   H1188     1.0  0.23143  0.34782  0.77063  1.0000
  C   C748      1.0  0.25628  0.35809  0.77926  1.0000
  C   C749      1.0  0.14673  0.49445  0.89211  1.0000
  H   H1189     1.0  0.14879  0.49866  0.90006  1.0000
  H   H1190     1.0  0.01521  0.34329  0.87864  1.0000
  H   H1191     1.0  0.24468  0.34861  0.74029  1.0000
  H   H1192     1.0  0.14305  0.64525  0.82769  1.0000
  H   H1193     1.0  0.16207  0.60020  0.97099  1.0000
  H   H1194     1.0  0.15632  0.45822  0.82714  1.0000
  H   H1195     1.0  0.23611  0.34820  0.79917  1.0000
  H   H1196     1.0  0.13904  0.50261  0.88694  1.0000
  S   S288      1.0  0.21219  0.33364  0.79218  1.0000
  N   N75       1.0  0.11053  0.41518  0.91942  1.0000
  C   C750      1.0  0.11773  0.42421  0.90757  1.0000
  C   C751      1.0  0.10157  0.42338  0.92957  1.0000
  C   C752      1.0  0.12097  0.40435  0.92591  1.0000
  C   C753      1.0  0.10186  0.40877  0.91466  1.0000
  H   H1197     1.0  0.12479  0.41829  0.89984  1.0000
  H   H1198     1.0  0.12423  0.42937  0.91080  1.0000
  H   H1199     1.0  0.11017  0.43229  0.90221  1.0000
  H   H1200     1.0  0.09356  0.43166  0.92500  1.0000
  H   H1201     1.0  0.09602  0.41681  0.93865  1.0000
  H   H1202     1.0  0.10779  0.42832  0.93341  1.0000
  H   H1203     1.0  0.12773  0.40876  0.92964  1.0000
  H   H1204     1.0  0.12792  0.39793  0.91856  1.0000
  H   H1205     1.0  0.11590  0.39726  0.93485  1.0000
  H   H1206     1.0  0.09630  0.40183  0.92334  1.0000
  H   H1207     1.0  0.10830  0.40238  0.90711  1.0000
  H   H1208     1.0  0.09400  0.41663  0.90948  1.0000
  H   H1209     1.0  0.14831  0.46141  0.90993  1.0000
  C   C754      1.0  0.04421  0.38506  0.85262  1.0000
  H   H1210     1.0  0.24463  0.33708  0.77945  1.0000
  H   H1211     1.0  0.14798  0.44387  0.81646  1.0000
  H   H1212     1.0  0.27600  0.65101  0.79264  1.0000
  C   C755      1.0  0.17607  0.58241  0.95432  1.0000
  H   H1213     1.0  0.18578  0.32395  0.80004  1.0000
  C   C756      1.0  0.21009  0.33192  0.80990  1.0000
  H   H1214     1.0  0.16194  0.46841  0.89747  1.0000
  H   H1215     1.0  0.04236  0.38949  0.84204  1.0000
  C   C757      1.0  0.15001  0.32581  0.77003  1.0000
  H   H1216     1.0  0.22625  0.37283  0.76793  1.0000
  C   C758      1.0  0.23703  0.37192  0.76902  1.0000
  H   H1217     1.0  0.02242  0.36538  0.82914  1.0000
  H   H1218     1.0  0.15140  0.48498  0.79575  1.0000
  S   S289      1.0  0.04354  0.34604  0.86975  1.0000
  H   H1219     1.0  0.23692  0.38096  0.77303  1.0000
  H   H1220     1.0  0.23223  0.36670  0.79664  1.0000
  H   H1221     1.0  0.13255  0.45701  0.81476  1.0000
  H   H1222     1.0  0.14362  0.45065  0.79995  1.0000
  C   C759      1.0  0.17413  0.32770  0.76222  1.0000
  C   C760      1.0  0.03172  0.40585  0.86064  1.0000
  C   C761      1.0  0.14748  0.49150  0.85274  1.0000
  C   C762      1.0  0.16626  0.45897  0.80021  1.0000
  N   N76       1.0  0.24196  0.35879  0.77817  1.0000
  H   H1223     1.0  0.14537  0.47464  0.78799  1.0000
  H   H1224     1.0  0.24946  0.34692  0.76235  1.0000
  C   C763      1.0  0.24191  0.34715  0.77238  1.0000
  C   C764      1.0  0.23268  0.35797  0.79199  1.0000
  N   N77       1.0  0.14156  0.48160  0.89814  1.0000
  H   H1225     1.0  0.25670  0.36666  0.78369  1.0000
  H   H1226     1.0  0.15741  0.47555  0.81859  1.0000
  H   H1227     1.0  0.03665  0.37288  0.87898  1.0000
  C   C765      1.0  0.02083  0.36057  0.83996  1.0000
  N   N78       1.0  0.03271  0.39086  0.86310  1.0000
  H   H1228     1.0  0.12984  0.48836  0.91675  1.0000
  H   H1229     1.0  0.13455  0.48092  0.80292  1.0000
  H   H1230     1.0  0.02692  0.38816  0.88516  1.0000
  N   N79       1.0  0.15172  0.46415  0.80700  1.0000
  N   N80       1.0  0.09693  0.60998  0.89025  1.0000
  H   H1231     1.0  0.16682  0.45636  0.79025  1.0000
  H   H1232     1.0  0.13072  0.65692  0.81817  1.0000
  H   H1233     1.0  0.08425  0.65434  0.89855  1.0000
  H   H1234     1.0  0.15328  0.48168  0.85045  1.0000
  C   C766      1.0  0.19339  0.34078  0.90822  1.0000
  H   H1235     1.0  0.09601  0.59240  0.90702  1.0000
  H   H1236     1.0  0.16518  0.49668  0.85618  1.0000
  H   H1237     1.0  0.13510  0.46679  0.89137  1.0000
  C   C767      1.0  0.12837  0.48441  0.90831  1.0000
  H   H1238     1.0  0.09519  0.62984  0.89418  1.0000
  H   H1239     1.0  0.14886  0.47401  0.87937  1.0000
  H   H1240     1.0  0.03341  0.65117  0.89063  1.0000
  H   H1241     1.0  0.12923  0.32473  0.80557  1.0000
  H   H1242     1.0  0.12417  0.47492  0.91305  1.0000
  C   C768      1.0  0.00561  0.65090  0.91746  1.0000
  H   H1243     1.0  0.18951  0.65289  0.86514  1.0000
  Fe  Fe150     1.0  0.23978  0.63231  0.81849  1.0000
  S   S290      1.0  0.23291  0.62763  0.84148  1.0000
  S   S291      1.0  0.26236  0.62561  0.80873  1.0000
  Fe  Fe151     1.0  0.21403  0.62341  0.83776  1.0000
  S   S292      1.0  0.20425  0.60736  0.85393  1.0000
  H   H1244     1.0  0.18461  0.61710  0.88054  1.0000
  S   S293      1.0  0.22187  0.62600  0.81485  1.0000
  H   H1245     1.0  0.14761  0.64929  0.80924  1.0000
  C   C769      1.0  0.15605  0.59138  0.94391  1.0000
  H   H1246     1.0  0.19773  0.53203  0.85038  1.0000
  C   C770      1.0  0.19888  0.54490  0.82386  1.0000
  H   H1247     1.0  0.13209  0.32799  0.87853  1.0000
  S   S294      1.0  0.27614  0.63186  0.74417  1.0000
  Fe  Fe152     1.0  0.14634  0.63372  0.92225  1.0000
  S   S295      1.0  0.15885  0.61836  0.90919  1.0000
  H   H1248     1.0  0.29758  0.58701  0.74459  1.0000
  H   H1249     1.0  0.10447  0.60678  0.86962  1.0000
  S   S296      1.0  0.15894  0.64472  0.92861  1.0000
  Fe  Fe153     1.0  0.11865  0.56766  0.86571  1.0000
  S   S297      1.0  0.12513  0.55063  0.88290  1.0000
  S   S298      1.0  0.09638  0.57521  0.86400  1.0000
  Fe  Fe154     1.0  0.14750  0.57351  0.85447  1.0000
  S   S299      1.0  0.15641  0.55729  0.87096  1.0000
  S   S300      1.0  0.16002  0.58637  0.83699  1.0000
  Fe  Fe155     1.0  0.14404  0.54431  0.86685  1.0000
  S   S301      1.0  0.15553  0.52285  0.86392  1.0000
  Fe  Fe156     1.0  0.13674  0.56521  0.88531  1.0000
  S   S302      1.0  0.13356  0.56995  0.90619  1.0000
  S   S303      1.0  0.13639  0.56010  0.84939  1.0000
  S   S304      1.0  0.12903  0.58261  0.86913  1.0000
  H   H1250     1.0  0.11609  0.32623  0.86508  1.0000
  S   S305      1.0  0.05591  0.64379  0.86919  1.0000
  S   S306      1.0  0.08996  0.63865  0.83907  1.0000
  C   C771      1.0  0.09851  0.61874  0.89873  1.0000
  S   S307      1.0  0.06144  0.63969  0.90583  1.0000
  H   H1251     1.0  0.12027  0.49226  0.90342  1.0000
  C   C772      1.0  0.14695  0.51300  0.85871  1.0000
  C   C773      1.0  0.13287  0.51739  0.85814  1.0000
  H   H1252     1.0  0.14722  0.60017  0.94197  1.0000
  H   H1253     1.0  0.26354  0.35878  0.76897  1.0000
  S   S308      1.0  0.15535  0.63188  0.96737  1.0000
  C   C774      1.0  0.18761  0.53592  0.84712  1.0000
  H   H1254     1.0  0.12713  0.52734  0.86031  1.0000
  H   H1255     1.0  0.11517  0.51218  0.85463  1.0000
  C   C775      1.0  0.09408  0.59247  0.85536  1.0000
  C   C776      1.0  0.10544  0.59767  0.84664  1.0000
  C   C777      1.0  0.10395  0.61183  0.84115  1.0000
  C   C778      1.0  0.09117  0.62084  0.84456  1.0000
  C   C779      1.0  0.07968  0.61556  0.85282  1.0000
  C   C780      1.0  0.08110  0.60137  0.85810  1.0000
  H   H1256     1.0  0.11544  0.59080  0.84430  1.0000
  H   H1257     1.0  0.11283  0.61585  0.83464  1.0000
  H   H1258     1.0  0.06968  0.62238  0.85505  1.0000
  H   H1259     1.0  0.07225  0.59734  0.86468  1.0000
  C   C781      1.0  0.13332  0.49571  0.85247  1.0000
  H   H1260     1.0  0.00524  0.63635  0.80445  1.0000
  C   C782      1.0  0.06875  0.63794  0.92980  1.0000
  H   H1261     1.0  0.15125  0.58883  0.97139  1.0000
  H   H1262     1.0  0.06051  0.63235  0.93458  1.0000
  C   C783      1.0  0.22304  0.38029  0.73677  1.0000
  C   C784      1.0  0.15084  0.60593  0.90757  1.0000
  C   C785      1.0  0.15749  0.59797  0.89759  1.0000
  C   C786      1.0  0.15191  0.58726  0.89673  1.0000
  C   C787      1.0  0.13989  0.58420  0.90615  1.0000
  C   C788      1.0  0.13310  0.59230  0.91601  1.0000
  C   C789      1.0  0.13841  0.60333  0.91655  1.0000
  H   H1263     1.0  0.16707  0.59997  0.89057  1.0000
  H   H1264     1.0  0.15720  0.58105  0.88912  1.0000
  H   H1265     1.0  0.12373  0.59001  0.92326  1.0000
  H   H1266     1.0  0.13307  0.60957  0.92413  1.0000
  Fe  Fe157     1.0  0.14463  0.64140  0.94940  1.0000
  S   S309      1.0  0.13725  0.36483  0.98087  1.0000
  H   H1267     1.0  0.02709  0.64203  0.86643  1.0000
  C   C790      1.0  0.20540  0.32802  0.89032  1.0000
  H   H1268     1.0  0.19029  0.35030  0.90060  1.0000
  H   H1269     1.0  0.20933  0.54138  0.82649  1.0000
  C   C791      1.0  0.19144  0.60226  0.84926  1.0000
  C   C792      1.0  0.18304  0.59408  0.85924  1.0000
  C   C793      1.0  0.17297  0.58960  0.85563  1.0000
  C   C794      1.0  0.17148  0.59309  0.84198  1.0000
  C   C795      1.0  0.17978  0.60140  0.83203  1.0000
  C   C796      1.0  0.18969  0.60609  0.83569  1.0000
  H   H1270     1.0  0.18435  0.59115  0.86976  1.0000
  H   H1271     1.0  0.16650  0.58332  0.86337  1.0000
  H   H1272     1.0  0.17865  0.60410  0.82146  1.0000
  H   H1273     1.0  0.19615  0.61241  0.82796  1.0000
  C   C797      1.0  0.26601  0.62642  0.79093  1.0000
  C   C798      1.0  0.27986  0.62508  0.78360  1.0000
  C   C799      1.0  0.28301  0.62662  0.76925  1.0000
  C   C800      1.0  0.27235  0.62928  0.76219  1.0000
  C   C801      1.0  0.25852  0.63024  0.76955  1.0000
  C   C802      1.0  0.25533  0.62902  0.78389  1.0000
  H   H1274     1.0  0.28814  0.62304  0.78902  1.0000
  H   H1275     1.0  0.29371  0.62564  0.76370  1.0000
  H   H1276     1.0  0.25024  0.63228  0.76413  1.0000
  H   H1277     1.0  0.24462  0.63010  0.78948  1.0000
  S   S310      1.0  0.13318  0.62892  0.94336  1.0000
  H   H1278     1.0  0.08053  0.60558  0.88386  1.0000
  H   H1279     1.0  0.24376  0.37283  0.75846  1.0000
  H   H1280     1.0  0.04532  0.38619  0.87808  1.0000
  H   H1281     1.0  0.07402  0.63662  0.94902  1.0000
  H   H1282     1.0  0.13911  0.33049  0.77310  1.0000
  H   H1283     1.0  0.01554  0.62935  0.82506  1.0000
  H   H1284     1.0  0.18279  0.58443  0.96012  1.0000
  H   H1285     1.0  0.10076  0.58842  0.89019  1.0000
  H   H1286     1.0  0.07819  0.62322  0.88476  1.0000
  H   H1287     1.0  0.01306  0.33385  0.83533  1.0000
  H   H1288     1.0  0.21312  0.63422  0.87822  1.0000
  C   C803      1.0  0.07645  0.64028  0.93798  1.0000
  H   H1289     1.0  0.01225  0.64695  0.82673  1.0000
  H   H1290     1.0  0.18282  0.57975  0.94451  1.0000
  H   H1291     1.0  0.01154  0.62628  0.86903  1.0000
  H   H1292     1.0  0.17720  0.60451  0.93343  1.0000
  C   C804      1.0  0.00621  0.32633  0.84025  1.0000
  H   H1293     1.0  0.19072  0.56894  0.83245  1.0000
  C   C805      1.0  0.10189  0.59535  0.89630  1.0000
  H   H1294     1.0  0.18518  0.52743  0.84401  1.0000
  H   H1295     1.0  0.08764  0.32565  0.82988  1.0000
  H   H1296     1.0  0.18192  0.33385  0.75909  1.0000
  H   H1297     1.0  0.19091  0.62031  0.90062  1.0000
  H   H1298     1.0  0.07544  0.61048  0.90029  1.0000
  C   C806      1.0  0.15182  0.63958  0.98174  1.0000
  H   H1299     1.0  0.00974  0.64102  0.92409  1.0000
  H   H1300     1.0  0.19702  0.53659  0.82000  1.0000
  C   C807      1.0  0.15426  0.50010  0.85586  1.0000
  H   H1301     1.0  0.19928  0.55405  0.81522  1.0000
  H   H1302     1.0  0.20093  0.55634  0.84365  1.0000
  H   H1303     1.0  0.17942  0.53815  0.85635  1.0000
  C   C808      1.0  0.15594  0.59762  0.96494  1.0000
  H   H1304     1.0  0.01050  0.39285  0.86964  1.0000
  H   H1305     1.0  0.17703  0.60923  0.94917  1.0000
  H   H1306     1.0  0.22103  0.36067  0.75006  1.0000
  C   C809      1.0  0.12610  0.50878  0.85495  1.0000
  H   H1307     1.0  0.10147  0.62428  0.87103  1.0000
  C   C810      1.0  0.00746  0.63729  0.86732  1.0000
  C   C811      1.0  0.19070  0.55937  0.84061  1.0000
  H   H1308     1.0  0.16580  0.55570  0.84069  1.0000
  H   H1309     1.0  0.17155  0.54478  0.82848  1.0000
  C   C812      1.0  0.01630  0.64619  0.86586  1.0000
  S   S311      1.0  0.11179  0.33660  0.82789  1.0000
  N   N81       1.0  0.16467  0.59446  0.95168  1.0000
  N   N82       1.0  0.19123  0.63491  0.88140  1.0000
  C   C813      1.0  0.09028  0.65217  0.91769  1.0000
  C   C814      1.0  0.20596  0.62951  0.87539  1.0000
  H   H1310     1.0  0.01863  0.32485  0.81402  1.0000
  C   C815      1.0  0.07146  0.64301  0.91559  1.0000
  Fe  Fe158     1.0  0.07421  0.65071  0.85379  1.0000
  C   C816      1.0  0.08212  0.61241  0.88978  1.0000
  H   H1311     1.0  0.09202  0.61678  0.90934  1.0000
  S   S312      1.0  0.20273  0.32525  0.85649  1.0000
  H   H1312     1.0  0.15155  0.58224  0.94956  1.0000
  H   H1313     1.0  0.12081  0.33093  0.90832  1.0000
  H   H1314     1.0  0.28500  0.60280  0.74157  1.0000
  H   H1315     1.0  0.17805  0.33707  0.89232  1.0000
  C   C817      1.0  0.00560  0.35203  0.86114  1.0000
  C   C818      1.0  0.08218  0.65024  0.90951  1.0000
  H   H1316     1.0  0.17100  0.63225  0.88148  1.0000
  H   H1317     1.0  0.18539  0.34126  0.91799  1.0000
  H   H1318     1.0  0.10952  0.61688  0.89963  1.0000
  H   H1319     1.0  0.01977  0.37702  0.86448  1.0000
  H   H1320     1.0  0.16415  0.65220  0.82849  1.0000
  C   C819      1.0  0.17063  0.60644  0.94356  1.0000
  H   H1321     1.0  0.20894  0.61812  0.87871  1.0000
  H   H1322     1.0  0.13136  0.48410  0.88163  1.0000
  H   H1323     1.0  0.17193  0.57318  0.96047  1.0000
  H   H1324     1.0  0.16219  0.58936  0.93365  1.0000
  H   H1325     1.0  0.18258  0.56219  0.84966  1.0000
  H   H1326     1.0  0.16230  0.61564  0.94139  1.0000
  C   C820      1.0  0.17424  0.55292  0.83189  1.0000
  H   H1327     1.0  0.11309  0.59312  0.89663  1.0000
  H   H1328     1.0  0.17396  0.56227  0.82346  1.0000
  S   S313      1.0  0.20640  0.38912  0.74398  1.0000
  H   H1329     1.0  0.01848  0.64414  0.89325  1.0000
  H   H1330     1.0  0.20795  0.63180  0.86398  1.0000
  C   C821      1.0  0.18222  0.62851  0.87709  1.0000
  C   C822      1.0  0.02515  0.64680  0.89865  1.0000
  S   S314      1.0  0.20197  0.64507  0.83667  1.0000
  H   H1331     1.0  0.20338  0.34121  0.91031  1.0000
  Fe  Fe159     1.0  0.21156  0.64833  0.81420  1.0000
  Fe  Fe160     1.0  0.22131  0.64953  0.83907  1.0000
  H   H1332     1.0  0.02954  0.41112  0.85030  1.0000
  H   H1333     1.0  0.03040  0.63710  0.90472  1.0000
  H   H1334     1.0  0.05431  0.38712  0.85283  1.0000
  N   N83       1.0  0.19465  0.32824  0.90321  1.0000
  C   C823      1.0  0.18902  0.63163  0.89656  1.0000
  H   H1335     1.0  0.17814  0.63607  0.90138  1.0000
  H   H1336     1.0  0.01731  0.39251  0.85168  1.0000
  S   S315      1.0  0.13141  0.65298  0.91498  1.0000
  S   S316      1.0  0.09604  0.65065  0.94291  1.0000
  H   H1337     1.0  0.31644  0.59993  0.73891  1.0000
  H   H1338     1.0  0.19431  0.65516  0.87970  1.0000
  C   C824      1.0  0.20615  0.32829  0.83849  1.0000
  H   H1339     1.0  0.21574  0.32809  0.89188  1.0000
  S   S317      1.0  0.23000  0.65486  0.81640  1.0000
  C   C825      1.0  0.14198  0.65372  0.81848  1.0000
  C   C826      1.0  0.14198  0.65189  0.98280  1.0000
  C   C827      1.0  0.16210  0.36804  0.98441  1.0000
  C   C828      1.0  0.00759  0.63774  0.82941  1.0000
  H   H1340     1.0  0.13586  0.65659  0.97503  1.0000
  H   H1341     1.0  0.00559  0.63434  0.84082  1.0000
  H   H1342     1.0  0.00230  0.65408  0.80547  1.0000
  H   H1343     1.0  0.13014  0.32461  0.85040  1.0000
  N   N84       1.0  0.01701  0.65672  0.90742  1.0000
  H   H1344     1.0  0.30354  0.61555  0.73654  1.0000
  H   H1345     1.0  0.14334  0.71136  0.17544  1.0000
  H   H1346     1.0  0.32980  0.86754  0.10019  1.0000
  C   C829      1.0  0.32708  0.91338  0.18366  1.0000
  S   S318      1.0  0.15548  0.67291  0.07624  1.0000
  C   C830      1.0  0.30721  0.80335  0.23076  1.0000
  C   C831      1.0  0.14013  0.65821  0.99389  1.0000
  H   H1347     1.0  0.11305  0.66751  0.21824  1.0000
  H   H1348     1.0  0.32116  0.88659  0.11294  1.0000
  H   H1349     1.0  0.31968  0.91971  0.03095  1.0000
  S   S319      1.0  0.05615  0.66964  0.15394  1.0000
  H   H1350     1.0  0.25874  0.71214  0.10207  1.0000
  H   H1351     1.0  0.10040  0.71253  0.08542  1.0000
  H   H1352     1.0  0.18615  0.71161  0.17205  1.0000
  H   H1353     1.0  0.25171  0.70451  0.11957  1.0000
  H   H1354     1.0  0.32694  0.89559  0.04306  1.0000
  H   H1355     1.0  0.33065  0.81309  0.20164  1.0000
  S   S320      1.0  0.23084  0.70389  0.09436  1.0000
  S   S321      1.0  0.21020  0.69216  0.07404  1.0000
  Fe  Fe161     1.0  0.22328  0.69484  0.11654  1.0000
  S   S322      1.0  0.23755  0.67856  0.12851  1.0000
  S   S323      1.0  0.20415  0.69070  0.11322  1.0000
  S   S324      1.0  0.10613  0.69871  0.18048  1.0000
  S   S325      1.0  0.13160  0.70497  0.22528  1.0000
  S   S326      1.0  0.13254  0.68738  0.20257  1.0000
  H   H1356     1.0  0.25582  0.85417  0.22114  1.0000
  C   C832      1.0  0.21120  0.67945  0.16555  1.0000
  C   C833      1.0  0.21953  0.68349  0.15258  1.0000
  C   C834      1.0  0.22799  0.67356  0.14517  1.0000
  N   N85       1.0  0.17693  0.67575  0.22133  1.0000
  H   H1357     1.0  0.20457  0.68717  0.17119  1.0000
  H   H1358     1.0  0.21937  0.69429  0.14830  1.0000
  C   C835      1.0  0.17170  0.67552  0.20939  1.0000
  S   S327      1.0  0.19933  0.72264  0.09507  1.0000
  H   H1359     1.0  0.27290  0.66776  0.23636  1.0000
  C   C836      1.0  0.07239  0.67428  0.18846  1.0000
  C   C837      1.0  0.08231  0.67518  0.17607  1.0000
  C   C838      1.0  0.09244  0.68294  0.17365  1.0000
  C   C839      1.0  0.09278  0.68974  0.18361  1.0000
  C   C840      1.0  0.08268  0.68909  0.19588  1.0000
  C   C841      1.0  0.07251  0.68137  0.19829  1.0000
  H   H1360     1.0  0.15880  0.75744  0.19913  1.0000
  H   H1361     1.0  0.10011  0.68355  0.16406  1.0000
  H   H1362     1.0  0.08265  0.69463  0.20345  1.0000
  H   H1363     1.0  0.06470  0.68089  0.20779  1.0000
  H   H1364     1.0  0.23546  0.72802  0.11950  1.0000
  C   C842      1.0  0.17770  0.71225  0.16731  1.0000
  H   H1365     1.0  0.27214  0.70727  0.12689  1.0000
  H   H1366     1.0  0.28946  0.70051  0.11831  1.0000
  H   H1367     1.0  0.17829  0.67565  0.12904  1.0000
  C   C843      1.0  0.17077  0.67825  0.07537  1.0000
  C   C844      1.0  0.17136  0.68412  0.08596  1.0000
  C   C845      1.0  0.18337  0.68850  0.08562  1.0000
  C   C846      1.0  0.19480  0.68721  0.07457  1.0000
  C   C847      1.0  0.19412  0.68153  0.06387  1.0000
  C   C848      1.0  0.18219  0.67692  0.06433  1.0000
  H   H1368     1.0  0.16252  0.68529  0.09447  1.0000
  H   H1369     1.0  0.18374  0.69301  0.09382  1.0000
  H   H1370     1.0  0.20285  0.68072  0.05520  1.0000
  H   H1371     1.0  0.18173  0.67266  0.05599  1.0000
  H   H1372     1.0  0.12026  0.76169  0.20781  1.0000
  C   C849      1.0  0.21099  0.66552  0.17093  1.0000
  C   C850      1.0  0.17900  0.65931  0.16224  1.0000
  H   H1373     1.0  0.26567  0.68455  0.13227  1.0000
  S   S328      1.0  0.17181  0.86296  0.23030  1.0000
  Fe  Fe162     1.0  0.21062  0.70153  0.09143  1.0000
  C   C851      1.0  0.32069  0.81258  0.20865  1.0000
  H   H1374     1.0  0.16064  0.68360  0.16335  1.0000
  H   H1375     1.0  0.31200  0.88339  0.13063  1.0000
  H   H1376     1.0  0.32678  0.85064  0.10855  1.0000
  C   C852      1.0  0.15357  0.71219  0.16927  1.0000
  C   C853      1.0  0.18709  0.67986  0.14943  1.0000
  H   H1377     1.0  0.16039  0.68018  0.21061  1.0000
  H   H1378     1.0  0.32612  0.85317  0.13783  1.0000
  C   C854      1.0  0.31632  0.85599  0.13400  1.0000
  C   C855      1.0  0.16275  0.67964  0.15376  1.0000
  C   C856      1.0  0.11899  0.68022  0.08306  1.0000
  C   C857      1.0  0.22458  0.88897  0.22953  1.0000
  S   S329      1.0  0.10208  0.70164  0.22028  1.0000
  C   C858      1.0  0.16442  0.71145  0.17545  1.0000
  S   S330      1.0  0.16133  0.70953  0.19335  1.0000
  H   H1379     1.0  0.13200  0.70091  0.07770  1.0000
  H   H1380     1.0  0.12446  0.76653  0.18932  1.0000
  H   H1381     1.0  0.18421  0.91116  0.18895  1.0000
  H   H1382     1.0  0.10956  0.70593  0.07020  1.0000
  C   C859      1.0  0.10435  0.70299  0.08120  1.0000
  Fe  Fe163     1.0  0.11293  0.70217  0.19812  1.0000
  H   H1383     1.0  0.14744  0.71455  0.15026  1.0000
  C   C860      1.0  0.32009  0.80391  0.22170  1.0000
  H   H1384     1.0  0.32892  0.81863  0.11373  1.0000
  H   H1385     1.0  0.12000  0.75020  0.19768  1.0000
  H   H1386     1.0  0.32326  0.90119  0.05912  1.0000
  S   S331      1.0  0.32214  0.75633  0.14720  1.0000
  C   C861      1.0  0.15591  0.71395  0.15498  1.0000
  N   N86       1.0  0.27320  0.69569  0.11197  1.0000
  C   C862      1.0  0.28232  0.69275  0.09880  1.0000
  H   H1387     1.0  0.12661  0.67234  0.08851  1.0000
  C   C863      1.0  0.27280  0.68270  0.12233  1.0000
  H   H1388     1.0  0.29314  0.68769  0.09999  1.0000
  H   H1389     1.0  0.28277  0.70239  0.09079  1.0000
  H   H1390     1.0  0.27842  0.68582  0.09478  1.0000
  H   H1391     1.0  0.27873  0.71507  0.10943  1.0000
  H   H1392     1.0  0.28329  0.67743  0.12439  1.0000
  H   H1393     1.0  0.26878  0.67542  0.11890  1.0000
  H   H1394     1.0  0.25467  0.69544  0.10618  1.0000
  S   S332      1.0  0.17192  0.71533  0.12911  1.0000
  S   S333      1.0  0.22861  0.74272  0.09325  1.0000
  S   S334      1.0  0.12116  0.72080  0.19633  1.0000
  C   C864      1.0  0.33131  0.89965  0.04959  1.0000
  C   C865      1.0  0.32854  0.89656  0.14694  1.0000
  H   H1395     1.0  0.15484  0.67356  0.15506  1.0000
  C   C866      1.0  0.25898  0.70229  0.10983  1.0000
  N   N87       1.0  0.17708  0.67135  0.15082  1.0000
  C   C867      1.0  0.27863  0.70502  0.11686  1.0000
  Fe  Fe164     1.0  0.13977  0.70592  0.20274  1.0000
  H   H1396     1.0  0.33247  0.78214  0.09800  1.0000
  C   C868      1.0  0.10666  0.68897  0.10360  1.0000
  C   C869      1.0  0.12605  0.69830  0.08849  1.0000
  H   H1397     1.0  0.09790  0.68401  0.10456  1.0000
  H   H1398     1.0  0.11375  0.68159  0.11002  1.0000
  H   H1399     1.0  0.10226  0.69817  0.10833  1.0000
  H   H1400     1.0  0.13354  0.69070  0.09435  1.0000
  H   H1401     1.0  0.12276  0.70775  0.09283  1.0000
  H   H1402     1.0  0.11029  0.67538  0.08358  1.0000
  Fe  Fe165     1.0  0.21895  0.72396  0.10029  1.0000
  H   H1403     1.0  0.31396  0.84641  0.13303  1.0000
  N   N88       1.0  0.11401  0.69262  0.08910  1.0000
  C   C870      1.0  0.15486  0.82478  0.23544  1.0000
  H   H1404     1.0  0.31174  0.81612  0.17521  1.0000
  Fe  Fe166     1.0  0.12234  0.68787  0.22458  1.0000
  H   H1405     1.0  0.12445  0.68265  0.07208  1.0000
  H   H1406     1.0  0.09517  0.69897  0.08149  1.0000
  C   C871      1.0  0.33097  0.76759  0.14976  1.0000
  H   H1407     1.0  0.19042  0.71406  0.14676  1.0000
  H   H1408     1.0  0.30440  0.87730  0.10640  1.0000
  S   S335      1.0  0.21265  0.71495  0.12275  1.0000
  H   H1409     1.0  0.30145  0.86035  0.11486  1.0000
  H   H1410     1.0  0.14709  0.77067  0.18996  1.0000
  Fe  Fe167     1.0  0.19410  0.71188  0.11720  1.0000
  H   H1411     1.0  0.08223  0.66985  0.16838  1.0000
  C   C872      1.0  0.18012  0.71368  0.15298  1.0000
  C   C873      1.0  0.16920  0.71453  0.14681  1.0000
  Fe  Fe168     1.0  0.11236  0.71892  0.21900  1.0000
  H   H1412     1.0  0.22818  0.90919  0.22702  1.0000
  H   H1413     1.0  0.17701  0.66256  0.17219  1.0000
  C   C874      1.0  0.32983  0.78116  0.14225  1.0000
  H   H1414     1.0  0.32516  0.90370  0.18238  1.0000
  H   H1415     1.0  0.15253  0.73448  0.21037  1.0000
  C   C875      1.0  0.25345  0.73456  0.12045  1.0000
  H   H1416     1.0  0.13561  0.73241  0.21062  1.0000
  C   C876      1.0  0.17958  0.66671  0.13782  1.0000
  S   S336      1.0  0.02233  0.66389  0.14592  1.0000
  H   H1417     1.0  0.13720  0.74380  0.22019  1.0000
  H   H1418     1.0  0.25448  0.72775  0.13025  1.0000
  C   C877      1.0  0.24267  0.73469  0.11437  1.0000
  C   C878      1.0  0.32643  0.81475  0.07819  1.0000
  C   C879      1.0  0.29494  0.81131  0.22677  1.0000
  H   H1419     1.0  0.29772  0.89662  0.17019  1.0000
  S   S337      1.0  0.31819  0.93701  0.14859  1.0000
  Fe  Fe169     1.0  0.29843  0.78466  0.10890  1.0000
  S   S338      1.0  0.30780  0.76198  0.11396  1.0000
  S   S339      1.0  0.30739  0.79823  0.08916  1.0000
  Fe  Fe170     1.0  0.27632  0.78349  0.13515  1.0000
  S   S340      1.0  0.28410  0.76106  0.14272  1.0000
  S   S341      1.0  0.25860  0.79565  0.14824  1.0000
  Fe  Fe171     1.0  0.30540  0.76566  0.13502  1.0000
  C   C880      1.0  0.30404  0.86962  0.11631  1.0000
  Fe  Fe172     1.0  0.28561  0.75929  0.12112  1.0000
  H   H1420     1.0  0.17236  0.84726  0.21109  1.0000
  S   S342      1.0  0.29742  0.78833  0.12963  1.0000
  S   S343      1.0  0.27643  0.78166  0.11396  1.0000
  C   C881      1.0  0.26302  0.74301  0.11382  1.0000
  H   H1421     1.0  0.30784  0.86025  0.14209  1.0000
  H   H1422     1.0  0.19936  0.87744  0.21933  1.0000
  H   H1423     1.0  0.19857  0.89479  0.22035  1.0000
  C   C882      1.0  0.31844  0.81080  0.10291  1.0000
  H   H1424     1.0  0.16364  0.82632  0.21376  1.0000
  H   H1425     1.0  0.30029  0.78281  0.18537  1.0000
  H   H1426     1.0  0.14276  0.76619  0.20843  1.0000
  H   H1427     1.0  0.15855  0.67076  0.23593  1.0000
  C   C883      1.0  0.12569  0.75778  0.19823  1.0000
  N   N89       1.0  0.31736  0.86611  0.12080  1.0000
  H   H1428     1.0  0.27173  0.85746  0.22226  1.0000
  C   C884      1.0  0.29983  0.80989  0.15811  1.0000
  Fe  Fe173     1.0  0.29769  0.86782  0.17029  1.0000
  S   S344      1.0  0.28060  0.87695  0.15876  1.0000
  S   S345      1.0  0.31843  0.87364  0.16091  1.0000
  Fe  Fe174     1.0  0.28182  0.84705  0.19051  1.0000
  S   S346      1.0  0.26360  0.85412  0.18029  1.0000
  S   S347      1.0  0.27988  0.83029  0.20947  1.0000
  Fe  Fe175     1.0  0.27971  0.85513  0.16057  1.0000
  S   S348      1.0  0.28145  0.84855  0.14108  1.0000
  Fe  Fe176     1.0  0.26619  0.87516  0.17960  1.0000
  S   S349      1.0  0.24761  0.89192  0.18469  1.0000
  S   S350      1.0  0.29771  0.84595  0.17086  1.0000
  S   S351      1.0  0.28345  0.86813  0.19116  1.0000
  C   C885      1.0  0.29551  0.82025  0.21389  1.0000
  H   H1429     1.0  0.32355  0.78487  0.13463  1.0000
  H   H1430     1.0  0.33028  0.87639  0.12613  1.0000
  H   H1431     1.0  0.15838  0.74111  0.18528  1.0000
  C   C886      1.0  0.22688  0.87784  0.22322  1.0000
  C   C887      1.0  0.30840  0.82096  0.20484  1.0000
  N   N90       1.0  0.29972  0.80312  0.17268  1.0000
  H   H1432     1.0  0.32239  0.91449  0.19447  1.0000
  H   H1433     1.0  0.17221  0.66025  0.13843  1.0000
  H   H1434     1.0  0.30892  0.82796  0.19495  1.0000
  C   C888      1.0  0.23719  0.90127  0.20851  1.0000
  C   C889      1.0  0.23971  0.89013  0.20223  1.0000
  C   C890      1.0  0.23471  0.87831  0.20964  1.0000
  H   H1435     1.0  0.29777  0.92154  0.16510  1.0000
  H   H1436     1.0  0.24091  0.91048  0.20277  1.0000
  H   H1437     1.0  0.23649  0.86974  0.20473  1.0000
  H   H1438     1.0  0.24952  0.75893  0.08538  1.0000
  C   C891      1.0  0.14720  0.74608  0.18557  1.0000
  H   H1439     1.0  0.21354  0.88153  0.19537  1.0000
  H   H1440     1.0  0.14659  0.75437  0.17618  1.0000
  S   S352      1.0  0.27761  0.74092  0.12077  1.0000
  H   H1441     1.0  0.19159  0.87297  0.20077  1.0000
  C   C892      1.0  0.19349  0.88827  0.21706  1.0000
  H   H1442     1.0  0.20720  0.89575  0.18268  1.0000
  C   C893      1.0  0.16688  0.84268  0.22107  1.0000
  C   C894      1.0  0.14762  0.76191  0.19896  1.0000
  C   C895      1.0  0.32425  0.92308  0.03783  1.0000
  C   C896      1.0  0.26331  0.81135  0.14600  1.0000
  C   C897      1.0  0.26003  0.81803  0.15700  1.0000
  C   C898      1.0  0.26533  0.82970  0.15553  1.0000
  C   C899      1.0  0.27371  0.83475  0.14299  1.0000
  C   C900      1.0  0.27658  0.82830  0.13190  1.0000
  C   C901      1.0  0.27141  0.81661  0.13342  1.0000
  H   H1443     1.0  0.25375  0.81397  0.16675  1.0000
  H   H1444     1.0  0.26302  0.83470  0.16410  1.0000
  H   H1445     1.0  0.28303  0.83219  0.12218  1.0000
  H   H1446     1.0  0.27380  0.81163  0.12480  1.0000
  N   N91       1.0  0.14052  0.75146  0.19828  1.0000
  H   H1447     1.0  0.22278  0.86884  0.22881  1.0000
  C   C902      1.0  0.24139  0.74323  0.10157  1.0000
  C   C903      1.0  0.16193  0.83083  0.22258  1.0000
  C   C904      1.0  0.18603  0.88395  0.19864  1.0000
  H   H1448     1.0  0.31200  0.80020  0.18763  1.0000
  H   H1449     1.0  0.18555  0.68355  0.15905  1.0000
  H   H1450     1.0  0.29522  0.87401  0.12410  1.0000
  H   H1451     1.0  0.16240  0.69447  0.22506  1.0000
  H   H1452     1.0  0.18984  0.91429  0.20270  1.0000
  H   H1453     1.0  0.29877  0.82122  0.15640  1.0000
  C   C905      1.0  0.10449  0.66613  0.21435  1.0000
  H   H1454     1.0  0.26868  0.75867  0.09615  1.0000
  H   H1455     1.0  0.29165  0.78640  0.17133  1.0000
  H   H1456     1.0  0.31583  0.92534  0.04690  1.0000
  C   C906      1.0  0.31780  0.80892  0.09019  1.0000
  H   H1457     1.0  0.19038  0.66055  0.13525  1.0000
  H   H1458     1.0  0.18285  0.88865  0.22369  1.0000
  C   C907      1.0  0.31749  0.91969  0.15058  1.0000
  C   C908      1.0  0.32033  0.87868  0.12268  1.0000
  C   C909      1.0  0.25053  0.75221  0.09525  1.0000
  C   C910      1.0  0.31757  0.89144  0.15657  1.0000
  C   C911      1.0  0.30630  0.90051  0.16285  1.0000
  C   C912      1.0  0.30632  0.91460  0.15993  1.0000
  C   C913      1.0  0.20719  0.89222  0.19385  1.0000
  H   H1459     1.0  0.21272  0.89881  0.19647  1.0000
  N   N92       1.0  0.23532  0.77765  0.13202  1.0000
  C   C914      1.0  0.22819  0.77080  0.12591  1.0000
  C   C915      1.0  0.22581  0.78235  0.14428  1.0000
  C   C916      1.0  0.23961  0.78963  0.12177  1.0000
  C   C917      1.0  0.24774  0.76782  0.13611  1.0000
  H   H1460     1.0  0.22497  0.76158  0.13326  1.0000
  H   H1461     1.0  0.23514  0.76721  0.11660  1.0000
  H   H1462     1.0  0.21874  0.77787  0.12271  1.0000
  H   H1463     1.0  0.23097  0.78764  0.14899  1.0000
  H   H1464     1.0  0.21629  0.78977  0.14162  1.0000
  H   H1465     1.0  0.22250  0.77356  0.15230  1.0000
  H   H1466     1.0  0.24663  0.78650  0.11227  1.0000
  H   H1467     1.0  0.24531  0.79487  0.12594  1.0000
  H   H1468     1.0  0.23048  0.79740  0.11864  1.0000
  H   H1469     1.0  0.25310  0.77247  0.14121  1.0000
  H   H1470     1.0  0.25542  0.76454  0.12705  1.0000
  H   H1471     1.0  0.24504  0.75835  0.14338  1.0000
  C   C918      1.0  0.26133  0.75213  0.10137  1.0000
  C   C919      1.0  0.30049  0.78825  0.17447  1.0000
  H   H1472     1.0  0.30963  0.80582  0.15119  1.0000
  H   H1473     1.0  0.32182  0.80038  0.17034  1.0000
  H   H1474     1.0  0.29111  0.80821  0.15465  1.0000
  H   H1475     1.0  0.18562  0.88694  0.18755  1.0000
  H   H1476     1.0  0.17516  0.88439  0.20477  1.0000
  H   H1477     1.0  0.28568  0.82052  0.18025  1.0000
  C   C920      1.0  0.31183  0.80504  0.17664  1.0000
  H   H1478     1.0  0.19801  0.67401  0.14700  1.0000
  C   C921      1.0  0.32836  0.91069  0.14377  1.0000
  C   C922      1.0  0.22992  0.90057  0.22220  1.0000
  H   H1479     1.0  0.28500  0.81060  0.23374  1.0000
  C   C923      1.0  0.32870  0.86013  0.11027  1.0000
  H   H1480     1.0  0.16100  0.68878  0.14526  1.0000
  H   H1481     1.0  0.19759  0.67666  0.20934  1.0000
  H   H1482     1.0  0.14213  0.73811  0.18479  1.0000
  H   H1483     1.0  0.17408  0.90819  0.20628  1.0000
  H   H1484     1.0  0.32594  0.81343  0.06829  1.0000
  H   H1485     1.0  0.31027  0.78326  0.16811  1.0000
  C   C924      1.0  0.14155  0.74005  0.21040  1.0000
  H   H1486     1.0  0.31161  0.80681  0.11213  1.0000
  C   C925      1.0  0.18490  0.90729  0.19995  1.0000
  H   H1487     1.0  0.25753  0.67501  0.22941  1.0000
  H   H1488     1.0  0.28638  0.80463  0.19260  1.0000
  H   H1489     1.0  0.17710  0.68147  0.19968  1.0000
  C   C926      1.0  0.28672  0.80927  0.18149  1.0000
  H   H1490     1.0  0.27738  0.80784  0.17889  1.0000
  H   H1491     1.0  0.18595  0.68906  0.14100  1.0000
  N   N93       1.0  0.19291  0.89293  0.20236  1.0000
  H   H1492     1.0  0.17878  0.69683  0.21398  1.0000
  H   H1493     1.0  0.13264  0.66782  0.99456  1.0000
  H   H1494     1.0  0.10505  0.76475  0.23141  1.0000
  C   C927      1.0  0.17380  0.69004  0.22327  1.0000
  H   H1495     1.0  0.19652  0.67025  0.22758  1.0000
  H   H1496     1.0  0.10726  0.66897  0.20291  1.0000
  S   S353      1.0  0.14601  0.66111  0.01726  1.0000
  C   C928      1.0  0.19215  0.67038  0.21877  1.0000
  H   H1497     1.0  0.14612  0.66324  0.21855  1.0000
  H   H1498     1.0  0.32750  0.93289  0.03217  1.0000
  C   C929      1.0  0.32817  0.81768  0.10377  1.0000
  H   H1499     1.0  0.32122  0.92204  0.17694  1.0000
  H   H1500     1.0  0.27098  0.66196  0.22215  1.0000
  S   S354      1.0  0.09275  0.65975  0.12925  1.0000
  C   C930      1.0  0.22815  0.65962  0.15076  1.0000
  C   C931      1.0  0.16499  0.84843  0.23246  1.0000
  C   C932      1.0  0.26045  0.85859  0.22715  1.0000
  H   H1501     1.0  0.11907  0.65786  0.11073  1.0000
  H   H1502     1.0  0.25571  0.86980  0.22586  1.0000
  C   C933      1.0  0.17009  0.66707  0.23382  1.0000
  H   H1503     1.0  0.33071  0.91344  0.10317  1.0000
  S   S355      1.0  0.06030  0.66373  0.19217  1.0000
  S   S356      1.0  0.13648  0.65895  0.05628  1.0000
  C   C934      1.0  0.26524  0.66531  0.23194  1.0000
  H   H1504     1.0  0.17342  0.66484  0.20791  1.0000
  H   H1505     1.0  0.09498  0.67370  0.21795  1.0000
  H   H1506     1.0  0.17755  0.69063  0.23222  1.0000
  S   S357      1.0  0.10376  0.73947  0.22541  1.0000
  H   H1507     1.0  0.19487  0.65971  0.21702  1.0000
  H   H1508     1.0  0.08111  0.65730  0.21677  1.0000
  Fe  Fe177     1.0  0.15555  0.65789  0.06370  1.0000
  S   S358      1.0  0.19918  0.66086  0.18632  1.0000
  H   H1509     1.0  0.24031  0.66075  0.23280  1.0000
  H   H1510     1.0  0.32754  0.74970  0.23645  1.0000
  H   H1511     1.0  0.25322  0.68456  0.35637  1.0000
  H   H1512     1.0  0.25671  0.68169  0.32660  1.0000
  S   S359      1.0  0.13393  0.98624  0.34094  1.0000
  C   C935      1.0  0.23011  0.69288  0.33568  1.0000
  C   C936      1.0  0.32847  0.67551  0.40184  1.0000
  Fe  Fe178     1.0  0.29055  0.67378  0.38345  1.0000
  S   S360      1.0  0.27423  0.67025  0.37472  1.0000
  H   H1513     1.0  0.10803  0.90949  0.47160  1.0000
  Fe  Fe179     1.0  0.29228  0.70111  0.36380  1.0000
  S   S361      1.0  0.27618  0.69990  0.35351  1.0000
  S   S362      1.0  0.30227  0.71927  0.35489  1.0000
  Fe  Fe180     1.0  0.26468  0.69255  0.37483  1.0000
  S   S363      1.0  0.24148  0.70008  0.38031  1.0000
  Fe  Fe181     1.0  0.28728  0.67800  0.35437  1.0000
  H   H1514     1.0  0.32561  0.69558  0.34818  1.0000
  S   S364      1.0  0.27992  0.69557  0.38532  1.0000
  S   S365      1.0  0.30443  0.67964  0.36299  1.0000
  C   C937      1.0  0.30668  0.72111  0.33690  1.0000
  C   C938      1.0  0.30724  0.71015  0.33100  1.0000
  C   C939      1.0  0.31211  0.71100  0.31681  1.0000
  C   C940      1.0  0.12220  0.73462  0.25715  1.0000
  H   H1515     1.0  0.30435  0.70080  0.33738  1.0000
  S   S366      1.0  0.12748  0.75105  0.27112  1.0000
  C   C941      1.0  0.24675  0.72554  0.36727  1.0000
  H   H1516     1.0  0.25761  0.72091  0.36707  1.0000
  H   H1517     1.0  0.33029  0.71464  0.36313  1.0000
  H   H1518     1.0  0.11966  0.88401  0.45975  1.0000
  H   H1519     1.0  0.30123  0.68001  0.26548  1.0000
  H   H1520     1.0  0.10719  0.75793  0.29522  1.0000
  C   C942      1.0  0.14152  0.89281  0.46187  1.0000
  C   C943      1.0  0.11068  0.74268  0.23789  1.0000
  S   S367      1.0  0.14947  0.80951  0.23695  1.0000
  H   H1521     1.0  0.32279  0.69998  0.37137  1.0000
  H   H1522     1.0  0.24286  0.66884  0.25269  1.0000
  S   S368      1.0  0.21541  0.88871  0.24664  1.0000
  H   H1523     1.0  0.22039  0.69454  0.34373  1.0000
  N   N94       1.0  0.24220  0.69426  0.34010  1.0000
  C   C944      1.0  0.12083  0.88341  0.47031  1.0000
  H   H1524     1.0  0.26430  0.69237  0.33234  1.0000
  C   C945      1.0  0.26433  0.85800  0.24936  1.0000
  H   H1525     1.0  0.14822  0.88276  0.46558  1.0000
  H   H1526     1.0  0.12342  0.91657  0.46551  1.0000
  C   C946      1.0  0.22252  0.72399  0.37410  1.0000
  H   H1527     1.0  0.31189  0.68052  0.39092  1.0000
  H   H1528     1.0  0.17306  0.79054  0.26862  1.0000
  C   C947      1.0  0.31747  0.67278  0.39802  1.0000
  H   H1529     1.0  0.23024  0.71027  0.35096  1.0000
  H   H1530     1.0  0.23165  0.68243  0.33363  1.0000
  H   H1531     1.0  0.25933  0.86913  0.24868  1.0000
  C   C948      1.0  0.11887  0.90797  0.46537  1.0000
  C   C949      1.0  0.00315  0.87429  0.35234  1.0000
  N   N95       1.0  0.25826  0.85159  0.24182  1.0000
  H   H1532     1.0  0.12671  0.72618  0.26453  1.0000
  C   C950      1.0  0.14897  0.98699  0.35932  1.0000
  C   C951      1.0  0.23661  0.71775  0.37361  1.0000
  C   C952      1.0  0.10065  0.90801  0.39537  1.0000
  C   C953      1.0  0.10997  0.75631  0.23850  1.0000
  H   H1533     1.0  0.24581  0.67326  0.35129  1.0000
  H   H1534     1.0  0.23487  0.68553  0.36143  1.0000
  H   H1535     1.0  0.31245  0.65786  0.31421  1.0000
  H   H1536     1.0  0.24856  0.70959  0.34619  1.0000
  H   H1537     1.0  0.17368  0.66707  0.24307  1.0000
  H   H1538     1.0  0.25834  0.66163  0.25951  1.0000
  C   C954      1.0  0.25485  0.69196  0.32916  1.0000
  C   C955      1.0  0.24410  0.68392  0.35283  1.0000
  H   H1539     1.0  0.20884  0.76981  0.41203  1.0000
  H   H1540     1.0  0.06886  0.76218  0.30679  1.0000
  C   C956      1.0  0.15271  0.85709  0.48589  1.0000
  H   H1541     1.0  0.25402  0.69984  0.31952  1.0000
  H   H1542     1.0  0.21464  0.71797  0.37895  1.0000
  H   H1543     1.0  0.23825  0.71634  0.33337  1.0000
  C   C957      1.0  0.23970  0.70822  0.34273  1.0000
  H   H1544     1.0  0.22837  0.70052  0.32608  1.0000
  N   N96       1.0  0.12733  0.89446  0.47064  1.0000
  H   H1545     1.0  0.03705  0.92096  0.34379  1.0000
  C   C958      1.0  0.31606  0.72295  0.30837  1.0000
  H   H1546     1.0  0.11031  0.88396  0.47720  1.0000
  C   C959      1.0  0.28089  0.66136  0.31963  1.0000
  C   C960      1.0  0.31057  0.73311  0.32844  1.0000
  C   C961      1.0  0.31508  0.73411  0.31415  1.0000
  C   C962      1.0  0.21863  0.73798  0.36808  1.0000
  S   S369      1.0  0.12231  0.66865  0.24109  1.0000
  N   N97       1.0  0.08667  0.76746  0.29152  1.0000
  H   H1547     1.0  0.31819  0.74336  0.30765  1.0000
  H   H1548     1.0  0.31798  0.75672  0.25902  1.0000
  Fe  Fe182     1.0  0.14026  0.79840  0.25797  1.0000
  S   S370      1.0  0.15132  0.77687  0.26549  1.0000
  H   H1549     1.0  0.14671  0.90104  0.46175  1.0000
  Fe  Fe183     1.0  0.11720  0.79785  0.28341  1.0000
  S   S371      1.0  0.12633  0.77632  0.29331  1.0000
  S   S372      1.0  0.09676  0.81055  0.29246  1.0000
  Fe  Fe184     1.0  0.14659  0.78316  0.28572  1.0000
  S   S373      1.0  0.16453  0.77787  0.29617  1.0000
  Fe  Fe185     1.0  0.13023  0.77176  0.27224  1.0000
  S   S374      1.0  0.13276  0.84438  0.48416  1.0000
  S   S375      1.0  0.13718  0.80517  0.27769  1.0000
  S   S376      1.0  0.11942  0.79280  0.26292  1.0000
  H   H1550     1.0  0.11507  0.76960  0.24862  1.0000
  Fe  Fe186     1.0  0.17148  0.77813  0.36438  1.0000
  S   S377      1.0  0.18819  0.78557  0.34708  1.0000
  S   S378      1.0  0.15315  0.77289  0.36028  1.0000
  Fe  Fe187     1.0  0.18279  0.78454  0.38582  1.0000
  S   S379      1.0  0.20018  0.79277  0.37024  1.0000
  S   S380      1.0  0.17979  0.78356  0.40838  1.0000
  Fe  Fe188     1.0  0.18413  0.80306  0.35759  1.0000
  S   S381      1.0  0.17987  0.82498  0.34625  1.0000
  Fe  Fe189     1.0  0.20253  0.77440  0.36138  1.0000
  S   S382      1.0  0.22439  0.76320  0.35404  1.0000
  S   S383      1.0  0.16643  0.79644  0.37399  1.0000
  S   S384      1.0  0.18617  0.76532  0.37798  1.0000
  Fe  Fe190     1.0  0.17816  0.86436  0.24898  1.0000
  S   S385      1.0  0.20079  0.85650  0.24931  1.0000
  H   H1551     1.0  0.07284  0.75495  0.29176  1.0000
  Fe  Fe191     1.0  0.17122  0.87430  0.27573  1.0000
  S   S386      1.0  0.19337  0.86768  0.27819  1.0000
  S   S387      1.0  0.15331  0.88245  0.29189  1.0000
  Fe  Fe192     1.0  0.19896  0.87619  0.25550  1.0000
  H   H1552     1.0  0.15710  0.85678  0.47517  1.0000
  Fe  Fe193     1.0  0.19319  0.84867  0.27175  1.0000
  S   S388      1.0  0.20246  0.82777  0.28253  1.0000
  S   S389      1.0  0.17673  0.88483  0.25356  1.0000
  S   S390      1.0  0.17065  0.85447  0.27092  1.0000
  Fe  Fe194     1.0  0.14846  0.93857  0.33063  1.0000
  S   S391      1.0  0.12830  0.95430  0.33204  1.0000
  S   S392      1.0  0.16309  0.93121  0.31210  1.0000
  Fe  Fe195     1.0  0.14851  0.93451  0.36066  1.0000
  S   S393      1.0  0.12847  0.94990  0.36502  1.0000
  S   S394      1.0  0.16161  0.92014  0.37505  1.0000
  Fe  Fe196     1.0  0.12127  0.94012  0.35193  1.0000
  S   S395      1.0  0.10056  0.93406  0.36013  1.0000
  Fe  Fe197     1.0  0.13706  0.96300  0.34496  1.0000
  S   S396      1.0  0.14055  0.92364  0.34932  1.0000
  S   S397      1.0  0.15786  0.94843  0.34180  1.0000
  Fe  Fe198     1.0  0.08071  0.84856  0.35153  1.0000
  S   S398      1.0  0.06912  0.86490  0.33693  1.0000
  S   S399      1.0  0.09683  0.82999  0.34569  1.0000
  Fe  Fe199     1.0  0.07161  0.86504  0.37392  1.0000
  S   S400      1.0  0.05935  0.88258  0.36117  1.0000
  S   S401      1.0  0.07200  0.86965  0.39396  1.0000
  Fe  Fe200     1.0  0.05158  0.86688  0.35555  1.0000
  Fe  Fe201     1.0  0.07743  0.87937  0.34373  1.0000
  S   S402      1.0  0.08677  0.89629  0.32856  1.0000
  S   S403      1.0  0.06253  0.84925  0.36990  1.0000
  S   S404      1.0  0.09042  0.86305  0.35679  1.0000
  Fe  Fe202     1.0  0.13248  0.87216  0.43652  1.0000
  S   S405      1.0  0.11814  0.85905  0.45102  1.0000
  S   S406      1.0  0.12436  0.89494  0.43075  1.0000
  Fe  Fe203     1.0  0.15662  0.84784  0.43329  1.0000
  S   S407      1.0  0.17795  0.84082  0.42099  1.0000
  Fe  Fe204     1.0  0.12745  0.84447  0.43659  1.0000
  S   S408      1.0  0.11737  0.83310  0.42750  1.0000
  S   S409      1.0  0.14015  0.85854  0.42122  1.0000
  S   S410      1.0  0.15034  0.86300  0.44714  1.0000
  C   C963      1.0  0.08503  0.85959  0.40279  1.0000
  C   C964      1.0  0.08657  0.86359  0.41417  1.0000
  C   C965      1.0  0.09684  0.85576  0.42149  1.0000
  C   C966      1.0  0.10536  0.84370  0.41766  1.0000
  C   C967      1.0  0.10391  0.83975  0.40619  1.0000
  C   C968      1.0  0.09386  0.84777  0.39867  1.0000
  H   H1553     1.0  0.07969  0.87268  0.41744  1.0000
  H   H1554     1.0  0.09782  0.85878  0.43040  1.0000
  H   H1555     1.0  0.11056  0.83053  0.40309  1.0000
  H   H1556     1.0  0.09272  0.84467  0.38987  1.0000
  C   C969      1.0  0.15138  0.91335  0.39072  1.0000
  C   C970      1.0  0.13816  0.92080  0.39577  1.0000
  C   C971      1.0  0.13007  0.91527  0.40832  1.0000
  C   C972      1.0  0.13501  0.90212  0.41562  1.0000
  C   C973      1.0  0.14818  0.89460  0.41052  1.0000
  C   C974      1.0  0.15643  0.90029  0.39816  1.0000
  H   H1557     1.0  0.13429  0.93095  0.39018  1.0000
  H   H1558     1.0  0.11993  0.92116  0.41228  1.0000
  H   H1559     1.0  0.15210  0.88445  0.41614  1.0000
  H   H1560     1.0  0.16667  0.89450  0.39432  1.0000
  C   C975      1.0  0.09690  0.92386  0.35095  1.0000
  C   C976      1.0  0.10529  0.92161  0.33822  1.0000
  C   C977      1.0  0.10207  0.91328  0.33121  1.0000
  C   C978      1.0  0.09072  0.90690  0.33715  1.0000
  C   C979      1.0  0.08248  0.90906  0.34994  1.0000
  C   C980      1.0  0.08541  0.91771  0.35670  1.0000
  H   H1561     1.0  0.11413  0.92642  0.33369  1.0000
  H   H1562     1.0  0.10848  0.91168  0.32130  1.0000
  H   H1563     1.0  0.07369  0.90427  0.35459  1.0000
  H   H1564     1.0  0.07886  0.91950  0.36650  1.0000
  C   C981      1.0  0.02046  0.85299  0.35257  1.0000
  C   C982      1.0  0.19056  0.81646  0.25573  1.0000
  H   H1565     1.0  0.18296  0.82369  0.24978  1.0000
  C   C983      1.0  0.19439  0.79676  0.27426  1.0000
  C   C984      1.0  0.15581  0.89622  0.29734  1.0000
  C   C985      1.0  0.14580  0.90183  0.30786  1.0000
  C   C986      1.0  0.14779  0.91275  0.31237  1.0000
  C   C987      1.0  0.15977  0.91810  0.30630  1.0000
  C   C988      1.0  0.16970  0.91251  0.29576  1.0000
  C   C989      1.0  0.16776  0.90157  0.29130  1.0000
  H   H1566     1.0  0.13650  0.89779  0.31252  1.0000
  H   H1567     1.0  0.14006  0.91706  0.32048  1.0000
  H   H1568     1.0  0.17898  0.91661  0.29104  1.0000
  H   H1569     1.0  0.17549  0.89735  0.28315  1.0000
  C   C990      1.0  0.04269  0.91100  0.34078  1.0000
  H   H1570     1.0  0.04221  0.93237  0.31928  1.0000
  H   H1571     1.0  0.11855  0.87471  0.39951  1.0000
  H   H1572     1.0  0.16744  0.80623  0.28488  1.0000
  C   C991      1.0  0.17970  0.79940  0.41177  1.0000
  C   C992      1.0  0.17627  0.80109  0.42540  1.0000
  C   C993      1.0  0.17567  0.81383  0.42824  1.0000
  C   C994      1.0  0.17885  0.82482  0.41748  1.0000
  C   C995      1.0  0.18249  0.82306  0.40387  1.0000
  C   C996      1.0  0.18272  0.81043  0.40100  1.0000
  H   H1573     1.0  0.17394  0.79261  0.43378  1.0000
  H   H1574     1.0  0.17297  0.81511  0.43878  1.0000
  H   H1575     1.0  0.18487  0.83157  0.39553  1.0000
  H   H1576     1.0  0.18521  0.80931  0.39045  1.0000
  C   C997      1.0  0.18668  0.82598  0.32859  1.0000
  C   C998      1.0  0.19723  0.81539  0.32383  1.0000
  C   C999      1.0  0.20201  0.81586  0.30966  1.0000
  C   C1000     1.0  0.19629  0.82698  0.30025  1.0000
  C   C1001     1.0  0.18571  0.83756  0.30503  1.0000
  C   C1002     1.0  0.18098  0.83711  0.31918  1.0000
  H   H1577     1.0  0.20196  0.80697  0.33105  1.0000
  H   H1578     1.0  0.21025  0.80771  0.30602  1.0000
  H   H1579     1.0  0.18113  0.84611  0.29785  1.0000
  H   H1580     1.0  0.17286  0.84535  0.32280  1.0000
  H   H1581     1.0  0.21741  0.73979  0.39559  1.0000
  C   C1003     1.0  0.17276  0.81359  0.27650  1.0000
  N   N98       1.0  0.10845  0.89514  0.39073  1.0000
  Fe  Fe205     1.0  0.13658  0.84888  0.46086  1.0000
  H   H1582     1.0  0.25080  0.74540  0.35612  1.0000
  H   H1583     1.0  0.18964  0.78904  0.28271  1.0000
  C   C1004     1.0  0.01050  0.84643  0.35146  1.0000
  C   C1005     1.0  0.09685  0.81597  0.30719  1.0000
  C   C1006     1.0  0.08628  0.82676  0.31163  1.0000
  C   C1007     1.0  0.08614  0.83115  0.32345  1.0000
  C   C1008     1.0  0.09645  0.82459  0.33101  1.0000
  C   C1009     1.0  0.10687  0.81364  0.32669  1.0000
  C   C1010     1.0  0.10721  0.80947  0.31470  1.0000
  H   H1584     1.0  0.07818  0.83172  0.30590  1.0000
  H   H1585     1.0  0.07792  0.83941  0.32682  1.0000
  H   H1586     1.0  0.11457  0.80822  0.33273  1.0000
  H   H1587     1.0  0.11529  0.80101  0.31144  1.0000
  C   C1011     1.0  0.16087  0.77521  0.31417  1.0000
  C   C1012     1.0  0.17202  0.77125  0.32080  1.0000
  C   C1013     1.0  0.16959  0.76972  0.33508  1.0000
  C   C1014     1.0  0.15601  0.77235  0.34282  1.0000
  C   C1015     1.0  0.14477  0.77571  0.33630  1.0000
  C   C1016     1.0  0.14719  0.77727  0.32194  1.0000
  H   H1588     1.0  0.18261  0.76941  0.31487  1.0000
  H   H1589     1.0  0.17828  0.76640  0.34010  1.0000
  H   H1590     1.0  0.13421  0.77745  0.34229  1.0000
  H   H1591     1.0  0.13853  0.78020  0.31688  1.0000
  H   H1592     1.0  0.31016  0.74161  0.33294  1.0000
  C   C1017     1.0  0.15258  0.83076  0.24677  1.0000
  C   C1018     1.0  0.15776  0.84251  0.24532  1.0000
  H   H1593     1.0  0.09644  0.78252  0.29373  1.0000
  H   H1594     1.0  0.09332  0.75307  0.30907  1.0000
  H   H1595     1.0  0.12722  0.87307  0.47366  1.0000
  H   H1596     1.0  0.14677  0.82642  0.25661  1.0000
  H   H1597     1.0  0.15590  0.84714  0.25407  1.0000
  H   H1598     1.0  0.16473  0.82099  0.27123  1.0000
  C   C1019     1.0  0.17794  0.79844  0.26063  1.0000
  H   H1599     1.0  0.05372  0.90933  0.34157  1.0000
  H   H1600     1.0  0.12676  0.88851  0.37590  1.0000
  H   H1601     1.0  0.30672  0.79663  0.24082  1.0000
  H   H1602     1.0  0.20778  0.74269  0.36824  1.0000
  H   H1603     1.0  0.21084  0.75213  0.42106  1.0000
  C   C1020     1.0  0.11559  0.75908  0.24827  1.0000
  S   S411      1.0  0.02886  0.87582  0.35431  1.0000
  H   H1604     1.0  0.21488  0.76406  0.38321  1.0000
  H   H1605     1.0  0.31270  0.70240  0.31240  1.0000
  S   S412      1.0  0.14444  0.83280  0.44786  1.0000
  C   C1021     1.0  0.12065  0.89797  0.37970  1.0000
  H   H1606     1.0  0.10428  0.88290  0.41121  1.0000
  H   H1607     1.0  0.19499  0.82275  0.25999  1.0000
  H   H1608     1.0  0.09144  0.90628  0.40379  1.0000
  H   H1609     1.0  0.09684  0.91601  0.38680  1.0000
  C   C1022     1.0  0.02703  0.91283  0.32628  1.0000
  C   C1023     1.0  0.04783  0.92215  0.31686  1.0000
  H   H1610     1.0  0.19918  0.81133  0.24833  1.0000
  C   C1024     1.0  0.12154  0.74821  0.25777  1.0000
  H   H1611     1.0  0.05899  0.92087  0.31708  1.0000
  N   N99       1.0  0.18119  0.89796  0.34279  1.0000
  C   C1025     1.0  0.19564  0.88984  0.34050  1.0000
  C   C1026     1.0  0.17388  0.89328  0.35709  1.0000
  C   C1027     1.0  0.17388  0.89606  0.33309  1.0000
  C   C1028     1.0  0.18136  0.91269  0.34047  1.0000
  H   H1612     1.0  0.20143  0.89316  0.32980  1.0000
  H   H1613     1.0  0.19590  0.87867  0.34213  1.0000
  H   H1614     1.0  0.20143  0.89106  0.34767  1.0000
  H   H1615     1.0  0.16294  0.89921  0.35916  1.0000
  H   H1616     1.0  0.17362  0.88218  0.35929  1.0000
  H   H1617     1.0  0.17899  0.89479  0.36469  1.0000
  H   H1618     1.0  0.16298  0.90217  0.33447  1.0000
  H   H1619     1.0  0.17350  0.88509  0.33449  1.0000
  H   H1620     1.0  0.17910  0.89957  0.32221  1.0000
  H   H1621     1.0  0.17064  0.91908  0.34206  1.0000
  H   H1622     1.0  0.18665  0.91667  0.32974  1.0000
  H   H1623     1.0  0.18660  0.91462  0.34772  1.0000
  N   N100      1.0  0.13628  0.79761  0.41327  1.0000
  C   C1029     1.0  0.12094  0.80064  0.41533  1.0000
  C   C1030     1.0  0.14015  0.79512  0.42667  1.0000
  C   C1031     1.0  0.14178  0.80943  0.40390  1.0000
  C   C1032     1.0  0.14224  0.78525  0.40720  1.0000
  H   H1624     1.0  0.11601  0.80953  0.42045  1.0000
  H   H1625     1.0  0.11654  0.79176  0.42200  1.0000
  H   H1626     1.0  0.11760  0.80319  0.40538  1.0000
  H   H1627     1.0  0.15165  0.79250  0.42552  1.0000
  H   H1628     1.0  0.13611  0.80444  0.43131  1.0000
  H   H1629     1.0  0.13594  0.78650  0.43417  1.0000
  H   H1630     1.0  0.13757  0.81892  0.40821  1.0000
  H   H1631     1.0  0.13906  0.81173  0.39369  1.0000
  H   H1632     1.0  0.15333  0.80743  0.40222  1.0000
  H   H1633     1.0  0.13948  0.78678  0.39710  1.0000
  H   H1634     1.0  0.13850  0.77608  0.41408  1.0000
  H   H1635     1.0  0.15379  0.78268  0.40540  1.0000
  N   N101      1.0  0.14356  0.81708  0.33955  1.0000
  C   C1033     1.0  0.13748  0.82338  0.32729  1.0000
  C   C1034     1.0  0.15746  0.80842  0.33544  1.0000
  C   C1035     1.0  0.13448  0.80849  0.34983  1.0000
  C   C1036     1.0  0.14489  0.82799  0.34563  1.0000
  H   H1636     1.0  0.12679  0.82966  0.33007  1.0000
  H   H1637     1.0  0.13670  0.81535  0.32229  1.0000
  H   H1638     1.0  0.14403  0.83008  0.31948  1.0000
  H   H1639     1.0  0.16222  0.80335  0.34448  1.0000
  H   H1640     1.0  0.15692  0.80017  0.33064  1.0000
  H   H1641     1.0  0.16473  0.81456  0.32790  1.0000
  H   H1642     1.0  0.13891  0.80338  0.35912  1.0000
  H   H1643     1.0  0.13322  0.80016  0.34562  1.0000
  H   H1644     1.0  0.12387  0.81467  0.35321  1.0000
  H   H1645     1.0  0.15178  0.83462  0.33821  1.0000
  H   H1646     1.0  0.14963  0.82353  0.35481  1.0000
  H   H1647     1.0  0.13457  0.83469  0.34892  1.0000
  N   N102      1.0  0.11672  0.86909  0.30702  1.0000
  C   C1037     1.0  0.12704  0.85950  0.29892  1.0000
  C   C1038     1.0  0.10352  0.86423  0.31220  1.0000
  C   C1039     1.0  0.11427  0.88299  0.29817  1.0000
  C   C1040     1.0  0.12204  0.86968  0.31879  1.0000
  H   H1648     1.0  0.13723  0.86269  0.29509  1.0000
  H   H1649     1.0  0.12349  0.85913  0.28976  1.0000
  H   H1650     1.0  0.12890  0.84887  0.30516  1.0000
  H   H1651     1.0  0.09546  0.87140  0.31811  1.0000
  H   H1652     1.0  0.09930  0.86343  0.30364  1.0000
  H   H1653     1.0  0.10489  0.85390  0.31920  1.0000
  H   H1654     1.0  0.10665  0.89055  0.30397  1.0000
  H   H1655     1.0  0.11018  0.88302  0.28921  1.0000
  H   H1656     1.0  0.12404  0.88693  0.29408  1.0000
  H   H1657     1.0  0.12380  0.85946  0.32584  1.0000
  H   H1658     1.0  0.11456  0.87705  0.32494  1.0000
  H   H1659     1.0  0.13207  0.87318  0.31525  1.0000
  C   C1041     1.0  0.30868  0.67039  0.26735  1.0000
  N   N103      1.0  0.22408  0.75544  0.40085  1.0000
  H   H1660     1.0  0.23331  0.76260  0.37959  1.0000
  C   C1042     1.0  0.07271  0.76423  0.29542  1.0000
  C   C1043     1.0  0.08608  0.77979  0.29657  1.0000
  H   H1661     1.0  0.24590  0.75414  0.39861  1.0000
  H   H1662     1.0  0.02592  0.91279  0.31586  1.0000
  C   C1044     1.0  0.23579  0.75674  0.40591  1.0000
  H   H1663     1.0  0.17701  0.81947  0.28143  1.0000
  H   H1664     1.0  0.02232  0.90438  0.33366  1.0000
  C   C1045     1.0  0.22882  0.74570  0.36154  1.0000
  H   H1665     1.0  0.15012  0.97594  0.36243  1.0000
  C   C1046     1.0  0.09928  0.88985  0.38543  1.0000
  N   N104      1.0  0.18392  0.80632  0.26677  1.0000
  C   C1047     1.0  0.09132  0.77016  0.27637  1.0000
  H   H1666     1.0  0.23590  0.73819  0.39167  1.0000
  H   H1667     1.0  0.06498  0.77291  0.29088  1.0000
  H   H1668     1.0  0.22178  0.77583  0.38814  1.0000
  H   H1669     1.0  0.12055  0.88816  0.40633  1.0000
  H   H1670     1.0  0.11734  0.72134  0.24694  1.0000
  H   H1671     1.0  0.20297  0.79103  0.26731  1.0000
  H   H1672     1.0  0.09612  0.89706  0.37615  1.0000
  H   H1673     1.0  0.10447  0.87973  0.38256  1.0000
  C   C1048     1.0  0.24287  0.73945  0.36113  1.0000
  C   C1049     1.0  0.11316  0.88477  0.40244  1.0000
  H   H1674     1.0  0.11742  0.90586  0.37076  1.0000
  C   C1050     1.0  0.04964  0.89759  0.32315  1.0000
  H   H1675     1.0  0.06079  0.89573  0.32351  1.0000
  H   H1676     1.0  0.08956  0.88843  0.39322  1.0000
  H   H1677     1.0  0.12776  0.90200  0.38340  1.0000
  C   C1051     1.0  0.01681  0.86697  0.35300  1.0000
  H   H1678     1.0  0.32940  0.75941  0.26805  1.0000
  H   H1679     1.0  0.09192  0.76108  0.27216  1.0000
  H   H1680     1.0  0.04920  0.89714  0.31263  1.0000
  C   C1052     1.0  0.22351  0.76491  0.38739  1.0000
  C   C1053     1.0  0.11694  0.73186  0.24716  1.0000
  H   H1681     1.0  0.07879  0.78898  0.29207  1.0000
  H   H1682     1.0  0.01340  0.83561  0.35111  1.0000
  H   H1683     1.0  0.24116  0.84742  0.25877  1.0000
  C   C1054     1.0  0.32772  0.76030  0.25760  1.0000
  S   S413      1.0  0.32320  0.72349  0.29079  1.0000
  H   H1684     1.0  0.11824  0.90888  0.45452  1.0000
  H   H1685     1.0  0.04538  0.88888  0.33041  1.0000
  C   C1055     1.0  0.09663  0.75567  0.29767  1.0000
  C   C1056     1.0  0.26512  0.83687  0.24297  1.0000
  N   N105      1.0  0.04179  0.91091  0.32675  1.0000
  H   H1686     1.0  0.03096  0.84726  0.35304  1.0000
  H   H1687     1.0  0.14132  0.89324  0.45101  1.0000
  H   H1688     1.0  0.08271  0.77819  0.30797  1.0000
  H   H1689     1.0  0.09784  0.74632  0.29361  1.0000
  H   H1690     1.0  0.19912  0.80234  0.27905  1.0000
  H   H1691     1.0  0.10189  0.77246  0.27314  1.0000
  H   H1692     1.0  0.23654  0.74973  0.41606  1.0000
  H   H1693     1.0  0.08421  0.77911  0.27133  1.0000
  H   H1694     1.0  0.23453  0.76744  0.40714  1.0000
  H   H1695     1.0  0.02072  0.92272  0.32906  1.0000
  C   C1057     1.0  0.22615  0.74114  0.39929  1.0000
  H   H1696     1.0  0.22681  0.73363  0.40919  1.0000
  H   H1697     1.0  0.16976  0.80523  0.25518  1.0000
  H   H1698     1.0  0.18601  0.79302  0.25307  1.0000
  C   C1058     1.0  0.21085  0.75900  0.41074  1.0000
  H   H1699     1.0  0.26370  0.83118  0.25387  1.0000
  H   H1700     1.0  0.04739  0.92239  0.30613  1.0000
  H   H1701     1.0  0.10730  0.91237  0.39929  1.0000
  H   H1702     1.0  0.03803  0.90276  0.34855  1.0000
  H   H1703     1.0  0.20181  0.75814  0.40717  1.0000
  C   C1059     1.0  0.32137  0.67023  0.27034  1.0000
  H   H1704     1.0  0.23814  0.84854  0.24211  1.0000
  H   H1705     1.0  0.23776  0.86386  0.24750  1.0000
  H   H1706     1.0  0.32369  0.67972  0.27077  1.0000
  H   H1707     1.0  0.27570  0.85723  0.24509  1.0000
  H   H1708     1.0  0.26289  0.85297  0.26047  1.0000
  C   C1060     1.0  0.24318  0.85289  0.24780  1.0000
  C   C1061     1.0  0.12809  0.89362  0.48496  1.0000
  S   S414      1.0  0.29309  0.67023  0.33494  1.0000
  H   H1709     1.0  0.32594  0.77142  0.25251  1.0000
  H   H1710     1.0  0.28705  0.66698  0.31077  1.0000
  H   H1711     1.0  0.15991  0.98832  0.37397  1.0000
  C   C1062     1.0  0.28129  0.66184  0.33292  1.0000
  C   C1063     1.0  0.31345  0.66019  0.40373  1.0000
  H   H1712     1.0  0.33235  0.73330  0.25806  1.0000
  H   H1713     1.0  0.13328  0.90156  0.48560  1.0000
  C   C1064     1.0  0.25100  0.65934  0.25457  1.0000
  H   H1714     1.0  0.33134  0.68538  0.39773  1.0000
  S   S415      1.0  0.28942  0.65813  0.26393  1.0000
  C   C1065     1.0  0.30544  0.65807  0.26719  1.0000
  C   C1066     1.0  0.33100  0.65778  0.27269  1.0000
  C   C1067     1.0  0.33288  0.70338  0.36746  1.0000
  H   H1715     1.0  0.27651  0.83553  0.23852  1.0000
  H   H1716     1.0  0.26086  0.83178  0.23723  1.0000
  H   H1717     1.0  0.00026  0.88512  0.35262  1.0000
  S   S416      1.0  0.29567  0.68276  0.69318  1.0000
  H   H1718     1.0  0.16620  0.95223  0.68638  1.0000
  H   H1719     1.0  0.26283  0.85865  0.73124  1.0000
  C   C1068     1.0  0.15888  0.86291  0.49300  1.0000
  H   H1720     1.0  0.31829  0.70556  0.64834  1.0000
  H   H1721     1.0  0.32284  0.74970  0.59625  1.0000
  H   H1722     1.0  0.30274  0.79178  0.58438  1.0000
  C   C1069     1.0  0.31297  0.75760  0.59730  1.0000
  C   C1070     1.0  0.28023  0.87619  0.72070  1.0000
  C   C1071     1.0  0.30934  0.68374  0.67871  1.0000
  Fe  Fe206     1.0  0.21099  0.87531  0.73344  1.0000
  H   H1723     1.0  0.30924  0.75783  0.60842  1.0000
  C   C1072     1.0  0.30819  0.69523  0.66793  1.0000
  C   C1073     1.0  0.31931  0.69662  0.65661  1.0000
  H   H1724     1.0  0.29874  0.70317  0.66843  1.0000
  C   C1074     1.0  0.32519  0.65798  0.62312  1.0000
  H   H1725     1.0  0.20066  0.96167  0.67851  1.0000
  H   H1726     1.0  0.30028  0.84432  0.71852  1.0000
  H   H1727     1.0  0.29377  0.77825  0.58667  1.0000
  H   H1728     1.0  0.32031  0.72488  0.69464  1.0000
  H   H1729     1.0  0.13411  0.88340  0.48931  1.0000
  H   H1730     1.0  0.32232  0.69389  0.72293  1.0000
  H   H1731     1.0  0.01528  0.88399  0.67698  1.0000
  C   C1075     1.0  0.33017  0.67647  0.60376  1.0000
  C   C1076     1.0  0.33161  0.68651  0.65601  1.0000
  H   H1732     1.0  0.20625  0.83317  0.71904  1.0000
  Fe  Fe207     1.0  0.23410  0.84230  0.63814  1.0000
  S   S417      1.0  0.24322  0.81987  0.64481  1.0000
  S   S418      1.0  0.22943  0.85999  0.64875  1.0000
  Fe  Fe208     1.0  0.23065  0.83891  0.61104  1.0000
  S   S419      1.0  0.23959  0.81614  0.61491  1.0000
  S   S420      1.0  0.22245  0.85314  0.59303  1.0000
  Fe  Fe209     1.0  0.22672  0.81646  0.63629  1.0000
  S   S421      1.0  0.21436  0.80038  0.64721  1.0000
  Fe  Fe210     1.0  0.25548  0.82124  0.62304  1.0000
  S   S422      1.0  0.27852  0.81211  0.61882  1.0000
  S   S423      1.0  0.21635  0.83869  0.63173  1.0000
  S   S424      1.0  0.24779  0.84408  0.61708  1.0000
  Fe  Fe211     1.0  0.14752  0.82676  0.68978  1.0000
  S   S425      1.0  0.15137  0.84475  0.69520  1.0000
  S   S426      1.0  0.15077  0.82550  0.66771  1.0000
  S   S427      1.0  0.14645  0.93733  0.62795  1.0000
  H   H1733     1.0  0.15428  0.84328  0.64039  1.0000
  Fe  Fe212     1.0  0.23846  0.86600  0.71423  1.0000
  S   S428      1.0  0.21746  0.87761  0.71063  1.0000
  S   S429      1.0  0.25073  0.84888  0.70350  1.0000
  H   H1734     1.0  0.12060  0.92435  0.68302  1.0000
  N   N106      1.0  0.16547  0.85300  0.62104  1.0000
  H   H1735     1.0  0.15536  0.87321  0.62504  1.0000
  Fe  Fe213     1.0  0.22475  0.89602  0.71125  1.0000
  S   S430      1.0  0.21964  0.91448  0.69471  1.0000
  H   H1736     1.0  0.16795  0.86718  0.48764  1.0000
  S   S431      1.0  0.24650  0.88449  0.71317  1.0000
  H   H1737     1.0  0.18000  0.83953  0.63308  1.0000
  H   H1738     1.0  0.11126  0.82330  0.65155  1.0000
  S   S432      1.0  0.15862  0.81124  0.70507  1.0000
  H   H1739     1.0  0.27075  0.85778  0.71360  1.0000
  Fe  Fe214     1.0  0.15888  0.94466  0.63863  1.0000
  H   H1740     1.0  0.02611  0.84272  0.69940  1.0000
  Fe  Fe215     1.0  0.16161  0.91701  0.63144  1.0000
  S   S433      1.0  0.17166  0.90159  0.61766  1.0000
  Fe  Fe216     1.0  0.16095  0.91852  0.66081  1.0000
  S   S434      1.0  0.14596  0.93888  0.65979  1.0000
  S   S435      1.0  0.16593  0.90679  0.68119  1.0000
  Fe  Fe217     1.0  0.13491  0.92981  0.64945  1.0000
  S   S436      1.0  0.11240  0.92928  0.65865  1.0000
  S   S437      1.0  0.14907  0.90905  0.65198  1.0000
  S   S438      1.0  0.17498  0.92475  0.64053  1.0000
  Fe  Fe218     1.0  0.16026  0.85394  0.56590  1.0000
  S   S439      1.0  0.16619  0.87286  0.55128  1.0000
  S   S440      1.0  0.17528  0.83642  0.57598  1.0000
  Fe  Fe219     1.0  0.13011  0.86321  0.56330  1.0000
  S   S441      1.0  0.13370  0.88269  0.54830  1.0000
  S   S442      1.0  0.10828  0.86000  0.56936  1.0000
  Fe  Fe220     1.0  0.15316  0.86942  0.53851  1.0000
  S   S443      1.0  0.16146  0.87043  0.51563  1.0000
  Fe  Fe221     1.0  0.14613  0.88403  0.56266  1.0000
  S   S444      1.0  0.14148  0.90334  0.57083  1.0000
  S   S445      1.0  0.14853  0.84973  0.55246  1.0000
  S   S446      1.0  0.14122  0.86538  0.57829  1.0000
  Fe  Fe222     1.0  0.06431  0.86802  0.66710  1.0000
  S   S447      1.0  0.05333  0.88857  0.65690  1.0000
  S   S448      1.0  0.06364  0.85978  0.68963  1.0000
  Fe  Fe223     1.0  0.07449  0.85731  0.64085  1.0000
  S   S449      1.0  0.06399  0.87664  0.62824  1.0000
  S   S450      1.0  0.08968  0.83933  0.63338  1.0000
  Fe  Fe224     1.0  0.07228  0.88723  0.63971  1.0000
  S   S451      1.0  0.08451  0.90310  0.62712  1.0000
  Fe  Fe225     1.0  0.04585  0.87618  0.64642  1.0000
  S   S452      1.0  0.02265  0.88227  0.64696  1.0000
  S   S453      1.0  0.08396  0.86796  0.65100  1.0000
  S   S454      1.0  0.05566  0.85571  0.65785  1.0000
  H   H1741     1.0  0.30392  0.79557  0.62609  1.0000
  C   C1077     1.0  0.02328  0.87589  0.68178  1.0000
  H   H1742     1.0  0.17849  0.97861  0.67886  1.0000
  C   C1078     1.0  0.15341  0.86316  0.50699  1.0000
  H   H1743     1.0  0.32118  0.77665  0.60487  1.0000
  H   H1744     1.0  0.31193  0.77034  0.63354  1.0000
  H   H1745     1.0  0.17463  0.82321  0.52161  1.0000
  C   C1079     1.0  0.13567  0.85163  0.50677  1.0000
  C   C1080     1.0  0.14179  0.85748  0.51387  1.0000
  H   H1746     1.0  0.08676  0.84109  0.66699  1.0000
  H   H1747     1.0  0.17395  0.87018  0.62036  1.0000
  H   H1748     1.0  0.12665  0.84728  0.51216  1.0000
  H   H1749     1.0  0.13747  0.85762  0.52464  1.0000
  C   C1081     1.0  0.10327  0.85355  0.58703  1.0000
  C   C1082     1.0  0.08916  0.85625  0.59345  1.0000
  C   C1083     1.0  0.08500  0.85181  0.60770  1.0000
  C   C1084     1.0  0.09489  0.84432  0.61549  1.0000
  C   C1085     1.0  0.10899  0.84130  0.60904  1.0000
  C   C1086     1.0  0.11320  0.84607  0.59481  1.0000
  H   H1750     1.0  0.08146  0.86193  0.58743  1.0000
  H   H1751     1.0  0.07408  0.85396  0.61262  1.0000
  H   H1752     1.0  0.11665  0.83547  0.61505  1.0000
  H   H1753     1.0  0.12408  0.84375  0.58984  1.0000
  C   C1087     1.0  0.10531  0.92111  0.65012  1.0000
  C   C1088     1.0  0.09362  0.91550  0.65712  1.0000
  C   C1089     1.0  0.08750  0.90942  0.65027  1.0000
  C   C1090     1.0  0.09283  0.90931  0.63629  1.0000
  C   C1091     1.0  0.10465  0.91473  0.62935  1.0000
  C   C1092     1.0  0.11101  0.92043  0.63631  1.0000
  H   H1754     1.0  0.08919  0.91601  0.66780  1.0000
  H   H1755     1.0  0.07836  0.90529  0.65564  1.0000
  H   H1756     1.0  0.10885  0.91462  0.61856  1.0000
  H   H1757     1.0  0.12003  0.92474  0.63086  1.0000
  C   C1093     1.0  0.16299  0.90198  0.60488  1.0000
  C   C1094     1.0  0.15058  0.91151  0.60330  1.0000
  C   C1095     1.0  0.14404  0.91182  0.59284  1.0000
  C   C1096     1.0  0.14969  0.90242  0.58411  1.0000
  C   C1097     1.0  0.16193  0.89263  0.58590  1.0000
  C   C1098     1.0  0.16866  0.89255  0.59615  1.0000
  H   H1758     1.0  0.14610  0.91879  0.60999  1.0000
  H   H1759     1.0  0.13459  0.91942  0.59150  1.0000
  H   H1760     1.0  0.16643  0.88545  0.57909  1.0000
  H   H1761     1.0  0.17839  0.88531  0.59713  1.0000
  H   H1762     1.0  0.19155  0.82237  0.54982  1.0000
  H   H1763     1.0  0.18787  0.84754  0.61606  1.0000
  S   S455      1.0  0.32239  0.66384  0.71604  1.0000
  C   C1099     1.0  0.32668  0.69780  0.69533  1.0000
  C   C1100     1.0  0.02069  0.86056  0.63705  1.0000
  C   C1101     1.0  0.32060  0.77026  0.57439  1.0000
  N   N107      1.0  0.18666  0.83197  0.52994  1.0000
  H   H1764     1.0  0.17947  0.83367  0.61837  1.0000
  H   H1765     1.0  0.03193  0.85757  0.63531  1.0000
  H   H1766     1.0  0.01864  0.84390  0.62927  1.0000
  C   C1102     1.0  0.20439  0.91320  0.69087  1.0000
  C   C1103     1.0  0.19440  0.90738  0.70132  1.0000
  C   C1104     1.0  0.18250  0.90568  0.69827  1.0000
  C   C1105     1.0  0.18049  0.90987  0.68478  1.0000
  C   C1106     1.0  0.19041  0.91578  0.67431  1.0000
  C   C1107     1.0  0.20237  0.91747  0.67736  1.0000
  H   H1767     1.0  0.19586  0.90416  0.71179  1.0000
  H   H1768     1.0  0.17489  0.90106  0.70641  1.0000
  H   H1769     1.0  0.18906  0.91870  0.66382  1.0000
  H   H1770     1.0  0.21024  0.92169  0.66922  1.0000
  H   H1771     1.0  0.17751  0.83992  0.51213  1.0000
  C   C1108     1.0  0.10118  0.86309  0.70362  1.0000
  C   C1109     1.0  0.09718  0.87229  0.69196  1.0000
  C   C1110     1.0  0.08576  0.87124  0.68747  1.0000
  C   C1111     1.0  0.07809  0.86122  0.69487  1.0000
  C   C1112     1.0  0.08204  0.85210  0.70657  1.0000
  C   C1113     1.0  0.09369  0.85290  0.71081  1.0000
  H   H1772     1.0  0.10298  0.88014  0.68628  1.0000
  H   H1773     1.0  0.08273  0.87835  0.67844  1.0000
  H   H1774     1.0  0.07615  0.84434  0.71231  1.0000
  C   C1114     1.0  0.17878  0.84301  0.62220  1.0000
  Fe  Fe226     1.0  0.32155  0.73894  0.63319  1.0000
  H   H1775     1.0  0.31624  0.69552  0.70065  1.0000
  H   H1776     1.0  0.32601  0.69053  0.62380  1.0000
  C   C1115     1.0  0.20937  0.84833  0.58846  1.0000
  C   C1116     1.0  0.20673  0.83509  0.59353  1.0000
  C   C1117     1.0  0.19632  0.83145  0.58953  1.0000
  C   C1118     1.0  0.18841  0.84111  0.58066  1.0000
  C   C1119     1.0  0.19091  0.85440  0.57583  1.0000
  C   C1120     1.0  0.20142  0.85798  0.57966  1.0000
  H   H1777     1.0  0.21284  0.82759  0.60035  1.0000
  H   H1778     1.0  0.19440  0.82115  0.59334  1.0000
  H   H1779     1.0  0.18483  0.86195  0.56909  1.0000
  H   H1780     1.0  0.20339  0.86825  0.57575  1.0000
  C   C1121     1.0  0.23697  0.85684  0.66302  1.0000
  C   C1122     1.0  0.24304  0.84348  0.66899  1.0000
  C   C1123     1.0  0.24769  0.84108  0.68123  1.0000
  C   C1124     1.0  0.24615  0.85201  0.68755  1.0000
  C   C1125     1.0  0.24041  0.86540  0.68137  1.0000
  C   C1126     1.0  0.23590  0.86781  0.66911  1.0000
  H   H1781     1.0  0.24391  0.83497  0.66438  1.0000
  H   H1782     1.0  0.25216  0.83071  0.68596  1.0000
  H   H1783     1.0  0.23952  0.87395  0.68599  1.0000
  H   H1784     1.0  0.23144  0.87820  0.66442  1.0000
  C   C1127     1.0  0.19684  0.80826  0.65229  1.0000
  C   C1128     1.0  0.19265  0.81527  0.66313  1.0000
  C   C1129     1.0  0.17847  0.82068  0.66783  1.0000
  C   C1130     1.0  0.16854  0.81934  0.66149  1.0000
  C   C1131     1.0  0.17279  0.81282  0.65030  1.0000
  C   C1132     1.0  0.18693  0.80713  0.64581  1.0000
  H   H1785     1.0  0.20030  0.81615  0.66815  1.0000
  H   H1786     1.0  0.17524  0.82576  0.67645  1.0000
  H   H1787     1.0  0.16514  0.81172  0.64542  1.0000
  H   H1788     1.0  0.19016  0.80170  0.63743  1.0000
  C   C1133     1.0  0.28375  0.79427  0.62445  1.0000
  C   C1134     1.0  0.27504  0.78543  0.62567  1.0000
  C   C1135     1.0  0.27975  0.77113  0.62951  1.0000
  C   C1136     1.0  0.29301  0.76565  0.63245  1.0000
  C   C1137     1.0  0.30173  0.77448  0.63118  1.0000
  C   C1138     1.0  0.29714  0.78876  0.62708  1.0000
  H   H1789     1.0  0.26485  0.78962  0.62328  1.0000
  H   H1790     1.0  0.27323  0.76425  0.63002  1.0000
  C   C1139     1.0  0.16835  0.98991  0.63211  1.0000
  H   H1791     1.0  0.16553  0.86251  0.63724  1.0000
  C   C1140     1.0  0.16156  0.97886  0.63774  1.0000
  H   H1792     1.0  0.00675  0.86544  0.67285  1.0000
  H   H1793     1.0  0.13660  0.91786  0.68878  1.0000
  H   H1794     1.0  0.17733  0.85098  0.53664  1.0000
  H   H1795     1.0  0.14555  0.97107  0.65394  1.0000
  C   C1141     1.0  0.01368  0.87224  0.64249  1.0000
  H   H1796     1.0  0.14005  0.89564  0.70547  1.0000
  H   H1797     1.0  0.32491  0.72391  0.71052  1.0000
  H   H1798     1.0  0.19548  0.84516  0.53666  1.0000
  H   H1799     1.0  0.12096  0.84159  0.67304  1.0000
  H   H1800     1.0  0.18970  0.85256  0.52069  1.0000
  H   H1801     1.0  0.10929  0.81611  0.68939  1.0000
  H   H1802     1.0  0.14028  0.89602  0.68140  1.0000
  H   H1803     1.0  0.26967  0.77403  0.65688  1.0000
  C   C1142     1.0  0.17233  0.84701  0.73158  1.0000
  H   H1804     1.0  0.12514  0.81622  0.67657  1.0000
  C   C1143     1.0  0.00578  0.86561  0.69911  1.0000
  C   C1144     1.0  0.02944  0.85259  0.69429  1.0000
  H   H1805     1.0  0.29579  0.85832  0.70476  1.0000
  C   C1145     1.0  0.15375  0.84653  0.62932  1.0000
  H   H1806     1.0  0.23240  0.87611  0.61939  1.0000
  C   C1146     1.0  0.16506  0.86523  0.62617  1.0000
  C   C1147     1.0  0.16430  0.85721  0.60648  1.0000
  C   C1148     1.0  0.20016  0.82544  0.52217  1.0000
  H   H1807     1.0  0.14354  0.85376  0.62862  1.0000
  H   H1808     1.0  0.20876  0.82428  0.52738  1.0000
  N   N108      1.0  0.12246  0.90409  0.69591  1.0000
  H   H1809     1.0  0.17312  0.86190  0.59990  1.0000
  H   H1810     1.0  0.17340  0.82798  0.55005  1.0000
  H   H1811     1.0  0.18268  0.94035  0.68602  1.0000
  H   H1812     1.0  0.03265  0.87422  0.67344  1.0000
  H   H1813     1.0  0.02426  0.85593  0.66916  1.0000
  S   S456      1.0  0.14055  0.83037  0.72788  1.0000
  H   H1814     1.0  0.31342  0.76666  0.57039  1.0000
  H   H1815     1.0  0.01137  0.84802  0.68207  1.0000
  Fe  Fe227     1.0  0.30204  0.66611  0.71053  1.0000
  H   H1816     1.0  0.16487  0.97580  0.67277  1.0000
  H   H1817     1.0  0.19997  0.81503  0.52113  1.0000
  N   N109      1.0  0.10038  0.89826  0.58762  1.0000
  C   C1149     1.0  0.10072  0.91202  0.58912  1.0000
  C   C1150     1.0  0.10526  0.89741  0.57297  1.0000
  C   C1151     1.0  0.08602  0.89598  0.59251  1.0000
  C   C1152     1.0  0.10959  0.88761  0.59581  1.0000
  H   H1818     1.0  0.11149  0.91394  0.58555  1.0000
  H   H1819     1.0  0.09710  0.91309  0.60003  1.0000
  H   H1820     1.0  0.09393  0.92034  0.58307  1.0000
  H   H1821     1.0  0.11600  0.89922  0.56889  1.0000
  H   H1822     1.0  0.10537  0.88711  0.57145  1.0000
  H   H1823     1.0  0.09847  0.90518  0.56651  1.0000
  H   H1824     1.0  0.07874  0.90388  0.58667  1.0000
  H   H1825     1.0  0.08201  0.89642  0.60357  1.0000
  H   H1826     1.0  0.08551  0.88568  0.59143  1.0000
  H   H1827     1.0  0.12050  0.88908  0.59242  1.0000
  H   H1828     1.0  0.10968  0.87709  0.59482  1.0000
  H   H1829     1.0  0.10610  0.88798  0.60694  1.0000
  N   N110      1.0  0.19389  0.86598  0.68506  1.0000
  C   C1153     1.0  0.20519  0.85420  0.68869  1.0000
  C   C1154     1.0  0.19992  0.87770  0.67629  1.0000
  C   C1155     1.0  0.18468  0.87006  0.69774  1.0000
  C   C1156     1.0  0.18574  0.86195  0.67750  1.0000
  H   H1830     1.0  0.20098  0.84519  0.69531  1.0000
  H   H1831     1.0  0.21168  0.85685  0.69431  1.0000
  H   H1832     1.0  0.21222  0.85078  0.67936  1.0000
  H   H1833     1.0  0.19170  0.88661  0.67304  1.0000
  H   H1834     1.0  0.20587  0.88125  0.68179  1.0000
  H   H1835     1.0  0.20712  0.87492  0.66676  1.0000
  H   H1836     1.0  0.19058  0.87263  0.70401  1.0000
  H   H1837     1.0  0.17947  0.86168  0.70427  1.0000
  H   H1838     1.0  0.17635  0.87923  0.69534  1.0000
  H   H1839     1.0  0.19239  0.85896  0.66779  1.0000
  H   H1840     1.0  0.17700  0.87055  0.67476  1.0000
  H   H1841     1.0  0.18122  0.85297  0.68379  1.0000
  N   N111      1.0  0.21379  0.88636  0.61174  1.0000
  C   C1157     1.0  0.20960  0.89149  0.59833  1.0000
  C   C1158     1.0  0.20610  0.87570  0.62027  1.0000
  C   C1159     1.0  0.21057  0.89785  0.61893  1.0000
  C   C1160     1.0  0.22891  0.88035  0.60946  1.0000
  H   H1842     1.0  0.21529  0.89947  0.59157  1.0000
  H   H1843     1.0  0.19827  0.89618  0.59964  1.0000
  H   H1844     1.0  0.21175  0.88301  0.59272  1.0000
  H   H1845     1.0  0.20931  0.87132  0.63030  1.0000
  H   H1846     1.0  0.19469  0.87995  0.62249  1.0000
  H   H1847     1.0  0.20799  0.86707  0.61497  1.0000
  H   H1848     1.0  0.21616  0.90612  0.61278  1.0000
  H   H1849     1.0  0.21360  0.89427  0.62909  1.0000
  H   H1850     1.0  0.19922  0.90260  0.62080  1.0000
  H   H1851     1.0  0.23509  0.88813  0.60322  1.0000
  H   H1852     1.0  0.23168  0.87177  0.60389  1.0000
  C   C1161     1.0  0.23596  0.78624  0.67162  1.0000
  H   H1853     1.0  0.10521  0.84145  0.68602  1.0000
  C   C1162     1.0  0.17556  0.83336  0.52265  1.0000
  H   H1854     1.0  0.16522  0.83834  0.52816  1.0000
  C   C1163     1.0  0.15096  0.97944  0.64958  1.0000
  H   H1855     1.0  0.30579  0.86016  0.71583  1.0000
  H   H1856     1.0  0.12684  0.88567  0.71115  1.0000
  C   C1164     1.0  0.19732  0.83960  0.72441  1.0000
  H   H1857     1.0  0.16435  0.84827  0.60230  1.0000
  H   H1858     1.0  0.10482  0.89452  0.70271  1.0000
  C   C1165     1.0  0.10963  0.84191  0.67485  1.0000
  H   H1859     1.0  0.09672  0.84579  0.71983  1.0000
  H   H1860     1.0  0.28829  0.88118  0.72150  1.0000
  H   H1861     1.0  0.20280  0.83171  0.51160  1.0000
  H   H1862     1.0  0.15452  0.86497  0.60513  1.0000
  H   H1863     1.0  0.12684  0.88632  0.68704  1.0000
  S   S457      1.0  0.16733  0.96419  0.63020  1.0000
  C   C1166     1.0  0.10727  0.90495  0.69946  1.0000
  H   H1864     1.0  0.10204  0.91046  0.70802  1.0000
  H   H1865     1.0  0.10247  0.91055  0.69045  1.0000
  S   S458      1.0  0.21652  0.89472  0.73398  1.0000
  S   S459      1.0  0.18188  0.82772  0.71520  1.0000
  C   C1167     1.0  0.12881  0.89692  0.68433  1.0000
  C   C1168     1.0  0.12859  0.89636  0.70790  1.0000
  H   H1866     1.0  0.12445  0.90252  0.67507  1.0000
  H   H1867     1.0  0.12393  0.90137  0.71690  1.0000
  C   C1169     1.0  0.18354  0.82339  0.54391  1.0000
  C   C1170     1.0  0.18740  0.84574  0.53102  1.0000
  H   H1868     1.0  0.18299  0.81287  0.54355  1.0000
  H   H1869     1.0  0.26300  0.78224  0.67134  1.0000
  H   H1870     1.0  0.15383  0.83720  0.62579  1.0000
  Fe  Fe228     1.0  0.16057  0.82933  0.71196  1.0000
  Fe  Fe229     1.0  0.23762  0.88131  0.73600  1.0000
  C   C1171     1.0  0.12524  0.91811  0.69189  1.0000
  H   H1871     1.0  0.12079  0.92373  0.70046  1.0000
  C   C1172     1.0  0.26066  0.78133  0.66173  1.0000
  H   H1872     1.0  0.24400  0.78656  0.64424  1.0000
  H   H1873     1.0  0.17370  0.80175  0.72803  1.0000
  H   H1874     1.0  0.23458  0.79683  0.66521  1.0000
  H   H1875     1.0  0.08979  0.82283  0.66968  1.0000
  N   N112      1.0  0.10717  0.83048  0.67033  1.0000
  H   H1876     1.0  0.22584  0.78312  0.67371  1.0000
  Fe  Fe230     1.0  0.13100  0.84412  0.71030  1.0000
  H   H1877     1.0  0.23781  0.78681  0.68158  1.0000
  C   C1173     1.0  0.01314  0.85284  0.63363  1.0000
  H   H1878     1.0  0.26028  0.79157  0.65459  1.0000
  H   H1879     1.0  0.25110  0.76256  0.68335  1.0000
  H   H1880     1.0  0.17654  0.98956  0.62292  1.0000
  H   H1881     1.0  0.31940  0.67872  0.60208  1.0000
  H   H1882     1.0  0.02616  0.88002  0.68931  1.0000
  H   H1883     1.0  0.00174  0.85608  0.70418  1.0000
  C   C1174     1.0  0.11372  0.81720  0.67814  1.0000
  H   H1884     1.0  0.18623  0.94395  0.66038  1.0000
  C   C1175     1.0  0.19845  0.95810  0.67021  1.0000
  C   C1176     1.0  0.18384  0.83873  0.72456  1.0000
  S   S460      1.0  0.12655  0.82698  0.70381  1.0000
  N   N113      1.0  0.18333  0.95969  0.67167  1.0000
  C   C1177     1.0  0.32154  0.67344  0.67801  1.0000
  H   H1885     1.0  0.08698  0.83102  0.68396  1.0000
  C   C1178     1.0  0.24447  0.77633  0.65141  1.0000
  C   C1179     1.0  0.09202  0.83135  0.67289  1.0000
  H   H1886     1.0  0.30520  0.75398  0.59419  1.0000
  H   H1887     1.0  0.20980  0.84994  0.73025  1.0000
  C   C1180     1.0  0.14103  0.85148  0.49275  1.0000
  C   C1181     1.0  0.32147  0.71810  0.70481  1.0000
  C   C1182     1.0  0.18092  0.95487  0.66041  1.0000
  H   H1888     1.0  0.23914  0.75884  0.67555  1.0000
  C   C1183     1.0  0.11332  0.83146  0.65548  1.0000
  H   H1889     1.0  0.32239  0.66445  0.68625  1.0000
  C   C1184     1.0  0.29707  0.85573  0.71561  1.0000
  H   H1890     1.0  0.18486  0.96106  0.65014  1.0000
  H   H1891     1.0  0.03906  0.85031  0.68630  1.0000
  H   H1892     1.0  0.25751  0.75522  0.66828  1.0000
  H   H1893     1.0  0.12481  0.83045  0.65328  1.0000
  H   H1894     1.0  0.32575  0.70411  0.68490  1.0000
  N   N114      1.0  0.01838  0.86296  0.68822  1.0000
  H   H1895     1.0  0.03251  0.85629  0.70202  1.0000
  H   H1896     1.0  0.17906  0.95490  0.69380  1.0000
  H   H1897     1.0  0.17981  0.98082  0.66070  1.0000
  H   H1898     1.0  0.10471  0.85210  0.66929  1.0000
  C   C1185     1.0  0.01503  0.85782  0.67768  1.0000
  N   N115      1.0  0.24750  0.77666  0.66453  1.0000
  S   S461      1.0  0.11553  0.86430  0.70919  1.0000
  C   C1186     1.0  0.24886  0.76270  0.67334  1.0000
  H   H1899     1.0  0.25253  0.76869  0.64612  1.0000
  C   C1187     1.0  0.32503  0.77581  0.59388  1.0000
  N   N116      1.0  0.28405  0.86105  0.72493  1.0000
  H   H1900     1.0  0.20401  0.94713  0.67080  1.0000
  H   H1901     1.0  0.23424  0.77358  0.65306  1.0000
  H   H1902     1.0  0.16964  0.95569  0.66127  1.0000
  C   C1188     1.0  0.17636  0.97435  0.67098  1.0000
  H   H1903     1.0  0.29709  0.78214  0.60124  1.0000
  H   H1904     1.0  0.10883  0.84151  0.64931  1.0000
  H   H1905     1.0  0.20312  0.96413  0.66016  1.0000
  H   H1906     1.0  0.27532  0.84356  0.72709  1.0000
  H   H1907     1.0  0.31422  0.65995  0.62210  1.0000
  S   S462      1.0  0.13286  0.79283  0.73215  1.0000
  N   N117      1.0  0.31504  0.77125  0.58897  1.0000
  C   C1189     1.0  0.30158  0.78129  0.59033  1.0000
  H   H1908     1.0  0.31098  0.71631  0.71059  1.0000
  H   H1909     1.0  0.11220  0.80836  0.67487  1.0000
  C   C1190     1.0  0.19934  0.84912  0.73073  1.0000
  H   H1910     1.0  0.27027  0.88047  0.72733  1.0000
  H   H1911     1.0  0.16189  0.84643  0.73166  1.0000
  C   C1191     1.0  0.17756  0.95144  0.68506  1.0000
  H   H1912     1.0  0.27882  0.87944  0.70988  1.0000
  H   H1913     1.0  0.33082  0.76281  0.57306  1.0000
  H   H1914     1.0  0.31098  0.68377  0.62557  1.0000
  C   C1192     1.0  0.27276  0.85499  0.72419  1.0000
  S   S463      1.0  0.29841  0.74774  0.63757  1.0000
  Fe  Fe231     1.0  0.13796  0.81314  0.71990  1.0000
  C   C1193     1.0  0.32196  0.68091  0.62676  1.0000
  H   H1915     1.0  0.32185  0.67678  0.63790  1.0000
  H   H1916     1.0  0.11755  0.89503  0.49183  1.0000
  H   H1917     1.0  0.00796  0.86952  0.70721  1.0000
  H   H1918     1.0  0.32224  0.78037  0.56777  1.0000
  H   H1919     1.0  0.17751  0.78373  0.73554  1.0000
  S   S464      1.0  0.32871  0.72373  0.61933  1.0000
  C   C1194     1.0  0.33267  0.67478  0.66659  1.0000
  H   H1920     1.0  0.32957  0.74608  0.68802  1.0000
  H   H1921     1.0  0.32683  0.78609  0.58785  1.0000
  N   N118      1.0  0.33062  0.67075  0.61841  1.0000
  C   C1195     1.0  0.33255  0.69627  0.71696  1.0000
  N   N119      1.0  0.33151  0.70499  0.70321  1.0000
  S   S465      1.0  0.28931  0.66606  0.73185  1.0000
  S   S466      1.0  0.32543  0.94237  0.84933  1.0000
  C   C1196     1.0  0.32354  0.94042  0.83352  1.0000
  Fe  Fe232     1.0  0.16598  0.73073  0.80713  1.0000
  S   S467      1.0  0.15456  0.71694  0.82448  1.0000
  S   S468      1.0  0.18881  0.72347  0.79939  1.0000
  Fe  Fe233     1.0  0.13737  0.72450  0.81304  1.0000
  S   S469      1.0  0.12580  0.70973  0.81081  1.0000
  Fe  Fe234     1.0  0.23021  0.72042  0.86815  1.0000
  S   S470      1.0  0.20758  0.72001  0.87528  1.0000
  S   S471      1.0  0.24358  0.71070  0.85055  1.0000
  H   H1922     1.0  0.27967  0.96345  0.75637  1.0000
  C   C1197     1.0  0.32084  0.93644  0.80845  1.0000
  H   H1923     1.0  0.14001  0.70721  0.88501  1.0000
  Fe  Fe235     1.0  0.21145  0.71466  0.89657  1.0000
  S   S472      1.0  0.20431  0.69661  0.91206  1.0000
  S   S473      1.0  0.23443  0.71318  0.88927  1.0000
  S   S474      1.0  0.14971  0.73656  0.79459  1.0000
  H   H1924     1.0  0.12059  0.68130  0.88530  1.0000
  H   H1925     1.0  0.00441  0.66797  0.89266  1.0000
  H   H1926     1.0  0.03501  0.66370  0.90756  1.0000
  S   S475      1.0  0.14746  0.68416  0.91091  1.0000
  H   H1927     1.0  0.32634  0.83629  0.78790  1.0000
  Fe  Fe236     1.0  0.06949  0.67709  0.86335  1.0000
  S   S476      1.0  0.05055  0.67279  0.87943  1.0000
  S   S477      1.0  0.07813  0.69532  0.86244  1.0000
  H   H1928     1.0  0.09848  0.65781  0.91304  1.0000
  S   S478      1.0  0.02172  0.67203  0.86221  1.0000
  S   S479      1.0  0.06240  0.67216  0.84676  1.0000
  C   C1198     1.0  0.15076  0.68746  0.96203  1.0000
  H   H1929     1.0  0.17018  0.78836  0.77152  1.0000
  H   H1930     1.0  0.11618  0.74975  0.78027  1.0000
  H   H1931     1.0  0.26950  0.67047  0.75825  1.0000
  C   C1199     1.0  0.16935  0.78608  0.76185  1.0000
  S   S480      1.0  0.32732  0.79604  0.88381  1.0000
  H   H1932     1.0  0.15856  0.78478  0.76334  1.0000
  H   H1933     1.0  0.27313  0.71248  0.85334  1.0000
  H   H1934     1.0  0.11664  0.75601  0.79476  1.0000
  H   H1935     1.0  0.26210  0.70794  0.86974  1.0000
  C   C1200     1.0  0.18918  0.69304  0.91012  1.0000
  C   C1201     1.0  0.18700  0.67959  0.91478  1.0000
  C   C1202     1.0  0.17444  0.67670  0.91453  1.0000
  C   C1203     1.0  0.16386  0.68728  0.90991  1.0000
  C   C1204     1.0  0.16618  0.70068  0.90486  1.0000
  C   C1205     1.0  0.17886  0.70354  0.90490  1.0000
  H   H1936     1.0  0.19504  0.67142  0.91869  1.0000
  Fe  Fe237     1.0  0.04455  0.66563  0.86351  1.0000
  H   H1937     1.0  0.15805  0.70893  0.90126  1.0000
  H   H1938     1.0  0.18045  0.71397  0.90140  1.0000
  H   H1939     1.0  0.29113  0.72578  0.85107  1.0000
  Fe  Fe238     1.0  0.22989  0.73560  0.88986  1.0000
  H   H1940     1.0  0.27111  0.74597  0.90040  1.0000
  H   H1941     1.0  0.26418  0.71493  0.89001  1.0000
  H   H1942     1.0  0.12337  0.71524  0.86211  1.0000
  C   C1206     1.0  0.11291  0.70534  0.82537  1.0000
  C   C1207     1.0  0.10516  0.69599  0.82544  1.0000
  C   C1208     1.0  0.09463  0.69261  0.83691  1.0000
  C   C1209     1.0  0.09160  0.69885  0.84818  1.0000
  C   C1210     1.0  0.09935  0.70821  0.84808  1.0000
  C   C1211     1.0  0.11014  0.71126  0.83680  1.0000
  H   H1943     1.0  0.10724  0.69138  0.81662  1.0000
  H   H1944     1.0  0.08866  0.68538  0.83693  1.0000
  H   H1945     1.0  0.09697  0.71310  0.85675  1.0000
  H   H1946     1.0  0.11617  0.71833  0.83693  1.0000
  C   C1212     1.0  0.27275  0.70972  0.86461  1.0000
  C   C1213     1.0  0.22607  0.67332  0.85460  1.0000
  C   C1214     1.0  0.22386  0.67923  0.86593  1.0000
  C   C1215     1.0  0.22983  0.69029  0.86477  1.0000
  C   C1216     1.0  0.23793  0.69561  0.85223  1.0000
  C   C1217     1.0  0.24061  0.68940  0.84095  1.0000
  C   C1218     1.0  0.23462  0.67824  0.84212  1.0000
  H   H1947     1.0  0.21738  0.67537  0.87564  1.0000
  H   H1948     1.0  0.22804  0.69472  0.87364  1.0000
  H   H1949     1.0  0.24694  0.69347  0.83125  1.0000
  H   H1950     1.0  0.31443  0.88990  0.91116  1.0000
  C   C1219     1.0  0.19550  0.67830  0.79837  1.0000
  C   C1220     1.0  0.18271  0.68721  0.79698  1.0000
  C   C1221     1.0  0.18066  0.70116  0.79713  1.0000
  C   C1222     1.0  0.19162  0.70632  0.79812  1.0000
  C   C1223     1.0  0.20467  0.69759  0.79866  1.0000
  C   C1224     1.0  0.20655  0.68356  0.79894  1.0000
  H   H1951     1.0  0.17432  0.68327  0.79603  1.0000
  H   H1952     1.0  0.17064  0.70793  0.79641  1.0000
  H   H1953     1.0  0.21322  0.70161  0.79917  1.0000
  H   H1954     1.0  0.21660  0.67687  0.79939  1.0000
  N   N120      1.0  0.19890  0.71891  0.83785  1.0000
  C   C1225     1.0  0.18631  0.72738  0.83300  1.0000
  C   C1226     1.0  0.19480  0.70962  0.85114  1.0000
  C   C1227     1.0  0.20696  0.72802  0.83963  1.0000
  C   C1228     1.0  0.20748  0.71066  0.82760  1.0000
  H   H1955     1.0  0.17965  0.73376  0.84044  1.0000
  H   H1956     1.0  0.17994  0.72089  0.83154  1.0000
  H   H1957     1.0  0.18901  0.73451  0.82297  1.0000
  H   H1958     1.0  0.18828  0.71551  0.85912  1.0000
  H   H1959     1.0  0.18869  0.70261  0.85017  1.0000
  C   C1229     1.0  0.27474  0.71669  0.88445  1.0000
  H   H1960     1.0  0.20068  0.73453  0.84719  1.0000
  C   C1230     1.0  0.09573  0.74563  0.81250  1.0000
  H   H1961     1.0  0.21053  0.71735  0.81737  1.0000
  H   H1962     1.0  0.20169  0.70362  0.82612  1.0000
  H   H1963     1.0  0.21715  0.70425  0.83085  1.0000
  H   H1964     1.0  0.25201  0.68541  0.78913  1.0000
  H   H1965     1.0  0.28903  0.66850  0.77733  1.0000
  C   C1231     1.0  0.32954  0.94808  0.82103  1.0000
  H   H1966     1.0  0.24495  0.67549  0.78188  1.0000
  C   C1232     1.0  0.26566  0.73366  0.86611  1.0000
  Fe  Fe239     1.0  0.20484  0.74178  0.87698  1.0000
  H   H1967     1.0  0.26575  0.73679  0.85491  1.0000
  H   H1968     1.0  0.15189  0.67262  0.79695  1.0000
  C   C1233     1.0  0.17192  0.67221  0.96763  1.0000
  C   C1234     1.0  0.09022  0.76106  0.79165  1.0000
  H   H1969     1.0  0.09821  0.75397  0.81580  1.0000
  C   C1235     1.0  0.15546  0.73976  0.85994  1.0000
  C   C1236     1.0  0.29002  0.72267  0.86244  1.0000
  H   H1970     1.0  0.31516  0.83406  0.81757  1.0000
  H   H1971     1.0  0.15210  0.80987  0.75357  1.0000
  H   H1972     1.0  0.12206  0.69797  0.86309  1.0000
  C   C1237     1.0  0.18720  0.79828  0.74788  1.0000
  H   H1973     1.0  0.09274  0.76979  0.79429  1.0000
  C   C1238     1.0  0.16239  0.73294  0.87066  1.0000
  H   H1974     1.0  0.16023  0.72323  0.87693  1.0000
  H   H1975     1.0  0.26776  0.74225  0.86934  1.0000
  H   H1976     1.0  0.12526  0.70923  0.89896  1.0000
  S   S481      1.0  0.24606  0.74001  0.89850  1.0000
  N   N121      1.0  0.09869  0.74773  0.79733  1.0000
  S   S482      1.0  0.12708  0.74240  0.82332  1.0000
  H   H1977     1.0  0.21648  0.72197  0.84342  1.0000
  C   C1239     1.0  0.31952  0.82118  0.92911  1.0000
  H   H1978     1.0  0.23640  0.67362  0.83337  1.0000
  S   S483      1.0  0.20700  0.73655  0.89907  1.0000
  H   H1979     1.0  0.13701  0.68378  0.88647  1.0000
  N   N122      1.0  0.27581  0.72067  0.86940  1.0000
  H   H1980     1.0  0.17779  0.73319  0.88132  1.0000
  H   H1981     1.0  0.10320  0.71834  0.88129  1.0000
  H   H1982     1.0  0.20408  0.70308  0.85511  1.0000
  H   H1983     1.0  0.09219  0.76295  0.78022  1.0000
  H   H1984     1.0  0.13807  0.70139  0.86424  1.0000
  C   C1240     1.0  0.17246  0.73848  0.87305  1.0000
  H   H1985     1.0  0.25493  0.73258  0.87160  1.0000
  C   C1241     1.0  0.10643  0.70724  0.88592  1.0000
  H   H1986     1.0  0.10246  0.70591  0.89726  1.0000
  Fe  Fe240     1.0  0.14538  0.73582  0.83338  1.0000
  S   S484      1.0  0.14401  0.73201  0.85613  1.0000
  C   C1242     1.0  0.27899  0.67624  0.77767  1.0000
  H   H1987     1.0  0.29437  0.86192  0.74022  1.0000
  H   H1988     1.0  0.28241  0.70708  0.88736  1.0000
  H   H1989     1.0  0.28278  0.94118  0.77344  1.0000
  N   N123      1.0  0.14753  0.66539  0.81893  1.0000
  H   H1990     1.0  0.10104  0.70141  0.88208  1.0000
  H   H1991     1.0  0.28022  0.69976  0.86682  1.0000
  N   N124      1.0  0.16465  0.67967  0.95633  1.0000
  C   C1243     1.0  0.11360  0.74784  0.79171  1.0000
  H   H1992     1.0  0.29797  0.71308  0.86467  1.0000
  C   C1244     1.0  0.12553  0.68772  0.88885  1.0000
  H   H1993     1.0  0.18354  0.68387  0.94207  1.0000
  H   H1994     1.0  0.31759  0.87133  0.93145  1.0000
  H   H1995     1.0  0.29260  0.73088  0.86589  1.0000
  C   C1245     1.0  0.12651  0.70429  0.86730  1.0000
  H   H1996     1.0  0.12216  0.68601  0.90028  1.0000
  N   N125      1.0  0.12173  0.70245  0.88241  1.0000
  S   S485      1.0  0.22731  0.74274  0.86796  1.0000
  H   H1997     1.0  0.19466  0.78854  0.74599  1.0000
  C   C1246     1.0  0.12845  0.71052  0.88756  1.0000
  H   H1998     1.0  0.12583  0.72170  0.88293  1.0000
  H   H1999     1.0  0.31137  0.92493  0.84307  1.0000
  H   H2000     1.0  0.21032  0.73508  0.82977  1.0000
  H   H2001     1.0  0.32036  0.94162  0.76213  1.0000
  H   H2002     1.0  0.17328  0.67940  0.97328  1.0000
  C   C1247     1.0  0.31424  0.86456  0.92673  1.0000
  H   H2003     1.0  0.29993  0.93271  0.77596  1.0000
  S   S486      1.0  0.32758  0.82019  0.84922  1.0000
  H   H2004     1.0  0.17291  0.66632  0.91812  1.0000
  H   H2005     1.0  0.12029  0.73782  0.79549  1.0000
  H   H2006     1.0  0.28015  0.68387  0.76774  1.0000
  H   H2007     1.0  0.29028  0.94122  0.74873  1.0000
  H   H2008     1.0  0.15725  0.66199  0.95645  1.0000
  H   H2009     1.0  0.26481  0.87320  0.77327  1.0000
  S   S487      1.0  0.13204  0.77591  0.79599  1.0000
  C   C1248     1.0  0.25259  0.75519  0.89228  1.0000
  H   H2010     1.0  0.25876  0.77684  0.92642  1.0000
  H   H2011     1.0  0.19317  0.87363  0.79374  1.0000
  C   C1249     1.0  0.01109  0.66971  0.89871  1.0000
  C   C1250     1.0  0.31923  0.81723  0.91717  1.0000
  C   C1251     1.0  0.31694  0.82441  0.81388  1.0000
  S   S488      1.0  0.15819  0.74912  0.81686  1.0000
  H   H2012     1.0  0.16422  0.81319  0.76138  1.0000
  H   H2013     1.0  0.26899  0.78229  0.90973  1.0000
  N   N126      1.0  0.25863  0.79853  0.92067  1.0000
  Fe  Fe241     1.0  0.30117  0.90268  0.77590  1.0000
  S   S489      1.0  0.29345  0.90992  0.79587  1.0000
  S   S490      1.0  0.28953  0.91115  0.75858  1.0000
  C   C1252     1.0  0.15826  0.75235  0.85193  1.0000
  C   C1253     1.0  0.17288  0.68932  0.94642  1.0000
  S   S491      1.0  0.12944  0.66138  0.94458  1.0000
  Fe  Fe242     1.0  0.30297  0.88830  0.80524  1.0000
  S   S492      1.0  0.29106  0.87638  0.82408  1.0000
  Fe  Fe243     1.0  0.31488  0.91380  0.79237  1.0000
  S   S493      1.0  0.32007  0.93368  0.79257  1.0000
  S   S494      1.0  0.30892  0.88066  0.78555  1.0000
  H   H2014     1.0  0.18892  0.80074  0.75708  1.0000
  H   H2015     1.0  0.17411  0.69719  0.95132  1.0000
  H   H2016     1.0  0.15278  0.75778  0.84379  1.0000
  C   C1254     1.0  0.22600  0.85772  0.78032  1.0000
  Fe  Fe244     1.0  0.29054  0.79469  0.88143  1.0000
  S   S495      1.0  0.29599  0.81450  0.88127  1.0000
  S   S496      1.0  0.26888  0.79501  0.87955  1.0000
  Fe  Fe245     1.0  0.31585  0.80702  0.86702  1.0000
  C   C1255     1.0  0.26538  0.75523  0.89487  1.0000
  Fe  Fe246     1.0  0.30704  0.80218  0.89810  1.0000
  S   S497      1.0  0.30477  0.81129  0.91651  1.0000
  S   S498      1.0  0.30950  0.78842  0.86547  1.0000
  S   S499      1.0  0.29988  0.78290  0.89960  1.0000
  H   H2017     1.0  0.12579  0.80217  0.77814  1.0000
  N   N127      1.0  0.26717  0.66967  0.77977  1.0000
  C   C1256     1.0  0.30061  0.94269  0.74904  1.0000
  H   H2018     1.0  0.09754  0.73755  0.78211  1.0000
  H   H2019     1.0  0.20968  0.85531  0.76488  1.0000
  H   H2020     1.0  0.27796  0.80518  0.91604  1.0000
  H   H2021     1.0  0.24763  0.79370  0.94168  1.0000
  C   C1257     1.0  0.02621  0.65942  0.91483  1.0000
  C   C1258     1.0  0.25403  0.68019  0.78041  1.0000
  H   H2022     1.0  0.20928  0.87387  0.79748  1.0000
  H   H2023     1.0  0.29189  0.94847  0.78157  1.0000
  H   H2024     1.0  0.08412  0.73598  0.79755  1.0000
  H   H2025     1.0  0.30898  0.82603  0.80775  1.0000
  H   H2026     1.0  0.22628  0.84769  0.78778  1.0000
  H   H2027     1.0  0.23185  0.85558  0.77003  1.0000
  Fe  Fe247     1.0  0.14289  0.66366  0.92322  1.0000
  H   H2028     1.0  0.32088  0.86641  0.82075  1.0000
  C   C1259     1.0  0.26319  0.77939  0.88379  1.0000
  H   H2029     1.0  0.23860  0.79521  0.92101  1.0000
  C   C1260     1.0  0.25045  0.77933  0.88109  1.0000
  H   H2030     1.0  0.23536  0.76728  0.88313  1.0000
  H   H2031     1.0  0.24453  0.78871  0.87592  1.0000
  H   H2032     1.0  0.14503  0.69326  0.95375  1.0000
  S   S500      1.0  0.19061  0.86977  0.74504  1.0000
  N   N128      1.0  0.21155  0.86535  0.77991  1.0000
  H   H2033     1.0  0.08459  0.74537  0.81713  1.0000
  H   H2034     1.0  0.25426  0.68823  0.77076  1.0000
  C   C1261     1.0  0.31489  0.92872  0.82093  1.0000
  C   C1262     1.0  0.31329  0.95188  0.75987  1.0000
  H   H2035     1.0  0.15711  0.67495  0.94096  1.0000
  C   C1263     1.0  0.31609  0.93084  0.83343  1.0000
  H   H2036     1.0  0.30929  0.92117  0.82096  1.0000
  C   C1264     1.0  0.30125  0.86103  0.83152  1.0000
  C   C1265     1.0  0.31579  0.85869  0.82800  1.0000
  Fe  Fe248     1.0  0.31930  0.77804  0.88358  1.0000
  C   C1266     1.0  0.31729  0.83612  0.84317  1.0000
  C   C1267     1.0  0.30276  0.83840  0.84665  1.0000
  C   C1268     1.0  0.29475  0.85091  0.84095  1.0000
  H   H2037     1.0  0.16552  0.86284  0.74357  1.0000
  C   C1269     1.0  0.14592  0.67632  0.80652  1.0000
  H   H2038     1.0  0.29767  0.83046  0.85350  1.0000
  H   H2039     1.0  0.28350  0.85266  0.84364  1.0000
  C   C1270     1.0  0.27803  0.90174  0.75726  1.0000
  S   S501      1.0  0.32200  0.90805  0.77170  1.0000
  H   H2040     1.0  0.31828  0.95767  0.74985  1.0000
  H   H2041     1.0  0.31089  0.82049  0.93790  1.0000
  C   C1271     1.0  0.26652  0.88244  0.76571  1.0000
  C   C1272     1.0  0.27578  0.88973  0.76691  1.0000
  C   C1273     1.0  0.16301  0.66970  0.94922  1.0000
  Fe  Fe249     1.0  0.32908  0.88672  0.78320  1.0000
  H   H2042     1.0  0.28109  0.88613  0.77537  1.0000
  N   N129      1.0  0.17265  0.79713  0.74981  1.0000
  H   H2043     1.0  0.26497  0.66396  0.80180  1.0000
  C   C1274     1.0  0.24524  0.76721  0.88515  1.0000
  C   C1275     1.0  0.27079  0.76721  0.89043  1.0000
  C   C1276     1.0  0.21180  0.87868  0.77013  1.0000
  H   H2044     1.0  0.26329  0.81865  0.91233  1.0000
  H   H2045     1.0  0.31486  0.81615  0.82316  1.0000
  C   C1277     1.0  0.24602  0.80190  0.91495  1.0000
  H   H2046     1.0  0.17329  0.66392  0.94442  1.0000
  C   C1278     1.0  0.32800  0.94624  0.80854  1.0000
  H   H2047     1.0  0.20363  0.85794  0.80142  1.0000
  H   H2048     1.0  0.27110  0.80656  0.90133  1.0000
  H   H2049     1.0  0.31554  0.86173  0.89430  1.0000
  C   C1279     1.0  0.20407  0.86780  0.79376  1.0000
  C   C1280     1.0  0.26815  0.80763  0.91225  1.0000
  H   H2050     1.0  0.07889  0.76144  0.79575  1.0000
  H   H2051     1.0  0.16535  0.81888  0.74317  1.0000
  S   S502      1.0  0.24819  0.87730  0.75375  1.0000
  H   H2052     1.0  0.31940  0.85377  0.93061  1.0000
  C   C1281     1.0  0.13225  0.78045  0.77825  1.0000
  C   C1282     1.0  0.13597  0.77046  0.77026  1.0000
  C   C1283     1.0  0.13596  0.77439  0.75615  1.0000
  C   C1284     1.0  0.13257  0.78833  0.74988  1.0000
  C   C1285     1.0  0.12901  0.79835  0.75781  1.0000
  C   C1286     1.0  0.12872  0.79440  0.77199  1.0000
  C   C1287     1.0  0.31307  0.85918  0.90575  1.0000
  H   H2053     1.0  0.13876  0.76661  0.75003  1.0000
  H   H2054     1.0  0.12618  0.80911  0.75307  1.0000
  C   C1288     1.0  0.26170  0.89906  0.74518  1.0000
  H   H2055     1.0  0.13480  0.68007  0.80575  1.0000
  N   N130      1.0  0.29933  0.95046  0.75964  1.0000
  H   H2056     1.0  0.28916  0.97032  0.76434  1.0000
  H   H2057     1.0  0.20391  0.84710  0.78246  1.0000
  H   H2058     1.0  0.10155  0.72622  0.79770  1.0000
  C   C1289     1.0  0.31102  0.88279  0.90689  1.0000
  H   H2059     1.0  0.31814  0.84820  0.90900  1.0000
  H   H2060     1.0  0.19346  0.86280  0.77474  1.0000
  S   S503      1.0  0.31039  0.67497  0.75169  1.0000
  N   N131      1.0  0.31785  0.86831  0.91154  1.0000
  C   C1290     1.0  0.20434  0.85726  0.77536  1.0000
  H   H2061     1.0  0.28068  0.76709  0.89244  1.0000
  H   H2062     1.0  0.26405  0.79817  0.93949  1.0000
  H   H2063     1.0  0.20113  0.88462  0.76915  1.0000
  C   C1291     1.0  0.26570  0.78403  0.92043  1.0000
  C   C1292     1.0  0.18790  0.85750  0.73765  1.0000
  H   H2064     1.0  0.13887  0.75973  0.77490  1.0000
  C   C1293     1.0  0.29313  0.94294  0.77325  1.0000
  H   H2065     1.0  0.27522  0.78105  0.92476  1.0000
  H   H2066     1.0  0.30162  0.85998  0.90923  1.0000
  C   C1294     1.0  0.25945  0.88707  0.75487  1.0000
  H   H2067     1.0  0.21707  0.88518  0.77323  1.0000
  C   C1295     1.0  0.17545  0.75095  0.86488  1.0000
  H   H2068     1.0  0.31275  0.95732  0.76806  1.0000
  H   H2069     1.0  0.02048  0.66691  0.92154  1.0000
  C   C1296     1.0  0.16818  0.75797  0.85445  1.0000
  H   H2070     1.0  0.31357  0.88603  0.89548  1.0000
  H   H2071     1.0  0.24926  0.81134  0.93555  1.0000
  H   H2072     1.0  0.17643  0.77598  0.76060  1.0000
  H   H2073     1.0  0.30728  0.93219  0.75119  1.0000
  C   C1297     1.0  0.09529  0.73640  0.79348  1.0000
  H   H2074     1.0  0.30282  0.86552  0.93068  1.0000
  H   H2075     1.0  0.23188  0.86375  0.78328  1.0000
  H   H2076     1.0  0.17037  0.76769  0.84819  1.0000
  S   S504      1.0  0.18848  0.75772  0.86725  1.0000
  H   H2077     1.0  0.27651  0.72494  0.88849  1.0000
  H   H2078     1.0  0.14424  0.68047  0.96945  1.0000
  H   H2079     1.0  0.16787  0.69489  0.93757  1.0000
  H   H2080     1.0  0.29464  0.97019  0.74627  1.0000
  H   H2081     1.0  0.10205  0.73569  0.81706  1.0000
  H   H2082     1.0  0.24048  0.81281  0.91479  1.0000
  C   C1298     1.0  0.16317  0.81034  0.75210  1.0000
  C   C1299     1.0  0.25469  0.80052  0.93499  1.0000
  H   H2083     1.0  0.21768  0.87710  0.75974  1.0000
  H   H2084     1.0  0.15157  0.69499  0.96761  1.0000
  Fe  Fe250     1.0  0.14076  0.75400  0.80573  1.0000
  H   H2085     1.0  0.24870  0.80039  0.90415  1.0000
  C   C1300     1.0  0.29030  0.96423  0.75650  1.0000
  H   H2086     1.0  0.01942  0.67446  0.89108  1.0000
  S   S505      1.0  0.32375  0.89286  0.80363  1.0000
  H   H2087     1.0  0.27641  0.86108  0.74649  1.0000
  C   C1301     1.0  0.27098  0.90637  0.74638  1.0000
  C   C1302     1.0  0.32377  0.84634  0.83399  1.0000
  H   H2088     1.0  0.27772  0.68164  0.78609  1.0000
  H   H2089     1.0  0.29949  0.88443  0.91030  1.0000
  H   H2090     1.0  0.14971  0.68542  0.80668  1.0000
  H   H2091     1.0  0.32128  0.69560  0.75670  1.0000
  H   H2092     1.0  0.28910  0.84596  0.74274  1.0000
  H   H2093     1.0  0.30525  0.94800  0.73860  1.0000
  H   H2094     1.0  0.33144  0.82830  0.93924  1.0000
  H   H2095     1.0  0.16600  0.66483  0.97530  1.0000
  H   H2096     1.0  0.16702  0.66909  0.81985  1.0000
  C   C1303     1.0  0.01114  0.66042  0.86366  1.0000
  H   H2097     1.0  0.18242  0.66619  0.96369  1.0000
  C   C1304     1.0  0.28611  0.85731  0.73921  1.0000
  H   H2098     1.0  0.18996  0.80661  0.73890  1.0000
  H   H2099     1.0  0.14342  0.68005  0.83173  1.0000
  S   S506      1.0  0.21741  0.66023  0.85644  1.0000
  H   H2100     1.0  0.27264  0.91568  0.73891  1.0000
  H   H2101     1.0  0.00467  0.67742  0.90494  1.0000
  C   C1305     1.0  0.13975  0.67096  0.83131  1.0000
  H   H2102     1.0  0.12842  0.67441  0.83139  1.0000
  C   C1306     1.0  0.17439  0.85630  0.73827  1.0000
  S   S507      1.0  0.19730  0.66058  0.80000  1.0000
  H   H2103     1.0  0.32891  0.91294  0.90338  1.0000
  H   H2104     1.0  0.14093  0.66309  0.84091  1.0000
  C   C1307     1.0  0.16245  0.66061  0.81939  1.0000
  H   H2105     1.0  0.32543  0.81132  0.79261  1.0000
  H   H2106     1.0  0.33018  0.81560  0.89652  1.0000
  C   C1308     1.0  0.26928  0.66290  0.76820  1.0000
  C   C1309     1.0  0.33044  0.81819  0.90588  1.0000
  C   C1310     1.0  0.32749  0.67630  0.75006  1.0000
  C   C1311     1.0  0.32995  0.68775  0.75311  1.0000
  Fe  Fe251     1.0  0.30981  0.66201  0.73765  1.0000
  H   H2107     1.0  0.15989  0.79339  0.73823  1.0000
  C   C1312     1.0  0.33112  0.82565  0.92987  1.0000
  C   C1313     1.0  0.26640  0.65931  0.79281  1.0000
  S   S508      1.0  0.33265  0.89249  0.92800  1.0000
  H   H2108     1.0  0.33053  0.79988  0.80776  1.0000
  H   H2109     1.0  0.33258  0.95228  0.79892  1.0000
  N   N132      1.0  0.33124  0.82098  0.80566  1.0000
  C   C1314     1.0  0.33271  0.80904  0.79961  1.0000
  C   C1315     1.0  0.17087  0.79384  0.73737  1.0000
  S   S509      1.0  0.23129  0.86177  0.73707  1.0000
  S   S510      1.0  0.33344  0.75721  0.88469  1.0000
  H   H2110     1.0  0.25622  0.90278  0.73684  1.0000
  C   C1316     1.0  0.33310  0.86668  0.90681  1.0000
  H   H2111     1.0  0.26081  0.65742  0.76963  1.0000
  H   H2112     1.0  0.66089  0.16781  0.09814  1.0000
  S   S511      1.0  0.36873  0.21099  0.22489  1.0000
  H   H2113     1.0  0.53075  0.11279  0.15286  1.0000
  C   C1317     1.0  0.33380  0.23320  0.17905  1.0000
  H   H2114     1.0  0.56234  0.23373  0.23165  1.0000
  C   C1318     1.0  0.64745  0.19392  0.17272  1.0000
  Fe  Fe252     1.0  0.38547  0.22300  0.21955  1.0000
  S   S512      1.0  0.40362  0.21764  0.20226  1.0000
  H   H2115     1.0  0.65118  0.23410  0.22521  1.0000
  H   H2116     1.0  0.61290  0.24085  0.22928  1.0000
  C   C1319     1.0  0.35839  0.08610  0.04431  1.0000
  C   C1320     1.0  0.35682  0.10576  0.18954  1.0000
  S   S513      1.0  0.35324  0.22875  0.15545  1.0000
  C   C1321     1.0  0.40208  0.12245  0.20530  1.0000
  C   C1322     1.0  0.38425  0.11260  0.20273  1.0000
  H   H2117     1.0  0.38604  0.12305  0.23070  1.0000
  Fe  Fe253     1.0  0.59521  0.20225  0.21134  1.0000
  S   S514      1.0  0.57680  0.20335  0.20253  1.0000
  Fe  Fe254     1.0  0.62215  0.21226  0.20615  1.0000
  S   S515      1.0  0.61766  0.19309  0.20349  1.0000
  S   S516      1.0  0.64165  0.08009  0.17735  1.0000
  C   C1323     1.0  0.64967  0.14535  0.22126  1.0000
  C   C1324     1.0  0.64379  0.15927  0.22137  1.0000
  H   H2118     1.0  0.62191  0.08027  0.08763  1.0000
  C   C1325     1.0  0.33787  0.10485  0.20956  1.0000
  Fe  Fe255     1.0  0.64052  0.14120  0.08380  1.0000
  S   S517      1.0  0.62530  0.13359  0.10291  1.0000
  Fe  Fe256     1.0  0.55350  0.15313  0.14669  1.0000
  S   S518      1.0  0.56666  0.13720  0.15996  1.0000
  S   S519      1.0  0.56378  0.16398  0.12588  1.0000
  Fe  Fe257     1.0  0.52693  0.15172  0.16880  1.0000
  S   S520      1.0  0.53852  0.13603  0.18393  1.0000
  S   S521      1.0  0.50336  0.15744  0.17620  1.0000
  Fe  Fe258     1.0  0.55490  0.14870  0.17662  1.0000
  S   S522      1.0  0.57021  0.14929  0.18867  1.0000
  Fe  Fe259     1.0  0.54936  0.12606  0.16601  1.0000
  S   S523      1.0  0.55319  0.10303  0.16978  1.0000
  S   S524      1.0  0.54245  0.16546  0.16305  1.0000
  S   S525      1.0  0.53700  0.14088  0.15120  1.0000
  S   S526      1.0  0.62425  0.05582  0.16588  1.0000
  S   S527      1.0  0.64139  0.04676  0.13624  1.0000
  Fe  Fe260     1.0  0.62647  0.06515  0.14340  1.0000
  S   S528      1.0  0.60972  0.07838  0.13245  1.0000
  Fe  Fe261     1.0  0.64056  0.03788  0.15875  1.0000
  S   S529      1.0  0.63786  0.01599  0.16909  1.0000
  S   S530      1.0  0.64309  0.07579  0.14262  1.0000
  Fe  Fe262     1.0  0.35564  0.06413  0.17571  1.0000
  S   S531      1.0  0.37644  0.05083  0.16857  1.0000
  S   S532      1.0  0.34599  0.06911  0.19670  1.0000
  Fe  Fe263     1.0  0.34793  0.07065  0.14799  1.0000
  S   S533      1.0  0.36795  0.05802  0.13819  1.0000
  C   C1326     1.0  0.34721  0.07908  0.11347  1.0000
  Fe  Fe264     1.0  0.36478  0.04238  0.15805  1.0000
  S   S534      1.0  0.36792  0.01926  0.16071  1.0000
  Fe  Fe265     1.0  0.37782  0.06743  0.14937  1.0000
  S   S535      1.0  0.39536  0.07815  0.13794  1.0000
  H   H2119     1.0  0.63567  0.22793  0.23430  1.0000
  S   S536      1.0  0.35809  0.08130  0.15741  1.0000
  Fe  Fe266     1.0  0.35187  0.15112  0.07558  1.0000
  S   S537      1.0  0.37129  0.15782  0.06245  1.0000
  H   H2120     1.0  0.34475  0.09569  0.02351  1.0000
  Fe  Fe267     1.0  0.36242  0.12194  0.07103  1.0000
  S   S538      1.0  0.38249  0.12636  0.05746  1.0000
  S   S539      1.0  0.36001  0.10023  0.07520  1.0000
  Fe  Fe268     1.0  0.38234  0.13766  0.07337  1.0000
  S   S540      1.0  0.40107  0.13238  0.08283  1.0000
  Fe  Fe269     1.0  0.36922  0.14584  0.04802  1.0000
  S   S541      1.0  0.37266  0.15422  0.02506  1.0000
  S   S542      1.0  0.36306  0.13190  0.08760  1.0000
  Fe  Fe270     1.0  0.33579  0.23094  0.14508  1.0000
  Fe  Fe271     1.0  0.41339  0.15329  0.17385  1.0000
  S   S543      1.0  0.43156  0.13541  0.17483  1.0000
  S   S544      1.0  0.40182  0.15996  0.19359  1.0000
  Fe  Fe272     1.0  0.41220  0.15273  0.14474  1.0000
  S   S545      1.0  0.43025  0.13461  0.14344  1.0000
  S   S546      1.0  0.39781  0.16287  0.12989  1.0000
  Fe  Fe273     1.0  0.42014  0.12611  0.16514  1.0000
  S   S547      1.0  0.41458  0.10567  0.17554  1.0000
  Fe  Fe274     1.0  0.44006  0.14571  0.15326  1.0000
  S   S548      1.0  0.46273  0.14708  0.14467  1.0000
  S   S549      1.0  0.40144  0.14332  0.16565  1.0000
  S   S550      1.0  0.42258  0.16459  0.15299  1.0000
  N   N133      1.0  0.36065  0.18906  0.18890  1.0000
  H   H2121     1.0  0.36792  0.07971  0.03900  1.0000
  C   C1327     1.0  0.44530  0.17847  0.19505  1.0000
  C   C1328     1.0  0.34346  0.20008  0.09895  1.0000
  C   C1329     1.0  0.36442  0.14839  0.01534  1.0000
  C   C1330     1.0  0.37054  0.14802  0.00146  1.0000
  H   H2122     1.0  0.43399  0.17983  0.19552  1.0000
  C   C1331     1.0  0.35199  0.13835  0.99974  1.0000
  C   C1332     1.0  0.34559  0.13930  0.01342  1.0000
  C   C1333     1.0  0.35180  0.14421  0.02123  1.0000
  C   C1334     1.0  0.33976  0.23495  0.19966  1.0000
  H   H2123     1.0  0.39027  0.10581  0.22776  1.0000
  C   C1335     1.0  0.40019  0.14124  0.09557  1.0000
  C   C1336     1.0  0.38912  0.15224  0.09847  1.0000
  C   C1337     1.0  0.38857  0.15892  0.10891  1.0000
  C   C1338     1.0  0.39893  0.15448  0.11667  1.0000
  C   C1339     1.0  0.40988  0.14338  0.11386  1.0000
  C   C1340     1.0  0.41055  0.13684  0.10329  1.0000
  H   H2124     1.0  0.38106  0.15566  0.09259  1.0000
  H   H2125     1.0  0.38003  0.16749  0.11102  1.0000
  H   H2126     1.0  0.41796  0.13993  0.11968  1.0000
  H   H2127     1.0  0.41914  0.12834  0.10110  1.0000
  C   C1341     1.0  0.40084  0.08555  0.14849  1.0000
  C   C1342     1.0  0.39594  0.08282  0.16276  1.0000
  C   C1343     1.0  0.40022  0.08902  0.17102  1.0000
  C   C1344     1.0  0.40915  0.09820  0.16501  1.0000
  C   C1345     1.0  0.41378  0.10119  0.15071  1.0000
  C   C1346     1.0  0.40981  0.09470  0.14248  1.0000
  H   H2128     1.0  0.38902  0.07577  0.16747  1.0000
  H   H2129     1.0  0.39660  0.08667  0.18208  1.0000
  H   H2130     1.0  0.42077  0.10818  0.14603  1.0000
  H   H2131     1.0  0.41370  0.09681  0.13146  1.0000
  H   H2132     1.0  0.35982  0.12571  0.12251  1.0000
  Fe  Fe275     1.0  0.60169  0.21284  0.23353  1.0000
  H   H2133     1.0  0.34327  0.19109  0.20602  1.0000
  C   C1347     1.0  0.35103  0.09599  0.09223  1.0000
  C   C1348     1.0  0.35341  0.08234  0.09946  1.0000
  S   S551      1.0  0.34717  0.12907  0.19997  1.0000
  H   H2134     1.0  0.35802  0.18497  0.17047  1.0000
  H   H2135     1.0  0.34286  0.18523  0.18431  1.0000
  H   H2136     1.0  0.36020  0.07432  0.09433  1.0000
  H   H2137     1.0  0.34393  0.10849  0.05425  1.0000
  C   C1349     1.0  0.49225  0.15418  0.16747  1.0000
  C   C1350     1.0  0.47884  0.15229  0.17460  1.0000
  C   C1351     1.0  0.46961  0.15016  0.16778  1.0000
  C   C1352     1.0  0.47378  0.14984  0.15376  1.0000
  C   C1353     1.0  0.48727  0.15149  0.14671  1.0000
  C   C1354     1.0  0.49647  0.15363  0.15353  1.0000
  H   H2138     1.0  0.47562  0.15236  0.18547  1.0000
  H   H2139     1.0  0.45932  0.14868  0.17334  1.0000
  H   H2140     1.0  0.49057  0.15125  0.13587  1.0000
  H   H2141     1.0  0.50672  0.15518  0.14789  1.0000
  C   C1355     1.0  0.56879  0.09612  0.15932  1.0000
  C   C1356     1.0  0.57614  0.08280  0.16386  1.0000
  C   C1357     1.0  0.58892  0.07739  0.15581  1.0000
  C   C1358     1.0  0.59413  0.08514  0.14301  1.0000
  C   C1359     1.0  0.58670  0.09841  0.13842  1.0000
  C   C1360     1.0  0.57416  0.10399  0.14667  1.0000
  H   H2142     1.0  0.57201  0.07670  0.17366  1.0000
  H   H2143     1.0  0.59455  0.06708  0.15932  1.0000
  H   H2144     1.0  0.59067  0.10441  0.12850  1.0000
  H   H2145     1.0  0.56851  0.11427  0.14310  1.0000
  H   H2146     1.0  0.34011  0.11685  0.09327  1.0000
  H   H2147     1.0  0.64948  0.20447  0.16853  1.0000
  C   C1361     1.0  0.37254  0.19566  0.18167  1.0000
  H   H2148     1.0  0.35819  0.14220  0.14413  1.0000
  C   C1362     1.0  0.35766  0.23256  0.17897  1.0000
  C   C1363     1.0  0.60812  0.14229  0.10849  1.0000
  C   C1364     1.0  0.59950  0.13521  0.11949  1.0000
  C   C1365     1.0  0.58581  0.14171  0.12457  1.0000
  C   C1366     1.0  0.58066  0.15543  0.11888  1.0000
  C   C1367     1.0  0.58922  0.16254  0.10777  1.0000
  C   C1368     1.0  0.60295  0.15597  0.10255  1.0000
  H   H2149     1.0  0.60340  0.12459  0.12402  1.0000
  H   H2150     1.0  0.57918  0.13595  0.13270  1.0000
  H   H2151     1.0  0.58524  0.17312  0.10321  1.0000
  H   H2152     1.0  0.60953  0.16146  0.09400  1.0000
  C   C1369     1.0  0.64781  0.00425  0.14603  1.0000
  H   H2153     1.0  0.34678  0.14482  0.03176  1.0000
  H   H2154     1.0  0.37990  0.18991  0.17394  1.0000
  C   C1370     1.0  0.64142  0.00264  0.16001  1.0000
  H   H2155     1.0  0.66190  0.17576  0.11848  1.0000
  C   C1371     1.0  0.37853  0.13572  0.20671  1.0000
  Fe  Fe276     1.0  0.35415  0.23142  0.22535  1.0000
  H   H2156     1.0  0.34773  0.20106  0.17465  1.0000
  H   H2157     1.0  0.37742  0.10075  0.02921  1.0000
  H   H2158     1.0  0.65068  0.18961  0.01878  1.0000
  C   C1372     1.0  0.35717  0.01241  0.12833  1.0000
  C   C1373     1.0  0.36052  0.01905  0.13691  1.0000
  C   C1374     1.0  0.36157  0.01226  0.15037  1.0000
  H   H2159     1.0  0.65761  0.16363  0.16187  1.0000
  S   S552      1.0  0.62465  0.20430  0.22792  1.0000
  H   H2160     1.0  0.35679  0.01756  0.11780  1.0000
  H   H2161     1.0  0.36275  0.02922  0.13297  1.0000
  H   H2162     1.0  0.44638  0.17825  0.20556  1.0000
  C   C1375     1.0  0.57519  0.18836  0.19843  1.0000
  C   C1376     1.0  0.58469  0.17589  0.20107  1.0000
  C   C1377     1.0  0.58301  0.16403  0.19799  1.0000
  C   C1378     1.0  0.57189  0.16453  0.19220  1.0000
  C   C1379     1.0  0.56247  0.17704  0.18937  1.0000
  C   C1380     1.0  0.56411  0.18892  0.19252  1.0000
  H   H2163     1.0  0.59322  0.17532  0.20568  1.0000
  H   H2164     1.0  0.59030  0.15437  0.20026  1.0000
  H   H2165     1.0  0.55381  0.17752  0.18499  1.0000
  H   H2166     1.0  0.55670  0.19853  0.19048  1.0000
  C   C1381     1.0  0.65015  0.16939  0.21187  1.0000
  H   H2167     1.0  0.64574  0.18012  0.21205  1.0000
  C   C1382     1.0  0.33840  0.08941  0.12016  1.0000
  H   H2168     1.0  0.40477  0.12650  0.19402  1.0000
  C   C1383     1.0  0.35677  0.09242  0.18874  1.0000
  C   C1384     1.0  0.34719  0.08528  0.19831  1.0000
  H   H2169     1.0  0.62412  0.26607  0.22867  1.0000
  H   H2170     1.0  0.37277  0.11582  0.22873  1.0000
  H   H2171     1.0  0.36425  0.08759  0.18085  1.0000
  H   H2172     1.0  0.36914  0.10720  0.04469  1.0000
  N   N134      1.0  0.35565  0.10038  0.03632  1.0000
  H   H2173     1.0  0.40898  0.11209  0.20741  1.0000
  H   H2174     1.0  0.65340  0.20044  0.14483  1.0000
  H   H2175     1.0  0.34291  0.16949  0.05511  1.0000
  C   C1385     1.0  0.66237  0.22245  0.17536  1.0000
  C   C1386     1.0  0.35135  0.17977  0.08886  1.0000
  C   C1387     1.0  0.35424  0.19078  0.09237  1.0000
  C   C1388     1.0  0.36439  0.14293  0.99369  1.0000
  H   H2176     1.0  0.37204  0.17330  0.20250  1.0000
  H   H2177     1.0  0.35974  0.17261  0.08391  1.0000
  H   H2178     1.0  0.36485  0.19209  0.08995  1.0000
  C   C1389     1.0  0.40386  0.20142  0.19972  1.0000
  C   C1390     1.0  0.39922  0.19145  0.21089  1.0000
  C   C1391     1.0  0.39879  0.17870  0.20887  1.0000
  C   C1392     1.0  0.40335  0.17571  0.19572  1.0000
  C   C1393     1.0  0.40842  0.18549  0.18454  1.0000
  C   C1394     1.0  0.40856  0.19841  0.18653  1.0000
  H   H2179     1.0  0.39601  0.19352  0.22116  1.0000
  H   H2180     1.0  0.39494  0.17113  0.21756  1.0000
  H   H2181     1.0  0.41182  0.18326  0.17434  1.0000
  H   H2182     1.0  0.41201  0.20618  0.17784  1.0000
  Fe  Fe277     1.0  0.64974  0.14959  0.05233  1.0000
  H   H2183     1.0  0.58175  0.19733  0.13311  1.0000
  S   S553      1.0  0.34736  0.21419  0.10246  1.0000
  C   C1395     1.0  0.38396  0.11635  0.22494  1.0000
  H   H2184     1.0  0.63601  0.19488  0.17473  1.0000
  H   H2185     1.0  0.59619  0.17680  0.16364  1.0000
  C   C1396     1.0  0.35371  0.10029  0.02265  1.0000
  C   C1397     1.0  0.65594  0.19716  0.02022  1.0000
  H   H2186     1.0  0.64470  0.13751  0.22857  1.0000
  H   H2187     1.0  0.38064  0.14293  0.21185  1.0000
  H   H2188     1.0  0.63305  0.26529  0.20390  1.0000
  H   H2189     1.0  0.63773  0.10490  0.10462  1.0000
  H   H2190     1.0  0.35722  0.16901  0.19972  1.0000
  H   H2191     1.0  0.34771  0.20700  0.19616  1.0000
  S   S554      1.0  0.63586  0.22536  0.19057  1.0000
  C   C1398     1.0  0.44960  0.18932  0.17097  1.0000
  C   C1399     1.0  0.44370  0.20303  0.18828  1.0000
  H   H2192     1.0  0.43846  0.19073  0.17074  1.0000
  H   H2193     1.0  0.45523  0.17934  0.16792  1.0000
  H   H2194     1.0  0.45382  0.19762  0.16290  1.0000
  H   H2195     1.0  0.44446  0.20351  0.19870  1.0000
  H   H2196     1.0  0.44787  0.21168  0.18077  1.0000
  C   C1400     1.0  0.65884  0.20585  0.19681  1.0000
  S   S555      1.0  0.35237  0.99042  0.12153  1.0000
  H   H2197     1.0  0.64195  0.19965  0.04590  1.0000
  S   S556      1.0  0.66222  0.13742  0.08719  1.0000
  H   H2198     1.0  0.36847  0.23175  0.17367  1.0000
  H   H2199     1.0  0.36442  0.11115  0.18232  1.0000
  H   H2200     1.0  0.35269  0.18334  0.02513  1.0000
  H   H2201     1.0  0.62565  0.11603  0.08505  1.0000
  C   C1401     1.0  0.64101  0.15845  0.00622  1.0000
  H   H2202     1.0  0.65055  0.01396  0.14044  1.0000
  H   H2203     1.0  0.66341  0.05706  0.18588  1.0000
  C   C1402     1.0  0.35866  0.99905  0.15536  1.0000
  N   N135      1.0  0.58738  0.17781  0.14657  1.0000
  H   H2204     1.0  0.65598  0.99455  0.12850  1.0000
  H   H2205     1.0  0.38419  0.99244  0.13006  1.0000
  H   H2206     1.0  0.57957  0.16060  0.14630  1.0000
  H   H2207     1.0  0.35929  0.99383  0.16582  1.0000
  N   N136      1.0  0.37152  0.12396  0.13762  1.0000
  C   C1403     1.0  0.36824  0.13894  0.13703  1.0000
  C   C1404     1.0  0.36059  0.12028  0.13325  1.0000
  C   C1405     1.0  0.37220  0.11646  0.15186  1.0000
  C   C1406     1.0  0.38510  0.12014  0.12835  1.0000
  H   H2208     1.0  0.37649  0.14210  0.13995  1.0000
  Fe  Fe278     1.0  0.65789  0.05670  0.13751  1.0000
  C   C1407     1.0  0.34214  0.10632  0.09888  1.0000
  H   H2209     1.0  0.38023  0.15139  0.99677  1.0000
  H   H2210     1.0  0.36273  0.10901  0.13366  1.0000
  H   H2211     1.0  0.35017  0.12307  0.14000  1.0000
  H   H2212     1.0  0.37444  0.10511  0.15272  1.0000
  H   H2213     1.0  0.36218  0.11927  0.15916  1.0000
  H   H2214     1.0  0.38058  0.11871  0.15541  1.0000
  H   H2215     1.0  0.38493  0.12553  0.11752  1.0000
  H   H2216     1.0  0.38799  0.10889  0.12867  1.0000
  C   C1408     1.0  0.36758  0.10668  0.03458  1.0000
  H   H2217     1.0  0.57112  0.16857  0.16077  1.0000
  C   C1409     1.0  0.35370  0.23389  0.19274  1.0000
  C   C1410     1.0  0.51942  0.11476  0.15305  1.0000
  C   C1411     1.0  0.49648  0.11306  0.16683  1.0000
  H   H2218     1.0  0.51582  0.12598  0.14915  1.0000
  H   H2219     1.0  0.51828  0.10928  0.14559  1.0000
  H   H2220     1.0  0.51017  0.12895  0.17307  1.0000
  H   H2221     1.0  0.49010  0.10968  0.17720  1.0000
  H   H2222     1.0  0.49462  0.10777  0.15960  1.0000
  H   H2223     1.0  0.49235  0.12427  0.16346  1.0000
  N   N137      1.0  0.59960  0.10409  0.17872  1.0000
  C   C1412     1.0  0.60600  0.09738  0.19075  1.0000
  C   C1413     1.0  0.58476  0.10332  0.18244  1.0000
  C   C1414     1.0  0.60693  0.09701  0.16720  1.0000
  C   C1415     1.0  0.60069  0.11869  0.17450  1.0000
  H   H2224     1.0  0.61709  0.09817  0.18844  1.0000
  H   H2225     1.0  0.60589  0.08621  0.19386  1.0000
  H   H2226     1.0  0.60047  0.10216  0.19978  1.0000
  H   H2227     1.0  0.57961  0.10841  0.17364  1.0000
  H   H2228     1.0  0.58350  0.09246  0.18551  1.0000
  H   H2229     1.0  0.57889  0.10853  0.19112  1.0000
  H   H2230     1.0  0.60237  0.10178  0.15794  1.0000
  H   H2231     1.0  0.60631  0.08597  0.17002  1.0000
  H   H2232     1.0  0.61818  0.09733  0.16417  1.0000
  H   H2233     1.0  0.59499  0.12441  0.18287  1.0000
  H   H2234     1.0  0.59615  0.12397  0.16531  1.0000
  H   H2235     1.0  0.61174  0.11965  0.17186  1.0000
  N   N138      1.0  0.62984  0.09442  0.09390  1.0000
  C   C1416     1.0  0.62106  0.10689  0.08714  1.0000
  C   C1417     1.0  0.63167  0.09680  0.10675  1.0000
  C   C1418     1.0  0.64362  0.09130  0.08463  1.0000
  C   C1419     1.0  0.66240  0.16560  0.20235  1.0000
  H   H2236     1.0  0.66633  0.15542  0.23330  1.0000
  H   H2237     1.0  0.61053  0.10936  0.09382  1.0000
  H   H2238     1.0  0.61976  0.10569  0.07720  1.0000
  H   H2239     1.0  0.35918  0.19626  0.02880  1.0000
  H   H2240     1.0  0.35229  0.18678  0.06008  1.0000
  C   C1420     1.0  0.35502  0.99255  0.14687  1.0000
  H   H2241     1.0  0.66118  0.08568  0.11672  1.0000
  H   H2242     1.0  0.64902  0.10001  0.08182  1.0000
  H   H2243     1.0  0.64272  0.08931  0.07487  1.0000
  N   N139      1.0  0.65507  0.18469  0.16310  1.0000
  S   S557      1.0  0.34473  0.13030  0.99110  1.0000
  H   H2244     1.0  0.36741  0.14491  0.12647  1.0000
  N   N140      1.0  0.38004  0.20466  0.12204  1.0000
  C   C1421     1.0  0.39136  0.20194  0.12942  1.0000
  C   C1422     1.0  0.38565  0.20001  0.10884  1.0000
  C   C1423     1.0  0.37391  0.21959  0.11934  1.0000
  C   C1424     1.0  0.36920  0.19711  0.13058  1.0000
  H   H2245     1.0  0.38742  0.20537  0.13940  1.0000
  H   H2246     1.0  0.39977  0.20741  0.12324  1.0000
  H   H2247     1.0  0.39620  0.19075  0.13166  1.0000
  H   H2248     1.0  0.37730  0.20189  0.10309  1.0000
  H   H2249     1.0  0.39384  0.20549  0.10209  1.0000
  H   H2250     1.0  0.39035  0.18878  0.11052  1.0000
  H   H2251     1.0  0.38178  0.22563  0.11291  1.0000
  H   H2252     1.0  0.36948  0.22345  0.12907  1.0000
  H   H2253     1.0  0.36531  0.22204  0.11381  1.0000
  H   H2254     1.0  0.37354  0.18583  0.13302  1.0000
  H   H2255     1.0  0.36068  0.19866  0.12514  1.0000
  H   H2256     1.0  0.36445  0.20063  0.14045  1.0000
  N   N141      1.0  0.39621  0.09084  0.09648  1.0000
  C   C1425     1.0  0.39485  0.07632  0.10079  1.0000
  C   C1426     1.0  0.39739  0.09540  0.08145  1.0000
  C   C1427     1.0  0.40880  0.09221  0.10003  1.0000
  C   C1428     1.0  0.38377  0.09948  0.10363  1.0000
  H   H2257     1.0  0.38533  0.07503  0.09839  1.0000
  H   H2258     1.0  0.39402  0.07253  0.11209  1.0000
  H   H2259     1.0  0.40400  0.06945  0.09556  1.0000
  H   H2260     1.0  0.39843  0.10633  0.07792  1.0000
  H   H2261     1.0  0.40666  0.08911  0.07571  1.0000
  H   H2262     1.0  0.38806  0.09460  0.07837  1.0000
  H   H2263     1.0  0.41007  0.10308  0.09692  1.0000
  H   H2264     1.0  0.41838  0.08581  0.09482  1.0000
  H   H2265     1.0  0.40832  0.08890  0.11128  1.0000
  H   H2266     1.0  0.38468  0.11042  0.10100  1.0000
  H   H2267     1.0  0.38223  0.09588  0.11499  1.0000
  H   H2268     1.0  0.37416  0.09912  0.10072  1.0000
  N   N142      1.0  0.45118  0.18958  0.18472  1.0000
  N   N143      1.0  0.51142  0.11017  0.16705  1.0000
  H   H2269     1.0  0.40470  0.12936  0.21041  1.0000
  H   H2270     1.0  0.57629  0.18340  0.13022  1.0000
  H   H2271     1.0  0.34906  0.06852  0.11905  1.0000
  S   S558      1.0  0.62879  0.16408  0.23358  1.0000
  H   H2272     1.0  0.36314  0.09439  0.01667  1.0000
  H   H2273     1.0  0.43242  0.20506  0.18838  1.0000
  H   H2274     1.0  0.47086  0.19575  0.17696  1.0000
  H   H2275     1.0  0.47219  0.17756  0.18180  1.0000
  C   C1429     1.0  0.51335  0.11764  0.17657  1.0000
  H   H2276     1.0  0.51079  0.09143  0.18233  1.0000
  H   H2277     1.0  0.37851  0.19623  0.18899  1.0000
  H   H2278     1.0  0.65551  0.16620  0.17879  1.0000
  H   H2279     1.0  0.62894  0.07324  0.10288  1.0000
  C   C1430     1.0  0.46612  0.18750  0.18460  1.0000
  H   H2280     1.0  0.50710  0.11482  0.18714  1.0000
  H   H2281     1.0  0.56726  0.19083  0.14487  1.0000
  C   C1431     1.0  0.60085  0.17342  0.13734  1.0000
  S   S559      1.0  0.64646  0.12958  0.06669  1.0000
  H   H2282     1.0  0.46774  0.18745  0.19485  1.0000
  H   H2283     1.0  0.45059  0.16818  0.19260  1.0000
  H   H2284     1.0  0.40164  0.99162  0.13112  1.0000
  C   C1432     1.0  0.61840  0.24649  0.21946  1.0000
  C   C1433     1.0  0.51649  0.09523  0.17174  1.0000
  H   H2285     1.0  0.52778  0.09276  0.17192  1.0000
  H   H2286     1.0  0.52443  0.11538  0.17731  1.0000
  S   S560      1.0  0.64170  0.16163  0.06936  1.0000
  Fe  Fe279     1.0  0.64228  0.06504  0.16461  1.0000
  H   H2287     1.0  0.66440  0.19890  0.01096  1.0000
  H   H2288     1.0  0.65215  0.20211  0.20638  1.0000
  H   H2289     1.0  0.36902  0.20634  0.17613  1.0000
  H   H2290     1.0  0.51518  0.08925  0.16482  1.0000
  H   H2291     1.0  0.66606  0.13086  0.21116  1.0000
  H   H2292     1.0  0.65839  0.23156  0.16828  1.0000
  N   N144      1.0  0.38721  0.12177  0.20992  1.0000
  C   C1434     1.0  0.63037  0.25544  0.23122  1.0000
  H   H2293     1.0  0.36726  0.13558  0.21019  1.0000
  C   C1435     1.0  0.65331  0.13753  0.01871  1.0000
  C   C1436     1.0  0.58131  0.16568  0.15375  1.0000
  C   C1437     1.0  0.65057  0.13848  0.99555  1.0000
  H   H2294     1.0  0.64813  0.20703  0.02055  1.0000
  C   C1438     1.0  0.36591  0.17442  0.19468  1.0000
  H   H2295     1.0  0.63725  0.08727  0.11274  1.0000
  H   H2296     1.0  0.65057  0.08208  0.08958  1.0000
  S   S561      1.0  0.33492  0.23565  0.21712  1.0000
  C   C1439     1.0  0.35214  0.19603  0.20018  1.0000
  C   C1440     1.0  0.65061  0.19027  0.14986  1.0000
  H   H2297     1.0  0.58819  0.15787  0.16013  1.0000
  H   H2298     1.0  0.57942  0.18798  0.16367  1.0000
  S   S562      1.0  0.65847  0.04641  0.15954  1.0000
  H   H2299     1.0  0.35840  0.19577  0.20759  1.0000
  C   C1441     1.0  0.65876  0.09095  0.18594  1.0000
  C   C1442     1.0  0.64607  0.15121  0.01811  1.0000
  C   C1443     1.0  0.64319  0.15213  0.99502  1.0000
  H   H2300     1.0  0.37328  0.11135  0.20642  1.0000
  H   H2301     1.0  0.65175  0.10074  0.18343  1.0000
  H   H2302     1.0  0.36243  0.17884  0.03825  1.0000
  H   H2303     1.0  0.35161  0.11089  0.01633  1.0000
  H   H2304     1.0  0.55070  0.20426  0.22727  1.0000
  C   C1444     1.0  0.35196  0.19011  0.17914  1.0000
  S   S563      1.0  0.33687  0.24238  0.12327  1.0000
  C   C1445     1.0  0.66181  0.14159  0.21151  1.0000
  H   H2305     1.0  0.62147  0.10028  0.11353  1.0000
  H   H2306     1.0  0.59953  0.16834  0.12962  1.0000
  C   C1446     1.0  0.62298  0.08269  0.09712  1.0000
  C   C1447     1.0  0.65554  0.13122  0.00750  1.0000
  H   H2307     1.0  0.63528  0.16900  0.00568  1.0000
  H   H2308     1.0  0.37283  0.16892  0.18656  1.0000
  S   S564      1.0  0.59970  0.22224  0.21178  1.0000
  S   S565      1.0  0.64354  0.15984  0.03170  1.0000
  H   H2309     1.0  0.61235  0.08493  0.10368  1.0000
  N   N145      1.0  0.34146  0.19028  0.04387  1.0000
  H   H2310     1.0  0.64230  0.22750  0.21639  1.0000
  H   H2311     1.0  0.59442  0.19323  0.15183  1.0000
  H   H2312     1.0  0.36147  0.23406  0.19798  1.0000
  H   H2313     1.0  0.34862  0.20435  0.05111  1.0000
  Fe  Fe280     1.0  0.61832  0.18581  0.22591  1.0000
  H   H2314     1.0  0.65578  0.18331  0.14250  1.0000
  H   H2315     1.0  0.65728  0.13181  0.02778  1.0000
  C   C1448     1.0  0.65357  0.21746  0.18757  1.0000
  H   H2316     1.0  0.60567  0.18232  0.13154  1.0000
  H   H2317     1.0  0.60836  0.16588  0.14320  1.0000
  S   S566      1.0  0.37071  0.24374  0.21833  1.0000
  C   C1449     1.0  0.57777  0.18781  0.13835  1.0000
  C   C1450     1.0  0.58949  0.18425  0.15684  1.0000
  H   H2318     1.0  0.38057  0.14006  0.19545  1.0000
  H   H2319     1.0  0.53478  0.22549  0.23406  1.0000
  C   C1451     1.0  0.34721  0.11209  0.19977  1.0000
  H   H2320     1.0  0.66100  0.21224  0.03538  1.0000
  H   H2321     1.0  0.39113  0.10216  0.20432  1.0000
  C   C1452     1.0  0.34291  0.10842  0.04379  1.0000
  C   C1453     1.0  0.34776  0.23200  0.17216  1.0000
  H   H2322     1.0  0.34955  0.08107  0.04590  1.0000
  C   C1454     1.0  0.64072  0.23367  0.22427  1.0000
  N   N146      1.0  0.63218  0.24760  0.22052  1.0000
  H   H2323     1.0  0.56555  0.19639  0.23466  1.0000
  S   S567      1.0  0.34905  0.14043  0.06045  1.0000
  S   S568      1.0  0.34075  0.15398  0.22267  1.0000
  H   H2324     1.0  0.38594  0.11672  0.19142  1.0000
  H   H2325     1.0  0.65058  0.19011  0.18280  1.0000
  C   C1455     1.0  0.65204  0.17082  0.16894  1.0000
  H   H2326     1.0  0.39359  0.12285  0.13130  1.0000
  Fe  Fe281     1.0  0.66405  0.15676  0.07122  1.0000
  H   H2327     1.0  0.66130  0.12068  0.00801  1.0000
  H   H2328     1.0  0.35992  0.08580  0.05468  1.0000
  C   C1456     1.0  0.56228  0.22390  0.22912  1.0000
  H   H2329     1.0  0.64080  0.24905  0.19885  1.0000
  H   H2330     1.0  0.61936  0.24085  0.21131  1.0000
  H   H2331     1.0  0.65357  0.18595  0.05465  1.0000
  S   S569      1.0  0.34385  0.05438  0.16689  1.0000
  C   C1457     1.0  0.65088  0.99322  0.13928  1.0000
  C   C1458     1.0  0.65628  0.07898  0.18390  1.0000
  C   C1459     1.0  0.33570  0.10300  0.11282  1.0000
  H   H2332     1.0  0.61155  0.25680  0.21692  1.0000
  C   C1460     1.0  0.35472  0.99903  0.13318  1.0000
  H   H2333     1.0  0.33946  0.20633  0.23405  1.0000
  C   C1461     1.0  0.34446  0.19481  0.05502  1.0000
  H   H2334     1.0  0.57326  0.21829  0.22676  1.0000
  H   H2335     1.0  0.64429  0.18238  0.04389  1.0000
  H   H2336     1.0  0.64070  0.17113  0.17105  1.0000
  N   N147      1.0  0.66143  0.19205  0.03293  1.0000
  H   H2337     1.0  0.55835  0.22633  0.21949  1.0000
  H   H2338     1.0  0.33579  0.13613  0.01799  1.0000
  H   H2339     1.0  0.63917  0.19168  0.15124  1.0000
  C   C1462     1.0  0.64980  0.18992  0.04487  1.0000
  S   S570      1.0  0.59549  0.19350  0.23363  1.0000
  H   H2340     1.0  0.34068  0.11931  0.03826  1.0000
  C   C1463     1.0  0.33761  0.17828  0.09149  1.0000
  H   H2341     1.0  0.36600  0.11736  0.02835  1.0000
  H   H2342     1.0  0.64055  0.25626  0.23256  1.0000
  C   C1464     1.0  0.66535  0.06637  0.18724  1.0000
  H   H2343     1.0  0.33369  0.19124  0.23419  1.0000
  H   H2344     1.0  0.59952  0.99320  0.14597  1.0000
  C   C1465     1.0  0.35448  0.18710  0.03356  1.0000
  H   H2345     1.0  0.33495  0.19682  0.06324  1.0000
  H   H2346     1.0  0.66359  0.10511  0.09645  1.0000
  C   C1466     1.0  0.33794  0.09140  0.20889  1.0000
  C   C1467     1.0  0.63924  0.25477  0.20712  1.0000
  H   H2347     1.0  0.64968  0.25581  0.20754  1.0000
  H   H2348     1.0  0.59359  0.99360  0.16397  1.0000
  H   H2349     1.0  0.33536  0.21089  0.03264  1.0000
  C   C1468     1.0  0.33561  0.17783  0.04972  1.0000
  H   H2350     1.0  0.66668  0.17092  0.03097  1.0000
  S   S571      1.0  0.33359  0.16557  0.08566  1.0000
  H   H2351     1.0  0.33356  0.17381  0.04162  1.0000
  H   H2352     1.0  0.33364  0.10412  0.04508  1.0000
  C   C1469     1.0  0.61426  0.22298  0.25820  1.0000
  C   C1470     1.0  0.36724  0.21037  0.29864  1.0000
  N   N148      1.0  0.48153  0.31289  0.38944  1.0000
  S   S572      1.0  0.36622  0.19319  0.26496  1.0000
  H   H2353     1.0  0.61945  0.28081  0.40210  1.0000
  H   H2354     1.0  0.34395  0.29966  0.40821  1.0000
  H   H2355     1.0  0.62806  0.24216  0.32720  1.0000
  C   C1471     1.0  0.60117  0.23126  0.25691  1.0000
  H   H2356     1.0  0.59443  0.29332  0.40473  1.0000
  C   C1472     1.0  0.35401  0.22701  0.28302  1.0000
  C   C1473     1.0  0.64922  0.21167  0.32124  1.0000
  H   H2357     1.0  0.37910  0.21260  0.27207  1.0000
  C   C1474     1.0  0.61637  0.31503  0.38836  1.0000
  H   H2358     1.0  0.37761  0.23226  0.29782  1.0000
  C   C1475     1.0  0.65528  0.27836  0.34967  1.0000
  C   C1476     1.0  0.36194  0.17867  0.26256  1.0000
  Fe  Fe282     1.0  0.37033  0.24062  0.24088  1.0000
  H   H2359     1.0  0.48667  0.30079  0.40854  1.0000
  N   N149      1.0  0.33866  0.28019  0.41889  1.0000
  H   H2360     1.0  0.39481  0.24701  0.25465  1.0000
  C   C1477     1.0  0.36168  0.16713  0.27334  1.0000
  H   H2361     1.0  0.65881  0.29562  0.31806  1.0000
  H   H2362     1.0  0.66344  0.27629  0.35522  1.0000
  C   C1478     1.0  0.35796  0.15552  0.27200  1.0000
  H   H2363     1.0  0.65381  0.20674  0.31217  1.0000
  C   C1479     1.0  0.62276  0.22682  0.26455  1.0000
  H   H2364     1.0  0.63286  0.22032  0.26554  1.0000
  H   H2365     1.0  0.37883  0.23067  0.26817  1.0000
  C   C1480     1.0  0.53935  0.22311  0.24329  1.0000
  N   N150      1.0  0.36701  0.22330  0.28813  1.0000
  H   H2366     1.0  0.56900  0.32080  0.31973  1.0000
  C   C1481     1.0  0.42140  0.32186  0.41823  1.0000
  H   H2367     1.0  0.59793  0.30143  0.38681  1.0000
  C   C1482     1.0  0.59810  0.30227  0.39731  1.0000
  C   C1483     1.0  0.59663  0.24340  0.26207  1.0000
  C   C1484     1.0  0.49621  0.31228  0.38207  1.0000
  H   H2368     1.0  0.54847  0.19576  0.24516  1.0000
  C   C1485     1.0  0.64901  0.23427  0.30678  1.0000
  H   H2369     1.0  0.34466  0.22860  0.29145  1.0000
  H   H2370     1.0  0.59031  0.31171  0.39959  1.0000
  H   H2371     1.0  0.35321  0.21880  0.27828  1.0000
  H   H2372     1.0  0.61777  0.21350  0.25449  1.0000
  S   S573      1.0  0.35247  0.22989  0.24765  1.0000
  H   H2373     1.0  0.60446  0.31314  0.41521  1.0000
  H   H2374     1.0  0.41403  0.30803  0.45254  1.0000
  H   H2375     1.0  0.48453  0.29106  0.39743  1.0000
  C   C1486     1.0  0.35842  0.17854  0.25038  1.0000
  H   H2376     1.0  0.62485  0.25041  0.24138  1.0000
  C   C1487     1.0  0.34578  0.31523  0.36520  1.0000
  H   H2377     1.0  0.62222  0.21767  0.31971  1.0000
  C   C1488     1.0  0.35411  0.15546  0.26001  1.0000
  H   H2378     1.0  0.63297  0.29042  0.39491  1.0000
  C   C1489     1.0  0.57572  0.31636  0.33888  1.0000
  S   S574      1.0  0.64722  0.26191  0.32201  1.0000
  H   H2379     1.0  0.66498  0.15293  0.25141  1.0000
  C   C1490     1.0  0.43433  0.31208  0.30242  1.0000
  C   C1491     1.0  0.35112  0.27214  0.41110  1.0000
  Fe  Fe283     1.0  0.39193  0.30466  0.31884  1.0000
  S   S575      1.0  0.38139  0.28803  0.31904  1.0000
  S   S576      1.0  0.40183  0.30430  0.33608  1.0000
  H   H2380     1.0  0.35874  0.18733  0.24197  1.0000
  S   S577      1.0  0.37455  0.30651  0.28913  1.0000
  Fe  Fe284     1.0  0.36491  0.30560  0.31158  1.0000
  Fe  Fe285     1.0  0.39164  0.28981  0.29664  1.0000
  S   S578      1.0  0.40144  0.27130  0.28675  1.0000
  N   N151      1.0  0.64045  0.22545  0.31744  1.0000
  S   S579      1.0  0.40407  0.30454  0.29721  1.0000
  Fe  Fe286     1.0  0.60788  0.28762  0.29708  1.0000
  S   S580      1.0  0.61536  0.26520  0.30578  1.0000
  S   S581      1.0  0.58690  0.30039  0.30457  1.0000
  Fe  Fe287     1.0  0.63510  0.29087  0.27777  1.0000
  S   S582      1.0  0.64516  0.26888  0.28447  1.0000
  H   H2381     1.0  0.62719  0.31542  0.38826  1.0000
  Fe  Fe288     1.0  0.62539  0.26375  0.28379  1.0000
  Fe  Fe289     1.0  0.63459  0.27166  0.30584  1.0000
  S   S583      1.0  0.61617  0.28574  0.27491  1.0000
  S   S584      1.0  0.62626  0.29414  0.29930  1.0000
  C   C1492     1.0  0.42317  0.31342  0.43096  1.0000
  H   H2382     1.0  0.65800  0.21230  0.32537  1.0000
  N   N152      1.0  0.55398  0.21548  0.24059  1.0000
  H   H2383     1.0  0.64310  0.20473  0.32929  1.0000
  H   H2384     1.0  0.34996  0.27870  0.36390  1.0000
  S   S585      1.0  0.62972  0.24355  0.27691  1.0000
  C   C1493     1.0  0.38997  0.25450  0.26110  1.0000
  Fe  Fe290     1.0  0.38603  0.32111  0.29147  1.0000
  S   S586      1.0  0.36557  0.25783  0.25235  1.0000
  H   H2385     1.0  0.43290  0.30612  0.43181  1.0000
  H   H2386     1.0  0.38911  0.21910  0.27982  1.0000
  H   H2387     1.0  0.47686  0.30314  0.37569  1.0000
  C   C1494     1.0  0.64086  0.32243  0.27979  1.0000
  C   C1495     1.0  0.60522  0.24734  0.26831  1.0000
  C   C1496     1.0  0.47316  0.31271  0.37986  1.0000
  Fe  Fe291     1.0  0.66263  0.29400  0.37043  1.0000
  C   C1497     1.0  0.64713  0.31018  0.43530  1.0000
  C   C1498     1.0  0.64771  0.30517  0.44923  1.0000
  C   C1499     1.0  0.65608  0.26981  0.34082  1.0000
  H   H2388     1.0  0.37270  0.28144  0.28414  1.0000
  C   C1500     1.0  0.58594  0.30304  0.32094  1.0000
  C   C1501     1.0  0.59516  0.29431  0.32896  1.0000
  C   C1502     1.0  0.59453  0.29645  0.34198  1.0000
  H   H2389     1.0  0.62238  0.30419  0.41333  1.0000
  C   C1503     1.0  0.36998  0.27116  0.26975  1.0000
  H   H2390     1.0  0.60263  0.28575  0.32523  1.0000
  H   H2391     1.0  0.60159  0.28954  0.34822  1.0000
  H   H2392     1.0  0.37076  0.31892  0.34930  1.0000
  H   H2393     1.0  0.53277  0.21706  0.25190  1.0000
  C   C1504     1.0  0.66331  0.28415  0.44355  1.0000
  C   C1505     1.0  0.66597  0.30058  0.30908  1.0000
  C   C1506     1.0  0.64568  0.27245  0.33342  1.0000
  C   C1507     1.0  0.63429  0.28348  0.33513  1.0000
  C   C1508     1.0  0.63334  0.29185  0.34424  1.0000
  C   C1509     1.0  0.64395  0.28943  0.35133  1.0000
  H   H2394     1.0  0.62610  0.28538  0.32966  1.0000
  H   H2395     1.0  0.62433  0.30007  0.34592  1.0000
  C   C1510     1.0  0.41293  0.31837  0.34793  1.0000
  H   H2396     1.0  0.60170  0.25678  0.27216  1.0000
  Fe  Fe292     1.0  0.36869  0.21056  0.24666  1.0000
  C   C1511     1.0  0.57616  0.31404  0.32593  1.0000
  H   H2397     1.0  0.41736  0.30831  0.35338  1.0000
  C   C1512     1.0  0.37764  0.27410  0.27762  1.0000
  H   H2398     1.0  0.35014  0.28613  0.43023  1.0000
  H   H2399     1.0  0.35920  0.27642  0.27017  1.0000
  H   H2400     1.0  0.35728  0.28790  0.33905  1.0000
  C   C1513     1.0  0.39158  0.26744  0.27714  1.0000
  C   C1514     1.0  0.39769  0.25752  0.26895  1.0000
  C   C1515     1.0  0.41247  0.31449  0.44270  1.0000
  H   H2401     1.0  0.35397  0.26145  0.41701  1.0000
  C   C1516     1.0  0.55966  0.21257  0.25306  1.0000
  H   H2402     1.0  0.50073  0.30267  0.37803  1.0000
  S   S587      1.0  0.64846  0.30445  0.26228  1.0000
  H   H2403     1.0  0.65780  0.23552  0.31047  1.0000
  H   H2404     1.0  0.60873  0.29473  0.42004  1.0000
  C   C1517     1.0  0.37608  0.26138  0.26146  1.0000
  H   H2405     1.0  0.40848  0.25233  0.26853  1.0000
  H   H2406     1.0  0.63080  0.31975  0.28274  1.0000
  S   S588      1.0  0.63858  0.31477  0.46195  1.0000
  H   H2407     1.0  0.35363  0.31632  0.33795  1.0000
  H   H2408     1.0  0.61489  0.31348  0.32638  1.0000
  H   H2409     1.0  0.35789  0.14660  0.28037  1.0000
  H   H2410     1.0  0.34390  0.27058  0.43857  1.0000
  C   C1518     1.0  0.61194  0.30374  0.41231  1.0000
  C   C1519     1.0  0.65115  0.31691  0.26946  1.0000
  C   C1520     1.0  0.34645  0.29025  0.34398  1.0000
  C   C1521     1.0  0.35430  0.16701  0.24917  1.0000
  C   C1522     1.0  0.62895  0.22425  0.31198  1.0000
  H   H2411     1.0  0.64268  0.24472  0.30389  1.0000
  C   C1523     1.0  0.40443  0.31948  0.33889  1.0000
  C   C1524     1.0  0.58489  0.30749  0.34693  1.0000
  S   S589      1.0  0.59057  0.22679  0.24854  1.0000
  H   H2412     1.0  0.61608  0.31494  0.37768  1.0000
  H   H2413     1.0  0.36443  0.16712  0.28276  1.0000
  H   H2414     1.0  0.55367  0.20625  0.26198  1.0000
  H   H2415     1.0  0.65415  0.30586  0.41479  1.0000
  C   C1525     1.0  0.34135  0.28098  0.43200  1.0000
  H   H2416     1.0  0.65964  0.31006  0.30379  1.0000
  C   C1526     1.0  0.36774  0.23449  0.29422  1.0000
  C   C1527     1.0  0.65565  0.29208  0.45330  1.0000
  H   H2417     1.0  0.33495  0.31394  0.36657  1.0000
  C   C1528     1.0  0.37906  0.22132  0.27656  1.0000
  H   H2418     1.0  0.42652  0.30891  0.31188  1.0000
  C   C1529     1.0  0.62216  0.29023  0.39474  1.0000
  H   H2419     1.0  0.53851  0.23305  0.24611  1.0000
  H   H2420     1.0  0.58650  0.24986  0.26113  1.0000
  S   S590      1.0  0.64326  0.30054  0.36189  1.0000
  C   C1530     1.0  0.61832  0.23903  0.26956  1.0000
  H   H2421     1.0  0.46197  0.31336  0.38502  1.0000
  S   S591      1.0  0.58481  0.30994  0.36312  1.0000
  H   H2422     1.0  0.36670  0.20176  0.29427  1.0000
  H   H2423     1.0  0.50280  0.31275  0.38887  1.0000
  N   N153      1.0  0.61215  0.30281  0.39819  1.0000
  H   H2424     1.0  0.66414  0.30848  0.33243  1.0000
  H   H2425     1.0  0.34696  0.31622  0.37527  1.0000
  C   C1531     1.0  0.48055  0.30094  0.40105  1.0000
  S   S592      1.0  0.34937  0.14068  0.25889  1.0000
  H   H2426     1.0  0.36027  0.27693  0.40866  1.0000
  H   H2427     1.0  0.35150  0.16695  0.23981  1.0000
  S   S593      1.0  0.38668  0.22097  0.24149  1.0000
  S   S594      1.0  0.34185  0.30648  0.31905  1.0000
  H   H2428     1.0  0.34926  0.27140  0.40117  1.0000
  H   H2429     1.0  0.66486  0.26123  0.33961  1.0000
  H   H2430     1.0  0.35354  0.23672  0.27503  1.0000
  H   H2431     1.0  0.49715  0.32108  0.37311  1.0000
  C   C1532     1.0  0.34228  0.28506  0.35810  1.0000
  H   H2432     1.0  0.65601  0.28809  0.46404  1.0000
  H   H2433     1.0  0.57071  0.20688  0.25138  1.0000
  H   H2434     1.0  0.36732  0.24441  0.28657  1.0000
  C   C1533     1.0  0.65471  0.30210  0.42549  1.0000
  H   H2435     1.0  0.44482  0.30730  0.30470  1.0000
  H   H2436     1.0  0.65333  0.23013  0.29720  1.0000
  H   H2437     1.0  0.35826  0.21145  0.30753  1.0000
  H   H2438     1.0  0.63210  0.32160  0.33383  1.0000
  H   H2439     1.0  0.46952  0.30119  0.40674  1.0000
  C   C1534     1.0  0.66296  0.28912  0.42964  1.0000
  C   C1535     1.0  0.33663  0.29850  0.33639  1.0000
  H   H2440     1.0  0.63295  0.21980  0.30257  1.0000
  H   H2441     1.0  0.43326  0.30751  0.29422  1.0000
  H   H2442     1.0  0.64062  0.32009  0.43217  1.0000
  H   H2443     1.0  0.37696  0.20723  0.30264  1.0000
  H   H2444     1.0  0.35297  0.30556  0.36269  1.0000
  H   H2445     1.0  0.55952  0.22223  0.25606  1.0000
  H   H2446     1.0  0.62219  0.23450  0.30895  1.0000
  C   C1536     1.0  0.63466  0.23169  0.32972  1.0000
  H   H2447     1.0  0.62236  0.28913  0.38423  1.0000
  H   H2448     1.0  0.62815  0.22535  0.33805  1.0000
  H   H2449     1.0  0.64308  0.23296  0.33396  1.0000
  H   H2450     1.0  0.35892  0.23616  0.30312  1.0000
  H   H2451     1.0  0.34580  0.31223  0.28827  1.0000
  S   S595      1.0  0.37464  0.32212  0.31309  1.0000
  S   S596      1.0  0.43538  0.32046  0.40390  1.0000
  H   H2452     1.0  0.66504  0.32304  0.31819  1.0000
  H   H2453     1.0  0.47372  0.32155  0.37093  1.0000
  C   C1537     1.0  0.33635  0.31844  0.28447  1.0000
  H   H2454     1.0  0.33648  0.31520  0.27496  1.0000
  C   C1538     1.0  0.66379  0.32126  0.26496  1.0000
  C   C1539     1.0  0.33526  0.29424  0.41060  1.0000
  H   H2455     1.0  0.33476  0.20057  0.25946  1.0000
  Fe  Fe293     1.0  0.33503  0.14395  0.24471  1.0000
  S   S597      1.0  0.66674  0.30596  0.38362  1.0000
  C   C1540     1.0  0.55465  0.20241  0.23681  1.0000
  H   H2456     1.0  0.60808  0.32310  0.34756  1.0000
  H   H2457     1.0  0.40628  0.22769  0.68038  1.0000
  C   C1541     1.0  0.38129  0.22569  0.71607  1.0000
  H   H2458     1.0  0.37438  0.20674  0.72015  1.0000
  C   C1542     1.0  0.37945  0.21266  0.72374  1.0000
  H   H2459     1.0  0.65817  0.31667  0.64757  1.0000
  H   H2460     1.0  0.40323  0.25541  0.66026  1.0000
  H   H2461     1.0  0.41157  0.23320  0.69294  1.0000
  H   H2462     1.0  0.43992  0.23779  0.66160  1.0000
  S   S598      1.0  0.37469  0.23238  0.70104  1.0000
  C   C1543     1.0  0.38801  0.23321  0.72066  1.0000
  C   C1544     1.0  0.41339  0.24792  0.65899  1.0000
  H   H2463     1.0  0.39798  0.24405  0.68466  1.0000
  H   H2464     1.0  0.41182  0.23918  0.65559  1.0000
  Fe  Fe294     1.0  0.65702  0.29449  0.71982  1.0000
  C   C1545     1.0  0.40820  0.23675  0.68294  1.0000
  C   C1546     1.0  0.33505  0.26308  0.65577  1.0000
  C   C1547     1.0  0.55521  0.32236  0.63766  1.0000
  H   H2465     1.0  0.42802  0.26066  0.66762  1.0000
  H   H2466     1.0  0.42877  0.31947  0.64529  1.0000
  H   H2467     1.0  0.38958  0.24322  0.71475  1.0000
  C   C1548     1.0  0.66663  0.31716  0.66988  1.0000
  C   C1549     1.0  0.35646  0.31902  0.69228  1.0000
  C   C1550     1.0  0.34040  0.27665  0.61484  1.0000
  H   H2468     1.0  0.42457  0.25215  0.68550  1.0000
  C   C1551     1.0  0.43190  0.23318  0.66986  1.0000
  C   C1552     1.0  0.42490  0.31017  0.66690  1.0000
  C   C1553     1.0  0.62456  0.27196  0.72756  1.0000
  H   H2469     1.0  0.43070  0.22402  0.66687  1.0000
  H   H2470     1.0  0.36048  0.24945  0.72411  1.0000
  Fe  Fe295     1.0  0.37087  0.25522  0.69269  1.0000
  S   S599      1.0  0.37245  0.26266  0.66988  1.0000
  Fe  Fe296     1.0  0.36167  0.28391  0.69829  1.0000
  S   S600      1.0  0.36265  0.29370  0.67605  1.0000
  S   S601      1.0  0.35340  0.29729  0.71388  1.0000
  Fe  Fe297     1.0  0.35233  0.27731  0.67578  1.0000
  Fe  Fe298     1.0  0.38264  0.27835  0.67235  1.0000
  S   S602      1.0  0.40067  0.28476  0.65599  1.0000
  S   S603      1.0  0.38268  0.26976  0.69477  1.0000
  C   C1554     1.0  0.34778  0.31387  0.70452  1.0000
  S   S604      1.0  0.66348  0.31438  0.70935  1.0000
  C   C1555     1.0  0.42059  0.25522  0.67585  1.0000
  H   H2471     1.0  0.33610  0.26803  0.62230  1.0000
  S   S605      1.0  0.34977  0.26858  0.69840  1.0000
  H   H2472     1.0  0.34621  0.26086  0.65477  1.0000
  C   C1556     1.0  0.64927  0.30393  0.67362  1.0000
  H   H2473     1.0  0.66493  0.26530  0.68539  1.0000
  H   H2474     1.0  0.43603  0.22945  0.67944  1.0000
  C   C1557     1.0  0.39264  0.22777  0.73305  1.0000
  C   C1558     1.0  0.42358  0.31225  0.65333  1.0000
  C   C1559     1.0  0.41598  0.30450  0.65004  1.0000
  C   C1560     1.0  0.40927  0.29509  0.66039  1.0000
  C   C1561     1.0  0.41009  0.29350  0.67405  1.0000
  C   C1562     1.0  0.41815  0.30080  0.67724  1.0000
  H   H2475     1.0  0.34542  0.27310  0.60502  1.0000
  H   H2476     1.0  0.41533  0.30580  0.63946  1.0000
  H   H2477     1.0  0.40490  0.28634  0.68211  1.0000
  H   H2478     1.0  0.41918  0.29915  0.68775  1.0000
  H   H2479     1.0  0.33696  0.24577  0.72718  1.0000
  S   S606      1.0  0.65810  0.27832  0.70844  1.0000
  H   H2480     1.0  0.53067  0.31972  0.65423  1.0000
  H   H2481     1.0  0.41066  0.26292  0.67760  1.0000
  H   H2482     1.0  0.55453  0.31142  0.64198  1.0000
  N   N154      1.0  0.41853  0.24326  0.67191  1.0000
  H   H2483     1.0  0.62655  0.24453  0.73427  1.0000
  C   C1563     1.0  0.35713  0.25297  0.73404  1.0000
  H   H2484     1.0  0.33977  0.29723  0.59236  1.0000
  H   H2485     1.0  0.34864  0.27845  0.61893  1.0000
  H   H2486     1.0  0.42071  0.25325  0.65051  1.0000
  C   C1564     1.0  0.33523  0.30023  0.60251  1.0000
  H   H2487     1.0  0.53498  0.31561  0.63030  1.0000
  H   H2488     1.0  0.64821  0.25388  0.72958  1.0000
  H   H2489     1.0  0.63861  0.30399  0.67280  1.0000
  H   H2490     1.0  0.59369  0.32145  0.71424  1.0000
  H   H2491     1.0  0.35354  0.26438  0.73159  1.0000
  H   H2492     1.0  0.64996  0.29964  0.68458  1.0000
  H   H2493     1.0  0.36690  0.31321  0.68918  1.0000
  S   S607      1.0  0.63620  0.30442  0.73092  1.0000
  H   H2494     1.0  0.56307  0.32281  0.62775  1.0000
  H   H2495     1.0  0.62923  0.26706  0.71848  1.0000
  H   H2496     1.0  0.34354  0.30288  0.60578  1.0000
  H   H2497     1.0  0.65682  0.29664  0.66744  1.0000
  S   S608      1.0  0.43507  0.31892  0.67131  1.0000
  N   N155      1.0  0.65226  0.31787  0.66896  1.0000
  H   H2498     1.0  0.62890  0.28130  0.72536  1.0000
  H   H2499     1.0  0.33567  0.24800  0.64439  1.0000
  H   H2500     1.0  0.61314  0.27542  0.72820  1.0000
  H   H2501     1.0  0.39413  0.32301  0.67750  1.0000
  C   C1565     1.0  0.33434  0.32153  0.70858  1.0000
  S   S609      1.0  0.33372  0.28548  0.66619  1.0000
  C   C1566     1.0  0.38376  0.20738  0.73626  1.0000
  C   C1567     1.0  0.65082  0.32335  0.65452  1.0000
  H   H2502     1.0  0.38226  0.32292  0.70141  1.0000
  H   H2503     1.0  0.40789  0.32340  0.69390  1.0000
  H   H2504     1.0  0.64317  0.32311  0.68882  1.0000
  N   N156      1.0  0.35077  0.04847  0.81896  1.0000
  Fe  Fe299     1.0  0.62724  0.15277  0.94308  1.0000
  S   S610      1.0  0.64286  0.15709  0.92353  1.0000
  S   S611      1.0  0.60467  0.16030  0.94169  1.0000
  H   H2505     1.0  0.64589  0.25027  0.74793  1.0000
  H   H2506     1.0  0.61009  0.27317  0.75321  1.0000
  Fe  Fe300     1.0  0.65359  0.16401  0.93587  1.0000
  S   S612      1.0  0.63684  0.16166  0.95503  1.0000
  Fe  Fe301     1.0  0.56309  0.16852  0.86951  1.0000
  S   S613      1.0  0.55204  0.15917  0.89042  1.0000
  S   S614      1.0  0.55903  0.19159  0.86435  1.0000
  Fe  Fe302     1.0  0.57418  0.14100  0.86102  1.0000
  S   S615      1.0  0.56339  0.12965  0.88106  1.0000
  S   S616      1.0  0.58929  0.13026  0.84487  1.0000
  Fe  Fe303     1.0  0.54506  0.14743  0.87888  1.0000
  S   S617      1.0  0.52169  0.14863  0.88392  1.0000
  Fe  Fe304     1.0  0.57142  0.14256  0.89034  1.0000
  S   S618      1.0  0.58401  0.13124  0.90641  1.0000
  S   S619      1.0  0.55529  0.15765  0.85795  1.0000
  S   S620      1.0  0.58311  0.15300  0.87038  1.0000
  Fe  Fe305     1.0  0.63094  0.06520  0.87504  1.0000
  S   S621      1.0  0.63968  0.04830  0.89105  1.0000
  S   S622      1.0  0.60821  0.06918  0.87546  1.0000
  H   H2507     1.0  0.50892  0.20936  0.86353  1.0000
  H   H2508     1.0  0.43420  0.13800  0.80678  1.0000
  C   C1568     1.0  0.41314  0.16017  0.80335  1.0000
  C   C1569     1.0  0.40136  0.11275  0.87941  1.0000
  S   S623      1.0  0.64782  0.05956  0.85724  1.0000
  S   S624      1.0  0.64059  0.08093  0.87792  1.0000
  Fe  Fe306     1.0  0.35793  0.11908  0.94330  1.0000
  S   S625      1.0  0.35694  0.13899  0.92790  1.0000
  S   S626      1.0  0.36338  0.09923  0.93577  1.0000
  Fe  Fe307     1.0  0.35035  0.13326  0.96779  1.0000
  S   S627      1.0  0.34845  0.15431  0.95415  1.0000
  C   C1570     1.0  0.63368  0.00522  0.87279  1.0000
  H   H2509     1.0  0.65458  0.10285  0.93547  1.0000
  Fe  Fe308     1.0  0.36805  0.14480  0.94070  1.0000
  S   S628      1.0  0.38477  0.15634  0.92854  1.0000
  H   H2510     1.0  0.61047  0.25293  0.74391  1.0000
  S   S629      1.0  0.37081  0.12417  0.95513  1.0000
  Fe  Fe309     1.0  0.38184  0.07018  0.85921  1.0000
  S   S630      1.0  0.36941  0.09139  0.85314  1.0000
  S   S631      1.0  0.40346  0.06717  0.86262  1.0000
  Fe  Fe310     1.0  0.35752  0.05661  0.86336  1.0000
  S   S632      1.0  0.34293  0.07705  0.85815  1.0000
  Fe  Fe311     1.0  0.36077  0.08196  0.84094  1.0000
  S   S633      1.0  0.35842  0.09320  0.81945  1.0000
  Fe  Fe312     1.0  0.35273  0.08474  0.87089  1.0000
  H   H2511     1.0  0.64683  0.27939  0.79934  1.0000
  S   S634      1.0  0.37490  0.06112  0.84523  1.0000
  S   S635      1.0  0.36561  0.06391  0.87784  1.0000
  Fe  Fe313     1.0  0.46718  0.13192  0.85264  1.0000
  S   S636      1.0  0.45186  0.14484  0.86683  1.0000
  S   S637      1.0  0.49068  0.12806  0.84985  1.0000
  Fe  Fe314     1.0  0.44396  0.12399  0.84438  1.0000
  S   S638      1.0  0.42704  0.13615  0.85805  1.0000
  S   S639      1.0  0.43640  0.11444  0.83133  1.0000
  Fe  Fe315     1.0  0.43976  0.15232  0.84999  1.0000
  S   S640      1.0  0.43057  0.17435  0.84136  1.0000
  Fe  Fe316     1.0  0.44072  0.12739  0.87329  1.0000
  S   S641      1.0  0.43275  0.11721  0.89500  1.0000
  S   S642      1.0  0.45595  0.14076  0.83518  1.0000
  S   S643      1.0  0.45676  0.11381  0.86027  1.0000
  C   C1571     1.0  0.35124  0.00306  0.85569  1.0000
  S   S644      1.0  0.62805  0.20554  0.82371  1.0000
  N   N157      1.0  0.41210  0.14565  0.80890  1.0000
  C   C1572     1.0  0.34655  0.01410  0.86258  1.0000
  H   H2512     1.0  0.62322  0.00570  0.87899  1.0000
  S   S645      1.0  0.65996  0.18445  0.92753  1.0000
  H   H2513     1.0  0.34429  0.18702  0.92709  1.0000
  Fe  Fe317     1.0  0.64879  0.19349  0.82800  1.0000
  C   C1573     1.0  0.65640  0.09375  0.90071  1.0000
  S   S646      1.0  0.64763  0.20261  0.84583  1.0000
  H   H2514     1.0  0.66173  0.19480  0.87575  1.0000
  H   H2515     1.0  0.49804  0.19699  0.86870  1.0000
  Fe  Fe318     1.0  0.37075  0.18774  0.80381  1.0000
  S   S647      1.0  0.38401  0.17707  0.78691  1.0000
  S   S648      1.0  0.37284  0.18141  0.82592  1.0000
  Fe  Fe319     1.0  0.34935  0.20438  0.78652  1.0000
  S   S649      1.0  0.36066  0.19490  0.76833  1.0000
  C   C1574     1.0  0.34985  0.17843  0.92169  1.0000
  Fe  Fe320     1.0  0.36373  0.17504  0.78391  1.0000
  S   S650      1.0  0.35994  0.15453  0.78408  1.0000
  Fe  Fe321     1.0  0.37970  0.19794  0.77300  1.0000
  S   S651      1.0  0.39526  0.20867  0.75690  1.0000
  S   S652      1.0  0.35077  0.18432  0.80170  1.0000
  S   S653      1.0  0.36812  0.20881  0.79029  1.0000
  C   C1575     1.0  0.36420  0.00159  0.84655  1.0000
  H   H2516     1.0  0.59091  0.08968  0.89690  1.0000
  H   H2517     1.0  0.35227  0.19847  0.84366  1.0000
  H   H2518     1.0  0.38240  0.01022  0.83722  1.0000
  H   H2519     1.0  0.60678  0.11149  0.89643  1.0000
  C   C1576     1.0  0.39030  0.21495  0.74098  1.0000
  H   H2520     1.0  0.63471  0.15313  0.84838  1.0000
  H   H2521     1.0  0.35431  0.22690  0.73705  1.0000
  C   C1577     1.0  0.52351  0.18448  0.87327  1.0000
  H   H2522     1.0  0.61538  0.15055  0.83981  1.0000
  C   C1578     1.0  0.33581  0.16906  0.77582  1.0000
  H   H2523     1.0  0.35120  0.20642  0.81924  1.0000
  H   H2524     1.0  0.34207  0.17248  0.92218  1.0000
  H   H2525     1.0  0.33745  0.16405  0.88670  1.0000
  C   C1579     1.0  0.61217  0.07704  0.90936  1.0000
  S   S654      1.0  0.63756  0.23299  0.82622  1.0000
  S   S655      1.0  0.65073  0.06801  0.91300  1.0000
  C   C1580     1.0  0.62155  0.26948  0.75207  1.0000
  H   H2526     1.0  0.57964  0.22833  0.86605  1.0000
  C   C1581     1.0  0.65558  0.01274  0.86637  1.0000
  H   H2527     1.0  0.61263  0.09795  0.88704  1.0000
  N   N158      1.0  0.66357  0.26449  0.80734  1.0000
  Fe  Fe322     1.0  0.33750  0.14648  0.94260  1.0000
  H   H2528     1.0  0.40887  0.13192  0.82865  1.0000
  C   C1582     1.0  0.66237  0.25347  0.80133  1.0000
  H   H2529     1.0  0.65281  0.14366  0.82222  1.0000
  Fe  Fe323     1.0  0.63983  0.22141  0.80989  1.0000
  H   H2530     1.0  0.34586  0.12088  0.91956  1.0000
  H   H2531     1.0  0.34259  0.14106  0.80958  1.0000
  H   H2532     1.0  0.33622  0.05836  0.83468  1.0000
  C   C1583     1.0  0.41452  0.17645  0.83703  1.0000
  C   C1584     1.0  0.41156  0.18553  0.82489  1.0000
  C   C1585     1.0  0.39878  0.18715  0.82129  1.0000
  C   C1586     1.0  0.38886  0.17990  0.83002  1.0000
  C   C1587     1.0  0.39167  0.17116  0.84234  1.0000
  C   C1588     1.0  0.40454  0.16928  0.84574  1.0000
  H   H2533     1.0  0.41922  0.19120  0.81819  1.0000
  H   H2534     1.0  0.39661  0.19405  0.81184  1.0000
  H   H2535     1.0  0.38396  0.16564  0.84918  1.0000
  H   H2536     1.0  0.40662  0.16254  0.85528  1.0000
  C   C1589     1.0  0.41239  0.08047  0.85390  1.0000
  C   C1590     1.0  0.42335  0.08183  0.85884  1.0000
  C   C1591     1.0  0.43045  0.09254  0.85226  1.0000
  C   C1592     1.0  0.42699  0.10158  0.84034  1.0000
  C   C1593     1.0  0.41615  0.10010  0.83528  1.0000
  C   C1594     1.0  0.40869  0.08973  0.84219  1.0000
  H   H2537     1.0  0.42642  0.07451  0.86773  1.0000
  H   H2538     1.0  0.43894  0.09349  0.85610  1.0000
  H   H2539     1.0  0.41354  0.10691  0.82597  1.0000
  H   H2540     1.0  0.40037  0.08863  0.83821  1.0000
  H   H2541     1.0  0.62604  0.27857  0.75081  1.0000
  H   H2542     1.0  0.61330  0.07365  0.89968  1.0000
  H   H2543     1.0  0.37867  0.11422  0.90069  1.0000
  H   H2544     1.0  0.58445  0.10372  0.90570  1.0000
  H   H2545     1.0  0.37944  0.10089  0.88404  1.0000
  S   S656      1.0  0.60898  0.21980  0.85740  1.0000
  H   H2546     1.0  0.37155  0.16427  0.90607  1.0000
  C   C1595     1.0  0.59043  0.09287  0.90655  1.0000
  C   C1596     1.0  0.51632  0.17764  0.85608  1.0000
  H   H2547     1.0  0.34749  0.12269  0.81386  1.0000
  C   C1597     1.0  0.39827  0.14559  0.91921  1.0000
  C   C1598     1.0  0.40624  0.15118  0.90663  1.0000
  C   C1599     1.0  0.41678  0.14251  0.89900  1.0000
  C   C1600     1.0  0.41957  0.12829  0.90415  1.0000
  C   C1601     1.0  0.41176  0.12274  0.91680  1.0000
  C   C1602     1.0  0.40099  0.13136  0.92420  1.0000
  H   H2548     1.0  0.40416  0.16219  0.90272  1.0000
  H   H2549     1.0  0.42280  0.14684  0.88921  1.0000
  H   H2550     1.0  0.41392  0.11176  0.92084  1.0000
  H   H2551     1.0  0.39498  0.12698  0.93393  1.0000
  C   C1603     1.0  0.35679  0.09971  0.92148  1.0000
  C   C1604     1.0  0.36022  0.08794  0.91586  1.0000
  C   C1605     1.0  0.35559  0.08824  0.90411  1.0000
  C   C1606     1.0  0.34752  0.10034  0.89789  1.0000
  H   H2552     1.0  0.35108  0.19669  0.88888  1.0000
  C   C1607     1.0  0.34870  0.11180  0.91526  1.0000
  H   H2553     1.0  0.36644  0.07853  0.92065  1.0000
  H   H2554     1.0  0.35810  0.07905  0.90002  1.0000
  H   H2555     1.0  0.37419  0.02956  0.84960  1.0000
  H   H2556     1.0  0.36921  0.17510  0.88977  1.0000
  H   H2557     1.0  0.34336  0.22578  0.75399  1.0000
  C   C1608     1.0  0.51337  0.14334  0.87385  1.0000
  C   C1609     1.0  0.49882  0.14747  0.87553  1.0000
  C   C1610     1.0  0.49178  0.14322  0.86793  1.0000
  C   C1611     1.0  0.49920  0.13453  0.85881  1.0000
  C   C1612     1.0  0.51376  0.13058  0.85699  1.0000
  C   C1613     1.0  0.52084  0.13505  0.86440  1.0000
  H   H2558     1.0  0.49297  0.15401  0.88273  1.0000
  H   H2559     1.0  0.48063  0.14663  0.86911  1.0000
  H   H2560     1.0  0.51959  0.12394  0.84989  1.0000
  H   H2561     1.0  0.53205  0.13183  0.86298  1.0000
  C   C1614     1.0  0.59438  0.11284  0.85231  1.0000
  C   C1615     1.0  0.60844  0.10620  0.84971  1.0000
  C   C1616     1.0  0.61274  0.09271  0.85676  1.0000
  C   C1617     1.0  0.60290  0.08573  0.86609  1.0000
  C   C1618     1.0  0.58878  0.09209  0.86817  1.0000
  C   C1619     1.0  0.58454  0.10569  0.86137  1.0000
  H   H2562     1.0  0.61603  0.11156  0.84247  1.0000
  H   H2563     1.0  0.62366  0.08775  0.85496  1.0000
  H   H2564     1.0  0.58113  0.08664  0.87524  1.0000
  H   H2565     1.0  0.57361  0.11060  0.86302  1.0000
  C   C1620     1.0  0.57325  0.19913  0.86189  1.0000
  C   C1621     1.0  0.57069  0.21209  0.86501  1.0000
  C   C1622     1.0  0.58172  0.21842  0.86335  1.0000
  C   C1623     1.0  0.59538  0.21203  0.85815  1.0000
  C   C1624     1.0  0.59800  0.19914  0.85472  1.0000
  C   C1625     1.0  0.58694  0.19259  0.85679  1.0000
  H   H2566     1.0  0.56014  0.21720  0.86891  1.0000
  H   H2567     1.0  0.61740  0.13617  0.83227  1.0000
  H   H2568     1.0  0.60855  0.19411  0.85077  1.0000
  H   H2569     1.0  0.58895  0.18263  0.85422  1.0000
  H   H2570     1.0  0.62282  0.07563  0.91103  1.0000
  C   C1626     1.0  0.34245  0.13201  0.81833  1.0000
  C   C1627     1.0  0.34471  0.03610  0.82311  1.0000
  N   N159      1.0  0.34605  0.24623  0.74352  1.0000
  H   H2571     1.0  0.53286  0.17597  0.87292  1.0000
  C   C1628     1.0  0.34347  0.09372  0.81380  1.0000
  H   H2572     1.0  0.50763  0.17364  0.86386  1.0000
  C   C1629     1.0  0.59922  0.15256  0.93134  1.0000
  C   C1630     1.0  0.60791  0.14122  0.92619  1.0000
  C   C1631     1.0  0.60328  0.13499  0.91821  1.0000
  C   C1632     1.0  0.59008  0.14029  0.91502  1.0000
  C   C1633     1.0  0.58160  0.15198  0.91970  1.0000
  C   C1634     1.0  0.58611  0.15800  0.92799  1.0000
  H   H2573     1.0  0.61808  0.13701  0.92865  1.0000
  H   H2574     1.0  0.60992  0.12598  0.91461  1.0000
  H   H2575     1.0  0.57133  0.15599  0.91746  1.0000
  H   H2576     1.0  0.57934  0.16676  0.93199  1.0000
  C   C1635     1.0  0.63905  0.99588  0.86395  1.0000
  H   H2577     1.0  0.65608  0.23424  0.85315  1.0000
  C   C1636     1.0  0.35133  0.23116  0.74654  1.0000
  C   C1637     1.0  0.36920  0.99168  0.88700  1.0000
  Fe  Fe324     1.0  0.62768  0.21583  0.84043  1.0000
  H   H2578     1.0  0.66628  0.21346  0.88378  1.0000
  S   S657      1.0  0.65512  0.13055  0.98112  1.0000
  C   C1638     1.0  0.34763  0.05504  0.83086  1.0000
  H   H2579     1.0  0.35233  0.06422  0.82818  1.0000
  C   C1639     1.0  0.36736  0.19082  0.90739  1.0000
  C   C1640     1.0  0.63930  0.14197  0.84871  1.0000
  S   S658      1.0  0.66658  0.02223  0.86853  1.0000
  H   H2580     1.0  0.52545  0.16883  0.85555  1.0000
  H   H2581     1.0  0.61402  0.09500  0.92332  1.0000
  N   N160      1.0  0.61686  0.04315  0.84825  1.0000
  C   C1641     1.0  0.61588  0.05817  0.84364  1.0000
  C   C1642     1.0  0.61283  0.03966  0.86344  1.0000
  C   C1643     1.0  0.60736  0.03898  0.84234  1.0000
  H   H2582     1.0  0.60513  0.06405  0.84708  1.0000
  H   H2583     1.0  0.62282  0.06168  0.84801  1.0000
  H   H2584     1.0  0.61266  0.02856  0.86725  1.0000
  H   H2585     1.0  0.60229  0.04564  0.86735  1.0000
  H   H2586     1.0  0.62022  0.04200  0.86826  1.0000
  H   H2587     1.0  0.59635  0.04429  0.84571  1.0000
  H   H2588     1.0  0.60788  0.02768  0.84558  1.0000
  N   N161      1.0  0.47129  0.11730  0.90098  1.0000
  C   C1644     1.0  0.48515  0.11730  0.90283  1.0000
  C   C1645     1.0  0.46246  0.13132  0.90036  1.0000
  C   C1646     1.0  0.46461  0.10771  0.91267  1.0000
  C   C1647     1.0  0.47290  0.11286  0.88804  1.0000
  H   H2589     1.0  0.49201  0.10683  0.90355  1.0000
  H   H2590     1.0  0.48437  0.12092  0.91231  1.0000
  H   H2591     1.0  0.49060  0.12416  0.89398  1.0000
  H   H2592     1.0  0.45197  0.13170  0.89879  1.0000
  H   H2593     1.0  0.46085  0.13495  0.91002  1.0000
  H   H2594     1.0  0.46719  0.13887  0.89172  1.0000
  H   H2595     1.0  0.45406  0.10761  0.91160  1.0000
  H   H2596     1.0  0.46329  0.11069  0.92263  1.0000
  H   H2597     1.0  0.47085  0.09698  0.91334  1.0000
  H   H2598     1.0  0.47985  0.10251  0.88790  1.0000
  H   H2599     1.0  0.47742  0.12011  0.87891  1.0000
  H   H2600     1.0  0.46269  0.11231  0.88658  1.0000
  H   H2601     1.0  0.63536  0.13621  0.85920  1.0000
  H   H2602     1.0  0.36070  0.22831  0.75110  1.0000
  N   N162      1.0  0.39729  0.10159  0.89097  1.0000
  C   C1648     1.0  0.38868  0.10750  0.90291  1.0000
  C   C1649     1.0  0.38922  0.09407  0.88678  1.0000
  C   C1650     1.0  0.40993  0.09200  0.89485  1.0000
  H   H2603     1.0  0.38609  0.09928  0.91204  1.0000
  H   H2604     1.0  0.39417  0.11378  0.90599  1.0000
  H   H2605     1.0  0.39208  0.12026  0.87631  1.0000
  H   H2606     1.0  0.40781  0.10863  0.87020  1.0000
  H   H2607     1.0  0.39531  0.08963  0.87767  1.0000
  H   H2608     1.0  0.38625  0.08537  0.89515  1.0000
  H   H2609     1.0  0.40726  0.08330  0.90338  1.0000
  H   H2610     1.0  0.41611  0.09730  0.89832  1.0000
  H   H2611     1.0  0.41682  0.08756  0.88601  1.0000
  N   N163      1.0  0.60406  0.18842  0.89685  1.0000
  C   C1651     1.0  0.59718  0.20308  0.89631  1.0000
  C   C1652     1.0  0.59419  0.18085  0.89564  1.0000
  C   C1653     1.0  0.60849  0.18253  0.91008  1.0000
  C   C1654     1.0  0.61639  0.18722  0.88541  1.0000
  H   H2612     1.0  0.59361  0.20783  0.88652  1.0000
  H   H2613     1.0  0.60438  0.20916  0.89698  1.0000
  H   H2614     1.0  0.58789  0.20435  0.90488  1.0000
  H   H2615     1.0  0.59896  0.16969  0.89620  1.0000
  H   H2616     1.0  0.58471  0.18160  0.90408  1.0000
  H   H2617     1.0  0.59068  0.18499  0.88573  1.0000
  H   H2618     1.0  0.61591  0.18796  0.91143  1.0000
  H   H2619     1.0  0.61371  0.17145  0.91091  1.0000
  H   H2620     1.0  0.59944  0.18320  0.91898  1.0000
  H   H2621     1.0  0.62396  0.19298  0.88590  1.0000
  H   H2622     1.0  0.61343  0.19155  0.87527  1.0000
  H   H2623     1.0  0.62185  0.17629  0.88557  1.0000
  H   H2624     1.0  0.65665  0.24661  0.76704  1.0000
  H   H2625     1.0  0.34693  0.05372  0.79848  1.0000
  S   S659      1.0  0.34118  0.10100  0.88339  1.0000
  C   C1655     1.0  0.34472  0.05829  0.80769  1.0000
  H   H2626     1.0  0.36648  0.25058  0.73851  1.0000
  C   C1656     1.0  0.65323  0.08431  0.91302  1.0000
  H   H2627     1.0  0.59819  0.08882  0.93070  1.0000
  H   H2628     1.0  0.63773  0.02066  0.88099  1.0000
  H   H2629     1.0  0.52828  0.19794  0.83889  1.0000
  C   C1657     1.0  0.64187  0.01370  0.87394  1.0000
  C   C1658     1.0  0.65226  0.08781  0.92555  1.0000
  C   C1659     1.0  0.40044  0.14302  0.80474  1.0000
  H   H2630     1.0  0.54059  0.18603  0.84827  1.0000
  H   H2631     1.0  0.63876  0.14185  0.81594  1.0000
  C   C1660     1.0  0.36603  0.04447  0.81422  1.0000
  H   H2632     1.0  0.61593  0.13363  0.85044  1.0000
  H   H2633     1.0  0.61885  0.06125  0.83224  1.0000
  H   H2634     1.0  0.61005  0.04152  0.83088  1.0000
  H   H2635     1.0  0.62289  0.09945  0.89813  1.0000
  H   H2636     1.0  0.42476  0.12554  0.80720  1.0000
  S   S660      1.0  0.66426  0.12450  0.91305  1.0000
  H   H2637     1.0  0.66146  0.11361  0.89141  1.0000
  S   S661      1.0  0.63842  0.13094  0.94970  1.0000
  C   C1661     1.0  0.63131  0.03577  0.84364  1.0000
  C   C1662     1.0  0.34173  0.25131  0.75648  1.0000
  H   H2638     1.0  0.38221  0.19736  0.74217  1.0000
  H   H2639     1.0  0.33798  0.18776  0.89999  1.0000
  H   H2640     1.0  0.34370  0.18483  0.83269  1.0000
  H   H2641     1.0  0.35135  0.10388  0.79309  1.0000
  H   H2642     1.0  0.40765  0.11849  0.88222  1.0000
  C   C1663     1.0  0.62839  0.27230  0.78671  1.0000
  H   H2643     1.0  0.53370  0.20287  0.85179  1.0000
  H   H2644     1.0  0.63874  0.03829  0.84827  1.0000
  H   H2645     1.0  0.63487  0.03845  0.83226  1.0000
  H   H2646     1.0  0.63686  0.15635  0.82336  1.0000
  H   H2647     1.0  0.35751  0.17156  0.92773  1.0000
  H   H2648     1.0  0.62342  0.26246  0.76195  1.0000
  H   H2649     1.0  0.63231  0.02441  0.84663  1.0000
  C   C1664     1.0  0.65900  0.10638  0.90095  1.0000
  Fe  Fe325     1.0  0.65481  0.13582  0.93066  1.0000
  C   C1665     1.0  0.34383  0.15607  0.78012  1.0000
  H   H2650     1.0  0.60676  0.06994  0.91794  1.0000
  H   H2651     1.0  0.39967  0.14944  0.82851  1.0000
  H   H2652     1.0  0.51514  0.18047  0.88155  1.0000
  C   C1666     1.0  0.64128  0.14510  0.82427  1.0000
  N   N164      1.0  0.63579  0.13723  0.83800  1.0000
  H   H2653     1.0  0.65871  0.24161  0.87330  1.0000
  Fe  Fe326     1.0  0.65091  0.06370  0.89257  1.0000
  C   C1667     1.0  0.34142  0.20450  0.84625  1.0000
  C   C1668     1.0  0.33886  0.14426  0.78144  1.0000
  H   H2654     1.0  0.40191  0.14520  0.79334  1.0000
  C   C1669     1.0  0.62049  0.13949  0.84023  1.0000
  S   S662      1.0  0.34848  0.03742  0.86932  1.0000
  Fe  Fe327     1.0  0.64945  0.14024  0.96016  1.0000
  C   C1670     1.0  0.65263  0.99521  0.85608  1.0000
  C   C1671     1.0  0.64209  0.12241  0.83879  1.0000
  H   H2655     1.0  0.52615  0.19285  0.87636  1.0000
  H   H2656     1.0  0.34898  0.06780  0.80438  1.0000
  C   C1672     1.0  0.61207  0.10047  0.89704  1.0000
  H   H2657     1.0  0.64423  0.26396  0.82221  1.0000
  Fe  Fe328     1.0  0.65756  0.21872  0.83013  1.0000
  C   C1673     1.0  0.42526  0.13660  0.80344  1.0000
  H   H2658     1.0  0.65076  0.14060  0.84722  1.0000
  H   H2659     1.0  0.37545  0.18388  0.91296  1.0000
  H   H2660     1.0  0.34919  0.13269  0.82487  1.0000
  H   H2661     1.0  0.39033  0.14962  0.80879  1.0000
  H   H2662     1.0  0.65364  0.12034  0.83717  1.0000
  C   C1674     1.0  0.66093  0.00345  0.85746  1.0000
  H   H2663     1.0  0.33646  0.01524  0.86957  1.0000
  H   H2664     1.0  0.50350  0.20427  0.85076  1.0000
  H   H2665     1.0  0.64978  0.08058  0.93512  1.0000
  H   H2666     1.0  0.37973  0.99276  0.88703  1.0000
  H   H2667     1.0  0.36884  0.03942  0.80527  1.0000
  C   C1675     1.0  0.60352  0.09557  0.92166  1.0000
  C   C1676     1.0  0.65490  0.10046  0.92578  1.0000
  C   C1677     1.0  0.36370  0.17170  0.90055  1.0000
  N   N165      1.0  0.51942  0.18921  0.85981  1.0000
  H   H2668     1.0  0.62093  0.25439  0.79958  1.0000
  S   S663      1.0  0.63855  0.23133  0.78793  1.0000
  C   C1678     1.0  0.64867  0.25379  0.77245  1.0000
  C   C1679     1.0  0.36772  0.02228  0.85126  1.0000
  H   H2669     1.0  0.35609  0.16591  0.90027  1.0000
  H   H2670     1.0  0.59749  0.10631  0.92167  1.0000
  C   C1680     1.0  0.50690  0.20047  0.86073  1.0000
  H   H2671     1.0  0.41547  0.16263  0.79190  1.0000
  H   H2672     1.0  0.42146  0.16265  0.80678  1.0000
  C   C1681     1.0  0.53095  0.19426  0.84919  1.0000
  H   H2673     1.0  0.40320  0.16724  0.80688  1.0000
  H   H2674     1.0  0.66233  0.15600  0.96829  1.0000
  C   C1682     1.0  0.35476  0.02376  0.86040  1.0000
  H   H2675     1.0  0.39945  0.13211  0.80869  1.0000
  H   H2676     1.0  0.42769  0.13867  0.79200  1.0000
  C   C1683     1.0  0.40956  0.14283  0.82408  1.0000
  C   C1684     1.0  0.62866  0.25814  0.79091  1.0000
  H   H2677     1.0  0.41812  0.14476  0.82761  1.0000
  H   H2678     1.0  0.51334  0.18073  0.84591  1.0000
  N   N166      1.0  0.60453  0.09150  0.90866  1.0000
  H   H2679     1.0  0.33756  0.15344  0.91129  1.0000
  H   H2680     1.0  0.58434  0.08643  0.91522  1.0000
  S   S664      1.0  0.66065  0.20837  0.81274  1.0000
  S   S665      1.0  0.33767  0.12613  0.95731  1.0000
  H   H2681     1.0  0.63821  0.11610  0.84900  1.0000
  H   H2682     1.0  0.63970  0.11845  0.83084  1.0000
  H   H2683     1.0  0.34695  0.03079  0.81442  1.0000
  S   S666      1.0  0.63725  0.29505  0.76983  1.0000
  C   C1685     1.0  0.34419  0.11214  0.90344  1.0000
  C   C1686     1.0  0.63809  0.27725  0.77520  1.0000
  H   H2684     1.0  0.36656  0.99815  0.87719  1.0000
  C   C1687     1.0  0.34630  0.19293  0.89984  1.0000
  H   H2685     1.0  0.65717  0.09119  0.89100  1.0000
  H   H2686     1.0  0.36260  0.19967  0.91261  1.0000
  H   H2687     1.0  0.34059  0.22277  0.82220  1.0000
  Fe  Fe329     1.0  0.65863  0.07363  0.86172  1.0000
  H   H2688     1.0  0.62417  0.24281  0.75251  1.0000
  H   H2689     1.0  0.35187  0.04791  0.83961  1.0000
  H   H2690     1.0  0.34471  0.99585  0.85721  1.0000
  H   H2691     1.0  0.33797  0.26269  0.75458  1.0000
  Fe  Fe330     1.0  0.65738  0.04347  0.87342  1.0000
  C   C1688     1.0  0.37237  0.01128  0.84431  1.0000
  H   H2692     1.0  0.37090  0.05360  0.81107  1.0000
  C   C1689     1.0  0.64833  0.26795  0.76820  1.0000
  H   H2693     1.0  0.63917  0.15783  0.98599  1.0000
  S   S667      1.0  0.65491  0.17043  0.83091  1.0000
  H   H2694     1.0  0.33954  0.17820  0.77480  1.0000
  H   H2695     1.0  0.39776  0.23361  0.73666  1.0000
  H   H2696     1.0  0.34901  0.02851  0.83164  1.0000
  H   H2697     1.0  0.66217  0.18391  0.89249  1.0000
  H   H2698     1.0  0.34507  0.13417  0.78470  1.0000
  S   S668      1.0  0.65282  0.32315  0.73946  1.0000
  H   H2699     1.0  0.65131  0.25363  0.80200  1.0000
  C   C1690     1.0  0.34027  0.21205  0.82232  1.0000
  C   C1691     1.0  0.34283  0.09954  0.80001  1.0000
  H   H2700     1.0  0.65604  0.27161  0.75953  1.0000
  C   C1692     1.0  0.65858  0.10965  0.91343  1.0000
  N   N167      1.0  0.35680  0.18347  0.90736  1.0000
  H   H2701     1.0  0.37283  0.19480  0.89675  1.0000
  C   C1693     1.0  0.63871  0.24889  0.78366  1.0000
  H   H2702     1.0  0.33823  0.12159  0.89852  1.0000
  H   H2703     1.0  0.62047  0.27947  0.79220  1.0000
  Fe  Fe331     1.0  0.64734  0.30229  0.74763  1.0000
  H   H2704     1.0  0.37093  0.03712  0.82251  1.0000
  H   H2705     1.0  0.35052  0.24863  0.76183  1.0000
  H   H2706     1.0  0.33466  0.12054  0.84516  1.0000
  H   H2707     1.0  0.36939  0.14228  0.98313  1.0000
  H   H2708     1.0  0.36165  0.99619  0.89552  1.0000
  H   H2709     1.0  0.34203  0.21493  0.84679  1.0000
  H   H2710     1.0  0.66069  0.17271  0.97133  1.0000
  C   C1694     1.0  0.65546  0.26309  0.82170  1.0000
  C   C1695     1.0  0.65806  0.27806  0.79918  1.0000
  C   C1696     1.0  0.33399  0.24948  0.73700  1.0000
  H   H2711     1.0  0.66669  0.20247  0.90038  1.0000
  H   H2712     1.0  0.34108  0.20204  0.90458  1.0000
  H   H2713     1.0  0.64770  0.26713  0.73803  1.0000
  H   H2714     1.0  0.33658  0.19942  0.85671  1.0000
  C   C1697     1.0  0.62197  0.25014  0.74285  1.0000
  C   C1698     1.0  0.66631  0.23428  0.85424  1.0000
  H   H2715     1.0  0.65624  0.27114  0.82664  1.0000
  H   H2716     1.0  0.66362  0.27936  0.78817  1.0000
  H   H2717     1.0  0.65926  0.25290  0.82808  1.0000
  H   H2718     1.0  0.33359  0.10976  0.83467  1.0000
  H   H2719     1.0  0.65905  0.28666  0.80322  1.0000
  N   N168      1.0  0.62778  0.26247  0.74035  1.0000
  C   C1699     1.0  0.64304  0.25825  0.73894  1.0000
  H   H2720     1.0  0.33474  0.21257  0.81422  1.0000
  H   H2721     1.0  0.37992  0.64856  0.23360  1.0000
  S   S669      1.0  0.39099  0.33961  0.27544  1.0000
  H   H2722     1.0  0.37267  0.40493  0.36183  1.0000
  H   H2723     1.0  0.41154  0.48407  0.36612  1.0000
  H   H2724     1.0  0.45716  0.63497  0.41663  1.0000
  H   H2725     1.0  0.59855  0.35054  0.31790  1.0000
  C   C1700     1.0  0.34139  0.60859  0.42034  1.0000
  S   S670      1.0  0.34485  0.64555  0.48581  1.0000
  Fe  Fe332     1.0  0.62242  0.42468  0.36516  1.0000
  S   S671      1.0  0.63993  0.40968  0.35512  1.0000
  S   S672      1.0  0.60270  0.41753  0.37704  1.0000
  Fe  Fe333     1.0  0.63806  0.44834  0.35461  1.0000
  S   S673      1.0  0.65679  0.43484  0.34396  1.0000
  Fe  Fe334     1.0  0.64166  0.42741  0.33719  1.0000
  S   S674      1.0  0.64402  0.42556  0.31548  1.0000
  Fe  Fe335     1.0  0.65332  0.41843  0.36297  1.0000
  S   S675      1.0  0.62298  0.44178  0.34655  1.0000
  S   S676      1.0  0.63578  0.43244  0.37444  1.0000
  C   C1701     1.0  0.60961  0.34841  0.31873  1.0000
  H   H2726     1.0  0.60623  0.64570  0.37748  1.0000
  H   H2727     1.0  0.35460  0.60993  0.46545  1.0000
  Fe  Fe336     1.0  0.57535  0.35967  0.36562  1.0000
  S   S677      1.0  0.55971  0.36228  0.38519  1.0000
  S   S678      1.0  0.58690  0.37564  0.35138  1.0000
  Fe  Fe337     1.0  0.57069  0.34121  0.39411  1.0000
  H   H2728     1.0  0.47982  0.62651  0.40268  1.0000
  Fe  Fe338     1.0  0.54750  0.35134  0.37799  1.0000
  S   S679      1.0  0.52437  0.36114  0.38120  1.0000
  S   S680      1.0  0.58731  0.33954  0.37513  1.0000
  S   S681      1.0  0.56260  0.35007  0.35762  1.0000
  Fe  Fe339     1.0  0.63594  0.33767  0.45578  1.0000
  S   S682      1.0  0.61641  0.35256  0.46321  1.0000
  Fe  Fe340     1.0  0.65146  0.35989  0.43980  1.0000
  S   S683      1.0  0.63347  0.37679  0.44544  1.0000
  C   C1702     1.0  0.38515  0.48573  0.35115  1.0000
  Fe  Fe341     1.0  0.63089  0.36365  0.46679  1.0000
  Fe  Fe342     1.0  0.62068  0.36430  0.44142  1.0000
  S   S684      1.0  0.60482  0.37475  0.42858  1.0000
  S   S685      1.0  0.65006  0.34763  0.46138  1.0000
  S   S686      1.0  0.63903  0.34860  0.43371  1.0000
  Fe  Fe343     1.0  0.43186  0.36993  0.37956  1.0000
  S   S687      1.0  0.41784  0.35592  0.38128  1.0000
  S   S688      1.0  0.42296  0.38678  0.39139  1.0000
  Fe  Fe344     1.0  0.45742  0.35238  0.36463  1.0000
  S   S689      1.0  0.44540  0.33696  0.36479  1.0000
  S   S690      1.0  0.48069  0.34733  0.35584  1.0000
  Fe  Fe345     1.0  0.42852  0.35519  0.35930  1.0000
  S   S691      1.0  0.41520  0.35802  0.34391  1.0000
  Fe  Fe346     1.0  0.43571  0.33900  0.38662  1.0000
  S   S692      1.0  0.44136  0.37067  0.35712  1.0000
  S   S693      1.0  0.44885  0.35305  0.38687  1.0000
  S   S694      1.0  0.36726  0.35905  0.46920  1.0000
  H   H2729     1.0  0.48223  0.32629  0.40195  1.0000
  Fe  Fe347     1.0  0.36829  0.34272  0.45803  1.0000
  C   C1703     1.0  0.33578  0.33700  0.29487  1.0000
  S   S695      1.0  0.34706  0.33905  0.46931  1.0000
  H   H2730     1.0  0.63375  0.40492  0.41938  1.0000
  S   S696      1.0  0.39880  0.44657  0.36108  1.0000
  Fe  Fe348     1.0  0.57322  0.33000  0.36916  1.0000
  C   C1704     1.0  0.41620  0.40311  0.38248  1.0000
  C   C1705     1.0  0.42426  0.40958  0.37054  1.0000
  C   C1706     1.0  0.41896  0.42307  0.36410  1.0000
  C   C1707     1.0  0.40549  0.42990  0.36940  1.0000
  C   C1708     1.0  0.39730  0.42327  0.38112  1.0000
  C   C1709     1.0  0.40275  0.40996  0.38780  1.0000
  H   H2731     1.0  0.43472  0.40434  0.36652  1.0000
  H   H2732     1.0  0.42529  0.42819  0.35499  1.0000
  H   H2733     1.0  0.38694  0.42855  0.38531  1.0000
  H   H2734     1.0  0.39654  0.40502  0.39712  1.0000
  H   H2735     1.0  0.37837  0.64338  0.37033  1.0000
  C   C1710     1.0  0.39783  0.33210  0.42903  1.0000
  H   H2736     1.0  0.35103  0.44361  0.26624  1.0000
  H   H2737     1.0  0.38791  0.33903  0.42824  1.0000
  H   H2738     1.0  0.40709  0.33746  0.40736  1.0000
  H   H2739     1.0  0.37086  0.64863  0.39963  1.0000
  H   H2740     1.0  0.38164  0.38820  0.36932  1.0000
  H   H2741     1.0  0.38951  0.48248  0.38348  1.0000
  C   C1711     1.0  0.44253  0.33099  0.28549  1.0000
  S   S697      1.0  0.36831  0.45979  0.34377  1.0000
  C   C1712     1.0  0.35408  0.36684  0.28235  1.0000
  H   H2742     1.0  0.34084  0.34178  0.36763  1.0000
  H   H2743     1.0  0.39829  0.41783  0.35188  1.0000
  C   C1713     1.0  0.51245  0.35688  0.37421  1.0000
  C   C1714     1.0  0.49814  0.36215  0.37850  1.0000
  C   C1715     1.0  0.48830  0.35930  0.37297  1.0000
  C   C1716     1.0  0.49273  0.35127  0.36296  1.0000
  C   C1717     1.0  0.50704  0.34602  0.35864  1.0000
  C   C1718     1.0  0.51688  0.34873  0.36431  1.0000
  H   H2744     1.0  0.49463  0.36849  0.38613  1.0000
  H   H2745     1.0  0.47733  0.36346  0.37633  1.0000
  H   H2746     1.0  0.51056  0.33983  0.35087  1.0000
  H   H2747     1.0  0.52787  0.34466  0.36089  1.0000
  C   C1719     1.0  0.58586  0.34485  0.41764  1.0000
  C   C1720     1.0  0.58491  0.35836  0.41006  1.0000
  C   C1721     1.0  0.59079  0.36750  0.41346  1.0000
  C   C1722     1.0  0.59789  0.36306  0.42424  1.0000
  C   C1723     1.0  0.59921  0.34943  0.43156  1.0000
  C   C1724     1.0  0.59308  0.34037  0.42835  1.0000
  H   H2748     1.0  0.57946  0.36186  0.40173  1.0000
  H   H2749     1.0  0.58984  0.37801  0.40772  1.0000
  H   H2750     1.0  0.60467  0.34594  0.43991  1.0000
  H   H2751     1.0  0.34938  0.50787  0.39010  1.0000
  S   S698      1.0  0.66404  0.62977  0.43840  1.0000
  H   H2752     1.0  0.35956  0.43249  0.27955  1.0000
  C   C1725     1.0  0.64015  0.47680  0.37277  1.0000
  H   H2753     1.0  0.34565  0.49206  0.37772  1.0000
  H   H2754     1.0  0.44484  0.32905  0.31108  1.0000
  H   H2755     1.0  0.38734  0.47462  0.35095  1.0000
  H   H2756     1.0  0.64934  0.37967  0.41399  1.0000
  H   H2757     1.0  0.64939  0.39620  0.39134  1.0000
  C   C1726     1.0  0.59844  0.40578  0.36994  1.0000
  C   C1727     1.0  0.60420  0.40466  0.35623  1.0000
  C   C1728     1.0  0.60057  0.39540  0.35067  1.0000
  C   C1729     1.0  0.59135  0.38701  0.35881  1.0000
  C   C1730     1.0  0.58564  0.38807  0.37255  1.0000
  C   C1731     1.0  0.58907  0.39753  0.37804  1.0000
  H   H2758     1.0  0.61130  0.41109  0.34983  1.0000
  H   H2759     1.0  0.60498  0.39471  0.34002  1.0000
  H   H2760     1.0  0.57859  0.38162  0.37896  1.0000
  H   H2761     1.0  0.58457  0.39834  0.38864  1.0000
  C   C1732     1.0  0.50987  0.64616  0.36575  1.0000
  H   H2762     1.0  0.33878  0.40340  0.37655  1.0000
  C   C1733     1.0  0.65978  0.41474  0.30950  1.0000
  C   C1734     1.0  0.34608  0.59794  0.41303  1.0000
  H   H2763     1.0  0.39792  0.39273  0.33192  1.0000
  H   H2764     1.0  0.65124  0.40754  0.29644  1.0000
  N   N169      1.0  0.33579  0.33335  0.28194  1.0000
  H   H2765     1.0  0.36240  0.43095  0.40110  1.0000
  C   C1735     1.0  0.58500  0.65130  0.39961  1.0000
  N   N170      1.0  0.39133  0.48805  0.36153  1.0000
  S   S699      1.0  0.36708  0.39232  0.44034  1.0000
  Fe  Fe349     1.0  0.33948  0.35510  0.45198  1.0000
  C   C1736     1.0  0.35147  0.52437  0.37229  1.0000
  S   S700      1.0  0.35726  0.42803  0.33745  1.0000
  H   H2766     1.0  0.59382  0.32993  0.43426  1.0000
  H   H2767     1.0  0.36544  0.32939  0.36198  1.0000
  C   C1737     1.0  0.38572  0.62254  0.40022  1.0000
  H   H2768     1.0  0.60345  0.64499  0.36127  1.0000
  Fe  Fe350     1.0  0.33697  0.58488  0.35992  1.0000
  H   H2769     1.0  0.63184  0.61270  0.37787  1.0000
  H   H2770     1.0  0.44819  0.65256  0.41240  1.0000
  H   H2771     1.0  0.66574  0.44375  0.31275  1.0000
  S   S701      1.0  0.33362  0.43681  0.39887  1.0000
  C   C1738     1.0  0.65907  0.39099  0.39451  1.0000
  C   C1739     1.0  0.64343  0.33179  0.28599  1.0000
  C   C1740     1.0  0.37868  0.36463  0.26216  1.0000
  Fe  Fe351     1.0  0.57051  0.64950  0.35225  1.0000
  C   C1741     1.0  0.33915  0.33991  0.35813  1.0000
  H   H2772     1.0  0.34865  0.33386  0.26154  1.0000
  C   C1742     1.0  0.38982  0.39301  0.34161  1.0000
  S   S702      1.0  0.34826  0.59764  0.36551  1.0000
  S   S703      1.0  0.40394  0.65145  0.44363  1.0000
  H   H2773     1.0  0.59386  0.33487  0.34085  1.0000
  C   C1743     1.0  0.41062  0.34317  0.34258  1.0000
  C   C1744     1.0  0.40177  0.34436  0.33381  1.0000
  S   S704      1.0  0.51903  0.65501  0.37152  1.0000
  C   C1745     1.0  0.64437  0.64219  0.48225  1.0000
  H   H2774     1.0  0.39749  0.35441  0.32826  1.0000
  H   H2775     1.0  0.34827  0.33470  0.33274  1.0000
  N   N171      1.0  0.53852  0.39753  0.36175  1.0000
  C   C1746     1.0  0.53866  0.39452  0.37655  1.0000
  C   C1747     1.0  0.54462  0.40968  0.35464  1.0000
  C   C1748     1.0  0.52402  0.40023  0.36013  1.0000
  C   C1749     1.0  0.54683  0.38561  0.35570  1.0000
  H   H2776     1.0  0.53432  0.38525  0.38220  1.0000
  H   H2777     1.0  0.53233  0.40323  0.38150  1.0000
  H   H2778     1.0  0.54945  0.39253  0.37816  1.0000
  H   H2779     1.0  0.54464  0.41229  0.34345  1.0000
  H   H2780     1.0  0.53875  0.41888  0.35903  1.0000
  H   H2781     1.0  0.55566  0.40776  0.35558  1.0000
  H   H2782     1.0  0.52351  0.40237  0.34911  1.0000
  H   H2783     1.0  0.51738  0.40917  0.36457  1.0000
  H   H2784     1.0  0.51922  0.39115  0.36548  1.0000
  H   H2785     1.0  0.54727  0.38759  0.34447  1.0000
  H   H2786     1.0  0.54236  0.37633  0.36059  1.0000
  H   H2787     1.0  0.55773  0.38302  0.35707  1.0000
  H   H2788     1.0  0.39026  0.64445  0.37988  1.0000
  C   C1750     1.0  0.65906  0.38165  0.40728  1.0000
  N   N172      1.0  0.46844  0.64756  0.39943  1.0000
  H   H2789     1.0  0.44121  0.34236  0.28209  1.0000
  H   H2790     1.0  0.48539  0.65483  0.40167  1.0000
  H   H2791     1.0  0.41653  0.32965  0.28692  1.0000
  N   N173      1.0  0.61384  0.33447  0.32692  1.0000
  C   C1751     1.0  0.35151  0.52852  0.35822  1.0000
  C   C1752     1.0  0.34996  0.60141  0.47260  1.0000
  C   C1753     1.0  0.61203  0.32411  0.32038  1.0000
  N   N174      1.0  0.65499  0.46457  0.30658  1.0000
  N   N175      1.0  0.33833  0.43123  0.28206  1.0000
  H   H2792     1.0  0.44956  0.64095  0.40172  1.0000
  C   C1754     1.0  0.64115  0.46184  0.31407  1.0000
  C   C1755     1.0  0.43405  0.33276  0.30932  1.0000
  C   C1756     1.0  0.61037  0.64796  0.36618  1.0000
  C   C1757     1.0  0.34013  0.41745  0.29113  1.0000
  S   S705      1.0  0.38704  0.32516  0.45708  1.0000
  N   N176      1.0  0.40553  0.36901  0.42954  1.0000
  C   C1758     1.0  0.39683  0.37033  0.41971  1.0000
  C   C1759     1.0  0.40708  0.38281  0.42967  1.0000
  C   C1760     1.0  0.41938  0.36027  0.42536  1.0000
  C   C1761     1.0  0.39876  0.36263  0.44347  1.0000
  H   H2793     1.0  0.39566  0.36016  0.41910  1.0000
  H   H2794     1.0  0.40141  0.37541  0.40917  1.0000
  H   H2795     1.0  0.38621  0.37658  0.42271  1.0000
  H   H2796     1.0  0.39677  0.38970  0.43256  1.0000
  H   H2797     1.0  0.41337  0.38226  0.43714  1.0000
  H   H2798     1.0  0.41228  0.38790  0.41936  1.0000
  H   H2799     1.0  0.42464  0.36457  0.41474  1.0000
  H   H2800     1.0  0.41858  0.34969  0.42554  1.0000
  H   H2801     1.0  0.42632  0.35935  0.43236  1.0000
  H   H2802     1.0  0.38851  0.36920  0.44706  1.0000
  H   H2803     1.0  0.40518  0.36109  0.45112  1.0000
  H   H2804     1.0  0.39690  0.35241  0.44373  1.0000
  H   H2805     1.0  0.34466  0.36773  0.29023  1.0000
  H   H2806     1.0  0.33517  0.62622  0.47708  1.0000
  C   C1762     1.0  0.35197  0.43330  0.27325  1.0000
  H   H2807     1.0  0.36900  0.38431  0.25140  1.0000
  S   S706      1.0  0.33633  0.37271  0.46230  1.0000
  C   C1763     1.0  0.66128  0.60410  0.35407  1.0000
  C   C1764     1.0  0.64189  0.48088  0.35847  1.0000
  C   C1765     1.0  0.34945  0.51115  0.37921  1.0000
  H   H2808     1.0  0.57595  0.65668  0.39533  1.0000
  H   H2809     1.0  0.33869  0.39716  0.43715  1.0000
  H   H2810     1.0  0.47893  0.65121  0.35645  1.0000
  C   C1766     1.0  0.36490  0.35514  0.28395  1.0000
  H   H2811     1.0  0.37363  0.48494  0.37801  1.0000
  Fe  Fe352     1.0  0.34693  0.44669  0.37961  1.0000
  Fe  Fe353     1.0  0.35838  0.37351  0.45161  1.0000
  C   C1767     1.0  0.66146  0.37975  0.45984  1.0000
  C   C1768     1.0  0.65910  0.58157  0.40952  1.0000
  H   H2812     1.0  0.40619  0.37958  0.35964  1.0000
  C   C1769     1.0  0.34742  0.50213  0.37220  1.0000
  H   H2813     1.0  0.40375  0.41346  0.33525  1.0000
  N   N177      1.0  0.39383  0.39882  0.35125  1.0000
  N   N178      1.0  0.34268  0.60506  0.48605  1.0000
  H   H2814     1.0  0.47325  0.63227  0.38714  1.0000
  H   H2815     1.0  0.41577  0.34455  0.29309  1.0000
  C   C1770     1.0  0.60504  0.33340  0.34097  1.0000
  H   H2816     1.0  0.63726  0.46707  0.37796  1.0000
  H   H2817     1.0  0.34726  0.41629  0.29803  1.0000
  H   H2818     1.0  0.36227  0.62727  0.38057  1.0000
  C   C1771     1.0  0.65892  0.63977  0.47900  1.0000
  H   H2819     1.0  0.61133  0.42849  0.39595  1.0000
  S   S707      1.0  0.36093  0.35729  0.43981  1.0000
  C   C1772     1.0  0.40713  0.39033  0.35457  1.0000
  H   H2820     1.0  0.63366  0.41776  0.40382  1.0000
  H   H2821     1.0  0.39275  0.50514  0.36899  1.0000
  H   H2822     1.0  0.62548  0.42257  0.42012  1.0000
  H   H2823     1.0  0.48803  0.63778  0.38830  1.0000
  H   H2824     1.0  0.59621  0.40479  0.42698  1.0000
  H   H2825     1.0  0.37983  0.39922  0.33882  1.0000
  C   C1773     1.0  0.60571  0.42466  0.40654  1.0000
  H   H2826     1.0  0.60313  0.43300  0.41236  1.0000
  H   H2827     1.0  0.59576  0.42291  0.40553  1.0000
  Fe  Fe354     1.0  0.35766  0.65441  0.43347  1.0000
  C   C1774     1.0  0.62731  0.41442  0.41422  1.0000
  H   H2828     1.0  0.60334  0.41522  0.43363  1.0000
  N   N179      1.0  0.61405  0.41187  0.41333  1.0000
  C   C1775     1.0  0.60607  0.40727  0.42732  1.0000
  C   C1776     1.0  0.35724  0.42352  0.40885  1.0000
  S   S708      1.0  0.65976  0.34607  0.29111  1.0000
  H   H2829     1.0  0.33505  0.62806  0.29932  1.0000
  C   C1777     1.0  0.36784  0.37623  0.26051  1.0000
  S   S709      1.0  0.63847  0.47116  0.34842  1.0000
  H   H2830     1.0  0.61206  0.39775  0.43288  1.0000
  H   H2831     1.0  0.38553  0.40337  0.37143  1.0000
  C   C1778     1.0  0.35551  0.37736  0.27057  1.0000
  H   H2832     1.0  0.41892  0.64670  0.39554  1.0000
  H   H2833     1.0  0.64925  0.47114  0.28694  1.0000
  H   H2834     1.0  0.36584  0.33727  0.34414  1.0000
  Fe  Fe355     1.0  0.37577  0.44992  0.36324  1.0000
  H   H2835     1.0  0.46504  0.32649  0.40041  1.0000
  H   H2836     1.0  0.34279  0.59917  0.46744  1.0000
  C   C1779     1.0  0.38292  0.39883  0.36403  1.0000
  H   H2837     1.0  0.46107  0.65568  0.38059  1.0000
  H   H2838     1.0  0.61062  0.35651  0.32351  1.0000
  H   H2839     1.0  0.38858  0.38222  0.34616  1.0000
  H   H2840     1.0  0.41057  0.39446  0.36170  1.0000
  H   H2841     1.0  0.65384  0.47947  0.31827  1.0000
  H   H2842     1.0  0.37533  0.41352  0.41753  1.0000
  H   H2843     1.0  0.61856  0.32448  0.30979  1.0000
  S   S710      1.0  0.55793  0.65609  0.37184  1.0000
  H   H2844     1.0  0.38740  0.65188  0.47544  1.0000
  C   C1780     1.0  0.34315  0.42409  0.40997  1.0000
  C   C1781     1.0  0.61707  0.40111  0.40526  1.0000
  H   H2845     1.0  0.41559  0.38984  0.34516  1.0000
  H   H2846     1.0  0.62342  0.39131  0.41001  1.0000
  H   H2847     1.0  0.62659  0.51775  0.34401  1.0000
  H   H2848     1.0  0.38562  0.41976  0.34206  1.0000
  C   C1782     1.0  0.36454  0.41367  0.41817  1.0000
  C   C1783     1.0  0.35787  0.40415  0.42842  1.0000
  C   C1784     1.0  0.34806  0.33683  0.27133  1.0000
  N   N180      1.0  0.43223  0.32724  0.29823  1.0000
  H   H2849     1.0  0.60936  0.32472  0.39106  1.0000
  Fe  Fe356     1.0  0.34528  0.58398  0.38638  1.0000
  H   H2850     1.0  0.65660  0.37553  0.33769  1.0000
  C   C1785     1.0  0.66046  0.40694  0.30001  1.0000
  H   H2851     1.0  0.62082  0.64121  0.36400  1.0000
  H   H2852     1.0  0.34587  0.61863  0.43396  1.0000
  H   H2853     1.0  0.60731  0.39872  0.40451  1.0000
  H   H2854     1.0  0.62283  0.40435  0.39455  1.0000
  S   S711      1.0  0.66228  0.60016  0.42255  1.0000
  H   H2855     1.0  0.37365  0.48936  0.35337  1.0000
  S   S712      1.0  0.35907  0.46294  0.37640  1.0000
  C   C1786     1.0  0.66438  0.45166  0.30325  1.0000
  C   C1787     1.0  0.60540  0.65178  0.40729  1.0000
  H   H2856     1.0  0.42700  0.32943  0.31925  1.0000
  C   C1788     1.0  0.37721  0.35403  0.27382  1.0000
  H   H2857     1.0  0.47664  0.33491  0.38626  1.0000
  Fe  Fe357     1.0  0.35564  0.44362  0.34991  1.0000
  H   H2858     1.0  0.38819  0.36381  0.25432  1.0000
  S   S713      1.0  0.36457  0.43282  0.36845  1.0000
  H   H2859     1.0  0.39187  0.33357  0.32519  1.0000
  C   C1789     1.0  0.39545  0.41308  0.34481  1.0000
  H   H2860     1.0  0.36377  0.34708  0.29304  1.0000
  H   H2861     1.0  0.39204  0.62888  0.40203  1.0000
  C   C1790     1.0  0.45529  0.64381  0.40794  1.0000
  H   H2862     1.0  0.34956  0.52269  0.34030  1.0000
  H   H2863     1.0  0.33861  0.41872  0.36321  1.0000
  C   C1791     1.0  0.41246  0.64853  0.41680  1.0000
  H   H2864     1.0  0.64510  0.63183  0.36861  1.0000
  H   H2865     1.0  0.59628  0.52561  0.34349  1.0000
  H   H2866     1.0  0.38696  0.46969  0.37607  1.0000
  H   H2867     1.0  0.37709  0.61341  0.38247  1.0000
  S   S714      1.0  0.33543  0.59599  0.40318  1.0000
  H   H2868     1.0  0.63541  0.33616  0.29380  1.0000
  H   H2869     1.0  0.42273  0.32911  0.35666  1.0000
  Fe  Fe358     1.0  0.34532  0.35677  0.47904  1.0000
  C   C1792     1.0  0.36331  0.32828  0.35236  1.0000
  S   S715      1.0  0.34199  0.39192  0.26829  1.0000
  N   N181      1.0  0.65256  0.61119  0.36520  1.0000
  H   H2870     1.0  0.33534  0.63589  0.27394  1.0000
  H   H2871     1.0  0.35966  0.63665  0.40720  1.0000
  H   H2872     1.0  0.66387  0.47718  0.28781  1.0000
  H   H2873     1.0  0.35170  0.40567  0.33006  1.0000
  C   C1793     1.0  0.38509  0.48098  0.37538  1.0000
  H   H2874     1.0  0.61782  0.50660  0.36896  1.0000
  S   S716      1.0  0.45140  0.65485  0.34910  1.0000
  C   C1794     1.0  0.49711  0.65304  0.36212  1.0000
  H   H2875     1.0  0.41317  0.65351  0.30446  1.0000
  C   C1795     1.0  0.65909  0.60649  0.37726  1.0000
  H   H2876     1.0  0.34777  0.34807  0.26894  1.0000
  C   C1796     1.0  0.47611  0.32570  0.39478  1.0000
  Fe  Fe359     1.0  0.35072  0.47194  0.35716  1.0000
  H   H2877     1.0  0.66061  0.59514  0.38087  1.0000
  H   H2878     1.0  0.63647  0.45766  0.30790  1.0000
  C   C1797     1.0  0.65135  0.62621  0.36035  1.0000
  S   S717      1.0  0.43047  0.65448  0.32173  1.0000
  C   C1798     1.0  0.65630  0.33563  0.28198  1.0000
  H   H2879     1.0  0.34553  0.33164  0.29856  1.0000
  H   H2880     1.0  0.33950  0.44108  0.29757  1.0000
  C   C1799     1.0  0.65360  0.47488  0.29373  1.0000
  H   H2881     1.0  0.33832  0.41946  0.38043  1.0000
  Fe  Fe360     1.0  0.56372  0.62102  0.36143  1.0000
  S   S718      1.0  0.55054  0.62526  0.38163  1.0000
  S   S719      1.0  0.56498  0.60062  0.35678  1.0000
  H   H2882     1.0  0.39313  0.62959  0.37281  1.0000
  Fe  Fe361     1.0  0.56759  0.63489  0.38220  1.0000
  S   S720      1.0  0.57744  0.62728  0.40070  1.0000
  S   S721      1.0  0.55407  0.64082  0.34891  1.0000
  S   S722      1.0  0.58142  0.62906  0.36280  1.0000
  Fe  Fe362     1.0  0.63624  0.55649  0.35401  1.0000
  S   S723      1.0  0.62762  0.54817  0.37609  1.0000
  S   S724      1.0  0.62277  0.56172  0.33871  1.0000
  H   H2883     1.0  0.65261  0.61122  0.38607  1.0000
  Fe  Fe363     1.0  0.64741  0.53194  0.37468  1.0000
  S   S725      1.0  0.64566  0.50967  0.38396  1.0000
  Fe  Fe364     1.0  0.63964  0.56111  0.38068  1.0000
  S   S726      1.0  0.62832  0.57602  0.39476  1.0000
  S   S727      1.0  0.64655  0.57080  0.35852  1.0000
  Fe  Fe365     1.0  0.65279  0.62115  0.42774  1.0000
  H   H2884     1.0  0.41069  0.65648  0.47024  1.0000
  S   S728      1.0  0.65314  0.63842  0.40938  1.0000
  Fe  Fe366     1.0  0.46017  0.63263  0.35708  1.0000
  S   S729      1.0  0.65882  0.54414  0.38149  1.0000
  S   S730      1.0  0.48263  0.62209  0.35692  1.0000
  Fe  Fe367     1.0  0.43150  0.62563  0.36847  1.0000
  S   S731      1.0  0.42013  0.64728  0.36214  1.0000
  S   S732      1.0  0.42052  0.60842  0.38009  1.0000
  Fe  Fe368     1.0  0.43625  0.64710  0.34241  1.0000
  H   H2885     1.0  0.65853  0.39115  0.45850  1.0000
  H   H2886     1.0  0.66454  0.63803  0.46888  1.0000
  S   S733      1.0  0.44657  0.62490  0.34829  1.0000
  S   S734      1.0  0.44587  0.63152  0.37786  1.0000
  S   S735      1.0  0.35639  0.56994  0.35241  1.0000
  C   C1800     1.0  0.59942  0.51929  0.35316  1.0000
  H   H2887     1.0  0.47776  0.64374  0.41680  1.0000
  S   S736      1.0  0.36539  0.56876  0.38165  1.0000
  Fe  Fe369     1.0  0.36741  0.58167  0.36022  1.0000
  S   S737      1.0  0.38645  0.58977  0.34778  1.0000
  Fe  Fe370     1.0  0.35300  0.55805  0.37431  1.0000
  S   S738      1.0  0.35437  0.53505  0.38156  1.0000
  C   C1801     1.0  0.34942  0.51950  0.35120  1.0000
  Fe  Fe371     1.0  0.35660  0.64324  0.46426  1.0000
  Fe  Fe372     1.0  0.36883  0.62437  0.44387  1.0000
  S   S739      1.0  0.37820  0.64041  0.42753  1.0000
  C   C1802     1.0  0.34251  0.41390  0.32996  1.0000
  S   S740      1.0  0.37685  0.62803  0.46052  1.0000
  C   C1803     1.0  0.61213  0.51710  0.37051  1.0000
  H   H2888     1.0  0.60523  0.50895  0.35112  1.0000
  S   S741      1.0  0.34776  0.63805  0.44894  1.0000
  C   C1804     1.0  0.38856  0.50297  0.36107  1.0000
  H   H2889     1.0  0.65655  0.60717  0.34488  1.0000
  S   S742      1.0  0.63142  0.63052  0.43868  1.0000
  S   S743      1.0  0.55715  0.33038  0.38887  1.0000
  H   H2890     1.0  0.39327  0.50864  0.35083  1.0000
  H   H2891     1.0  0.63023  0.33965  0.33263  1.0000
  H   H2892     1.0  0.66269  0.59272  0.35748  1.0000
  C   C1805     1.0  0.36242  0.60137  0.42938  1.0000
  C   C1806     1.0  0.36714  0.59074  0.42202  1.0000
  C   C1807     1.0  0.35907  0.58913  0.41371  1.0000
  H   H2893     1.0  0.37707  0.58375  0.42273  1.0000
  H   H2894     1.0  0.36275  0.58089  0.40809  1.0000
  Fe  Fe373     1.0  0.38407  0.64556  0.44463  1.0000
  C   C1808     1.0  0.36946  0.62150  0.38755  1.0000
  H   H2895     1.0  0.40826  0.63934  0.42020  1.0000
  C   C1809     1.0  0.41104  0.60341  0.37101  1.0000
  C   C1810     1.0  0.41154  0.60897  0.35700  1.0000
  C   C1811     1.0  0.40400  0.60469  0.34995  1.0000
  C   C1812     1.0  0.39565  0.59510  0.35692  1.0000
  C   C1813     1.0  0.39499  0.58973  0.37098  1.0000
  C   C1814     1.0  0.40280  0.59375  0.37796  1.0000
  H   H2896     1.0  0.41778  0.61652  0.35155  1.0000
  H   H2897     1.0  0.40453  0.60891  0.33908  1.0000
  H   H2898     1.0  0.38870  0.58226  0.37643  1.0000
  H   H2899     1.0  0.40235  0.58940  0.38880  1.0000
  H   H2900     1.0  0.35727  0.61691  0.48537  1.0000
  C   C1815     1.0  0.40652  0.48247  0.35851  1.0000
  H   H2901     1.0  0.40891  0.47119  0.35889  1.0000
  H   H2902     1.0  0.64190  0.45408  0.32374  1.0000
  H   H2903     1.0  0.65672  0.56694  0.39916  1.0000
  C   C1816     1.0  0.41857  0.65264  0.40288  1.0000
  H   H2904     1.0  0.33440  0.62524  0.32984  1.0000
  C   C1817     1.0  0.41803  0.33311  0.29567  1.0000
  C   C1818     1.0  0.64517  0.49836  0.37389  1.0000
  C   C1819     1.0  0.64734  0.50221  0.35954  1.0000
  C   C1820     1.0  0.64564  0.49355  0.35190  1.0000
  Fe  Fe374     1.0  0.43609  0.65320  0.36935  1.0000
  S   S744      1.0  0.34517  0.49501  0.34904  1.0000
  H   H2905     1.0  0.63933  0.59661  0.37264  1.0000
  H   H2906     1.0  0.65020  0.51193  0.35434  1.0000
  N   N182      1.0  0.34870  0.32729  0.35425  1.0000
  S   S745      1.0  0.37262  0.60314  0.43981  1.0000
  C   C1821     1.0  0.63795  0.58249  0.40250  1.0000
  C   C1822     1.0  0.65175  0.57613  0.40326  1.0000
  H   H2907     1.0  0.56819  0.32485  0.34271  1.0000
  C   C1823     1.0  0.65275  0.59347  0.41492  1.0000
  C   C1824     1.0  0.63900  0.59991  0.41400  1.0000
  C   C1825     1.0  0.63161  0.59437  0.40790  1.0000
  S   S746      1.0  0.65522  0.53952  0.35217  1.0000
  C   C1826     1.0  0.47536  0.65204  0.40784  1.0000
  H   H2908     1.0  0.63400  0.60901  0.41823  1.0000
  H   H2909     1.0  0.62092  0.59929  0.40741  1.0000
  C   C1827     1.0  0.36596  0.64134  0.39730  1.0000
  C   C1828     1.0  0.48882  0.64583  0.35907  1.0000
  C   C1829     1.0  0.51462  0.63212  0.36568  1.0000
  C   C1830     1.0  0.50638  0.62491  0.36255  1.0000
  C   C1831     1.0  0.49334  0.63168  0.35947  1.0000
  H   H2910     1.0  0.64654  0.48473  0.29590  1.0000
  H   H2911     1.0  0.66123  0.37717  0.45011  1.0000
  H   H2912     1.0  0.52452  0.62674  0.36832  1.0000
  H   H2913     1.0  0.51003  0.61400  0.36274  1.0000
  C   C1832     1.0  0.34962  0.61042  0.42834  1.0000
  C   C1833     1.0  0.58794  0.63693  0.40327  1.0000
  H   H2914     1.0  0.36326  0.61617  0.39707  1.0000
  H   H2915     1.0  0.63558  0.33284  0.31728  1.0000
  C   C1834     1.0  0.60825  0.63742  0.41104  1.0000
  C   C1835     1.0  0.59944  0.63003  0.40918  1.0000
  H   H2916     1.0  0.61724  0.63201  0.41538  1.0000
  H   H2917     1.0  0.60161  0.61893  0.41225  1.0000
  C   C1836     1.0  0.58158  0.59116  0.35076  1.0000
  C   C1837     1.0  0.59324  0.59158  0.35518  1.0000
  C   C1838     1.0  0.60603  0.58253  0.35156  1.0000
  C   C1839     1.0  0.60726  0.57364  0.34291  1.0000
  C   C1840     1.0  0.59578  0.57378  0.33795  1.0000
  C   C1841     1.0  0.58289  0.58225  0.34215  1.0000
  H   H2918     1.0  0.59228  0.59859  0.36166  1.0000
  H   H2919     1.0  0.61494  0.58252  0.35531  1.0000
  H   H2920     1.0  0.59675  0.56708  0.33110  1.0000
  H   H2921     1.0  0.57390  0.58199  0.33865  1.0000
  N   N183      1.0  0.60803  0.52589  0.35777  1.0000
  C   C1842     1.0  0.62063  0.52767  0.34690  1.0000
  C   C1843     1.0  0.59995  0.53949  0.36046  1.0000
  H   H2922     1.0  0.61800  0.53495  0.33741  1.0000
  H   H2923     1.0  0.62777  0.53192  0.35032  1.0000
  H   H2924     1.0  0.60633  0.54495  0.36346  1.0000
  H   H2925     1.0  0.59053  0.53861  0.36884  1.0000
  H   H2926     1.0  0.59649  0.54626  0.35112  1.0000
  H   H2927     1.0  0.58978  0.51786  0.36108  1.0000
  C   C1844     1.0  0.33651  0.41450  0.42014  1.0000
  H   H2928     1.0  0.38927  0.49125  0.34061  1.0000
  H   H2929     1.0  0.66180  0.62886  0.35716  1.0000
  N   N184      1.0  0.37651  0.63069  0.39072  1.0000
  C   C1845     1.0  0.38490  0.63735  0.37786  1.0000
  H   H2930     1.0  0.66013  0.44712  0.29701  1.0000
  H   H2931     1.0  0.45338  0.32667  0.28698  1.0000
  N   N185      1.0  0.58522  0.58639  0.39911  1.0000
  C   C1846     1.0  0.57434  0.59361  0.40907  1.0000
  C   C1847     1.0  0.57858  0.58240  0.39012  1.0000
  C   C1848     1.0  0.59340  0.57397  0.40661  1.0000
  C   C1849     1.0  0.59457  0.59563  0.39063  1.0000
  H   H2932     1.0  0.57899  0.59737  0.41560  1.0000
  H   H2933     1.0  0.56736  0.58684  0.41599  1.0000
  H   H2934     1.0  0.56771  0.60280  0.40370  1.0000
  H   H2935     1.0  0.57125  0.57564  0.39616  1.0000
  H   H2936     1.0  0.57253  0.59160  0.38412  1.0000
  H   H2937     1.0  0.58647  0.57680  0.38255  1.0000
  H   H2938     1.0  0.60162  0.56822  0.39936  1.0000
  H   H2939     1.0  0.58671  0.56683  0.41333  1.0000
  H   H2940     1.0  0.59884  0.57671  0.41321  1.0000
  H   H2941     1.0  0.60297  0.59049  0.38304  1.0000
  H   H2942     1.0  0.59969  0.59892  0.39710  1.0000
  H   H2943     1.0  0.58874  0.60513  0.38487  1.0000
  C   C1850     1.0  0.40866  0.33116  0.41722  1.0000
  H   H2944     1.0  0.35534  0.65241  0.24704  1.0000
  S   S747      1.0  0.63459  0.64369  0.46993  1.0000
  Fe  Fe375     1.0  0.64278  0.64071  0.44785  1.0000
  C   C1851     1.0  0.64174  0.48553  0.38044  1.0000
  C   C1852     1.0  0.47775  0.63549  0.39418  1.0000
  C   C1853     1.0  0.63860  0.60792  0.36918  1.0000
  H   H2945     1.0  0.35858  0.64752  0.39062  1.0000
  H   H2946     1.0  0.64010  0.48243  0.39153  1.0000
  H   H2947     1.0  0.66195  0.46230  0.32513  1.0000
  C   C1854     1.0  0.39861  0.33255  0.33203  1.0000
  H   H2948     1.0  0.37720  0.50749  0.36303  1.0000
  H   H2949     1.0  0.41157  0.48745  0.34807  1.0000
  H   H2950     1.0  0.63323  0.61144  0.36041  1.0000
  Fe  Fe376     1.0  0.54209  0.64577  0.36929  1.0000
  C   C1855     1.0  0.34742  0.50625  0.35816  1.0000
  H   H2951     1.0  0.61613  0.34971  0.30809  1.0000
  H   H2952     1.0  0.60294  0.51592  0.37910  1.0000
  N   N186      1.0  0.45811  0.58332  0.36591  1.0000
  C   C1856     1.0  0.46077  0.59471  0.37033  1.0000
  C   C1857     1.0  0.47153  0.57423  0.36114  1.0000
  C   C1858     1.0  0.45062  0.58897  0.35454  1.0000
  C   C1859     1.0  0.44952  0.57540  0.37763  1.0000
  H   H2953     1.0  0.45087  0.60170  0.37415  1.0000
  H   H2954     1.0  0.46707  0.60103  0.36169  1.0000
  H   H2955     1.0  0.46657  0.59086  0.37877  1.0000
  H   H2956     1.0  0.46995  0.56558  0.35760  1.0000
  H   H2957     1.0  0.47826  0.58001  0.35239  1.0000
  H   H2958     1.0  0.47744  0.56975  0.36949  1.0000
  H   H2959     1.0  0.44823  0.58071  0.35106  1.0000
  H   H2960     1.0  0.45679  0.59498  0.34547  1.0000
  H   H2961     1.0  0.44052  0.59601  0.35775  1.0000
  H   H2962     1.0  0.44726  0.56674  0.37468  1.0000
  H   H2963     1.0  0.43929  0.58202  0.38139  1.0000
  H   H2964     1.0  0.45476  0.57108  0.38648  1.0000
  S   S748      1.0  0.57799  0.33346  0.41398  1.0000
  H   H2965     1.0  0.34450  0.40916  0.28511  1.0000
  H   H2966     1.0  0.64716  0.49673  0.34083  1.0000
  Fe  Fe377     1.0  0.66493  0.55306  0.35886  1.0000
  H   H2967     1.0  0.61913  0.52148  0.37398  1.0000
  Fe  Fe378     1.0  0.63285  0.64864  0.42094  1.0000
  H   H2968     1.0  0.33577  0.32461  0.34227  1.0000
  H   H2969     1.0  0.60103  0.32572  0.31958  1.0000
  H   H2970     1.0  0.33695  0.64536  0.42417  1.0000
  Fe  Fe379     1.0  0.66282  0.64778  0.42061  1.0000
  H   H2971     1.0  0.35651  0.42542  0.26674  1.0000
  H   H2972     1.0  0.43175  0.34421  0.30698  1.0000
  H   H2973     1.0  0.35331  0.53861  0.35275  1.0000
  H   H2974     1.0  0.63378  0.47127  0.31698  1.0000
  H   H2975     1.0  0.37968  0.61813  0.41038  1.0000
  H   H2976     1.0  0.35796  0.33149  0.27475  1.0000
  H   H2977     1.0  0.34111  0.63793  0.31574  1.0000
  C   C1860     1.0  0.66079  0.46986  0.31533  1.0000
  H   H2978     1.0  0.35865  0.59223  0.47362  1.0000
  H   H2979     1.0  0.60586  0.34129  0.34610  1.0000
  C   C1861     1.0  0.34391  0.40443  0.42924  1.0000
  S   S749      1.0  0.33710  0.45664  0.36135  1.0000
  H   H2980     1.0  0.34050  0.34913  0.34976  1.0000
  H   H2981     1.0  0.40998  0.32990  0.30480  1.0000
  H   H2982     1.0  0.66360  0.38097  0.35679  1.0000
  H   H2983     1.0  0.44139  0.32701  0.27690  1.0000
  C   C1862     1.0  0.34226  0.42619  0.33348  1.0000
  C   C1863     1.0  0.41200  0.65619  0.42633  1.0000
  C   C1864     1.0  0.62859  0.33202  0.32768  1.0000
  H   H2984     1.0  0.39310  0.61375  0.39610  1.0000
  C   C1865     1.0  0.66635  0.33060  0.27121  1.0000
  H   H2985     1.0  0.64641  0.63017  0.35128  1.0000
  H   H2986     1.0  0.65319  0.37551  0.46802  1.0000
  C   C1866     1.0  0.41602  0.33015  0.34978  1.0000
  H   H2987     1.0  0.33485  0.34822  0.29356  1.0000
  S   S750      1.0  0.62601  0.37522  0.48401  1.0000
  C   C1867     1.0  0.34654  0.32568  0.34123  1.0000
  H   H2988     1.0  0.66300  0.32838  0.41030  1.0000
  H   H2989     1.0  0.33586  0.58321  0.32977  1.0000
  C   C1868     1.0  0.33435  0.41465  0.37423  1.0000
  H   H2990     1.0  0.66641  0.35666  0.35516  1.0000
  C   C1869     1.0  0.39983  0.32390  0.44183  1.0000
  Fe  Fe380     1.0  0.65459  0.36620  0.54905  1.0000
  S   S751      1.0  0.63887  0.35547  0.56486  1.0000
  S   S752      1.0  0.63598  0.64640  0.54753  1.0000
  S   S753      1.0  0.52860  0.64549  0.66005  1.0000
  S   S754      1.0  0.64187  0.37242  0.58653  1.0000
  Fe  Fe381     1.0  0.62984  0.37624  0.57030  1.0000
  S   S755      1.0  0.60685  0.38478  0.57590  1.0000
  C   C1870     1.0  0.66085  0.59133  0.61241  1.0000
  S   S756      1.0  0.64480  0.38732  0.55361  1.0000
  Fe  Fe382     1.0  0.56944  0.35405  0.64500  1.0000
  S   S757      1.0  0.55271  0.37324  0.64539  1.0000
  S   S758      1.0  0.57850  0.34437  0.62661  1.0000
  Fe  Fe383     1.0  0.57117  0.35028  0.67472  1.0000
  S   S759      1.0  0.55447  0.36916  0.67775  1.0000
  S   S760      1.0  0.58023  0.33572  0.69221  1.0000
  Fe  Fe384     1.0  0.54312  0.36186  0.66604  1.0000
  S   S761      1.0  0.52054  0.36003  0.67393  1.0000
  Fe  Fe385     1.0  0.56562  0.37868  0.65689  1.0000
  S   S762      1.0  0.57034  0.39980  0.65149  1.0000
  S   S763      1.0  0.55898  0.34217  0.66473  1.0000
  S   S764      1.0  0.58320  0.36031  0.65472  1.0000
  H   H2991     1.0  0.60912  0.37862  0.70011  1.0000
  Fe  Fe386     1.0  0.63086  0.41774  0.66680  1.0000
  S   S765      1.0  0.64839  0.40887  0.65111  1.0000
  S   S766      1.0  0.61688  0.40328  0.67939  1.0000
  Fe  Fe387     1.0  0.64362  0.42954  0.63746  1.0000
  H   H2992     1.0  0.33351  0.38703  0.66815  1.0000
  S   S767      1.0  0.64447  0.42528  0.67561  1.0000
  S   S768      1.0  0.62516  0.43807  0.65282  1.0000
  Fe  Fe388     1.0  0.46110  0.35603  0.64232  1.0000
  S   S769      1.0  0.45122  0.34975  0.66459  1.0000
  S   S770      1.0  0.48365  0.35798  0.63424  1.0000
  Fe  Fe389     1.0  0.43350  0.36229  0.63315  1.0000
  S   S771      1.0  0.42151  0.35645  0.65464  1.0000
  S   S772      1.0  0.42173  0.37334  0.61630  1.0000
  Fe  Fe390     1.0  0.43399  0.36790  0.66041  1.0000
  S   S773      1.0  0.42292  0.38113  0.67579  1.0000
  Fe  Fe391     1.0  0.43956  0.33864  0.65703  1.0000
  S   S774      1.0  0.44466  0.37532  0.63878  1.0000
  S   S775      1.0  0.45083  0.34338  0.63484  1.0000
  Fe  Fe392     1.0  0.36448  0.35655  0.59282  1.0000
  S   S776      1.0  0.34563  0.36364  0.60819  1.0000
  S   S777      1.0  0.38432  0.34370  0.59894  1.0000
  Fe  Fe393     1.0  0.34999  0.36788  0.56893  1.0000
  H   H2993     1.0  0.61566  0.38073  0.54929  1.0000
  S   S778      1.0  0.35806  0.36980  0.54578  1.0000
  Fe  Fe394     1.0  0.34233  0.38329  0.59268  1.0000
  C   C1871     1.0  0.34955  0.65154  0.50842  1.0000
  S   S779      1.0  0.36243  0.37690  0.57807  1.0000
  S   S780      1.0  0.35305  0.34711  0.58324  1.0000
  Fe  Fe395     1.0  0.36558  0.44813  0.62539  1.0000
  S   S781      1.0  0.37264  0.43253  0.64314  1.0000
  S   S782      1.0  0.37063  0.43966  0.60610  1.0000
  Fe  Fe396     1.0  0.35854  0.47171  0.64084  1.0000
  S   S783      1.0  0.36516  0.45760  0.65973  1.0000
  Fe  Fe397     1.0  0.38321  0.44818  0.64475  1.0000
  S   S784      1.0  0.40591  0.44267  0.64514  1.0000
  Fe  Fe398     1.0  0.35379  0.44335  0.65620  1.0000
  S   S785      1.0  0.37751  0.46320  0.62608  1.0000
  H   H2994     1.0  0.55100  0.34639  0.62006  1.0000
  C   C1872     1.0  0.35307  0.36414  0.50996  1.0000
  Fe  Fe399     1.0  0.55048  0.64816  0.64875  1.0000
  Fe  Fe400     1.0  0.64067  0.44499  0.65991  1.0000
  C   C1873     1.0  0.64870  0.40963  0.58699  1.0000
  H   H2995     1.0  0.41085  0.51230  0.67124  1.0000
  H   H2996     1.0  0.39326  0.36457  0.57193  1.0000
  H   H2997     1.0  0.58775  0.37355  0.69712  1.0000
  H   H2998     1.0  0.37312  0.61790  0.70518  1.0000
  H   H2999     1.0  0.38684  0.35909  0.69365  1.0000
  H   H3000     1.0  0.57242  0.38050  0.73218  1.0000
  H   H3001     1.0  0.38217  0.33831  0.67155  1.0000
  S   S786      1.0  0.63888  0.43143  0.61683  1.0000
  H   H3002     1.0  0.61933  0.35763  0.68646  1.0000
  H   H3003     1.0  0.35822  0.33527  0.67424  1.0000
  H   H3004     1.0  0.58775  0.38442  0.73429  1.0000
  H   H3005     1.0  0.34352  0.52197  0.64522  1.0000
  H   H3006     1.0  0.37579  0.48575  0.65123  1.0000
  C   C1874     1.0  0.35105  0.36562  0.53378  1.0000
  C   C1875     1.0  0.33782  0.42238  0.61128  1.0000
  C   C1876     1.0  0.65408  0.35494  0.50795  1.0000
  C   C1877     1.0  0.34068  0.35941  0.51374  1.0000
  C   C1878     1.0  0.34335  0.41234  0.60321  1.0000
  H   H3007     1.0  0.61519  0.61687  0.65663  1.0000
  C   C1879     1.0  0.34624  0.43050  0.61259  1.0000
  C   C1880     1.0  0.36006  0.42909  0.60528  1.0000
  C   C1881     1.0  0.36550  0.41927  0.59695  1.0000
  C   C1882     1.0  0.35725  0.41073  0.59612  1.0000
  H   H3008     1.0  0.62596  0.64624  0.49807  1.0000
  C   C1883     1.0  0.65309  0.47969  0.64714  1.0000
  H   H3009     1.0  0.37611  0.41829  0.59108  1.0000
  H   H3010     1.0  0.36157  0.40309  0.58979  1.0000
  H   H3011     1.0  0.64653  0.35057  0.49222  1.0000
  C   C1884     1.0  0.49359  0.65495  0.63662  1.0000
  S   S787      1.0  0.63208  0.34350  0.70950  1.0000
  H   H3012     1.0  0.58522  0.37139  0.54410  1.0000
  H   H3013     1.0  0.40878  0.61815  0.68392  1.0000
  C   C1885     1.0  0.41814  0.39835  0.66750  1.0000
  C   C1886     1.0  0.40458  0.40588  0.67125  1.0000
  C   C1887     1.0  0.40070  0.41958  0.66444  1.0000
  C   C1888     1.0  0.41059  0.42592  0.65435  1.0000
  C   C1889     1.0  0.42426  0.41855  0.65098  1.0000
  C   C1890     1.0  0.42790  0.40466  0.65722  1.0000
  H   H3014     1.0  0.39698  0.40106  0.67921  1.0000
  H   H3015     1.0  0.39011  0.42529  0.66709  1.0000
  H   H3016     1.0  0.43187  0.42343  0.64311  1.0000
  H   H3017     1.0  0.43828  0.39895  0.65403  1.0000
  C   C1891     1.0  0.41084  0.36496  0.61237  1.0000
  C   C1892     1.0  0.40073  0.37279  0.60485  1.0000
  C   C1893     1.0  0.39215  0.36638  0.60120  1.0000
  C   C1894     1.0  0.39397  0.35205  0.60464  1.0000
  C   C1895     1.0  0.40406  0.34422  0.61217  1.0000
  C   C1896     1.0  0.41235  0.35067  0.61621  1.0000
  H   H3018     1.0  0.39957  0.38383  0.60175  1.0000
  H   H3019     1.0  0.38438  0.37251  0.59544  1.0000
  Fe  Fe401     1.0  0.65790  0.64618  0.53545  1.0000
  H   H3020     1.0  0.42016  0.34456  0.62196  1.0000
  H   H3021     1.0  0.53312  0.35246  0.62784  1.0000
  C   C1897     1.0  0.51075  0.35910  0.66267  1.0000
  C   C1898     1.0  0.49958  0.35237  0.66793  1.0000
  C   C1899     1.0  0.49127  0.35182  0.65930  1.0000
  C   C1900     1.0  0.49402  0.35813  0.64535  1.0000
  C   C1901     1.0  0.50526  0.36475  0.64007  1.0000
  C   C1902     1.0  0.51359  0.36527  0.64870  1.0000
  H   H3022     1.0  0.49739  0.34751  0.67873  1.0000
  H   H3023     1.0  0.48277  0.34650  0.66341  1.0000
  H   H3024     1.0  0.50738  0.36971  0.62930  1.0000
  H   H3025     1.0  0.52204  0.37066  0.64461  1.0000
  C   C1903     1.0  0.58361  0.40071  0.65883  1.0000
  C   C1904     1.0  0.59063  0.38889  0.66650  1.0000
  C   C1905     1.0  0.60132  0.38966  0.67219  1.0000
  C   C1906     1.0  0.60485  0.40229  0.67051  1.0000
  C   C1907     1.0  0.59800  0.41410  0.66264  1.0000
  C   C1908     1.0  0.58737  0.41331  0.65681  1.0000
  H   H3026     1.0  0.58775  0.37916  0.66817  1.0000
  H   H3027     1.0  0.60681  0.38045  0.67794  1.0000
  H   H3028     1.0  0.60058  0.42392  0.66138  1.0000
  H   H3029     1.0  0.58195  0.42249  0.65088  1.0000
  C   C1909     1.0  0.59499  0.33790  0.69634  1.0000
  H   H3030     1.0  0.52597  0.33290  0.62458  1.0000
  H   H3031     1.0  0.37593  0.64464  0.68350  1.0000
  C   C1910     1.0  0.61798  0.34113  0.70433  1.0000
  C   C1911     1.0  0.61372  0.34974  0.69251  1.0000
  C   C1912     1.0  0.60227  0.34808  0.68846  1.0000
  C   C1913     1.0  0.51570  0.64855  0.65046  1.0000
  H   H3032     1.0  0.66563  0.41182  0.61564  1.0000
  C   C1914     1.0  0.66021  0.63908  0.72749  1.0000
  H   H3033     1.0  0.59899  0.35473  0.67935  1.0000
  S   S788      1.0  0.34266  0.42911  0.67367  1.0000
  H   H3034     1.0  0.60298  0.35672  0.52882  1.0000
  H   H3035     1.0  0.60900  0.38369  0.71537  1.0000
  S   S789      1.0  0.65881  0.43811  0.64339  1.0000
  H   H3036     1.0  0.61389  0.60541  0.64688  1.0000
  H   H3037     1.0  0.33596  0.32718  0.63778  1.0000
  H   H3038     1.0  0.41060  0.36467  0.56189  1.0000
  H   H3039     1.0  0.42702  0.51763  0.66270  1.0000
  S   S790      1.0  0.66514  0.62108  0.72988  1.0000
  C   C1915     1.0  0.58401  0.37803  0.72948  1.0000
  C   C1916     1.0  0.59907  0.37363  0.59015  1.0000
  C   C1917     1.0  0.58679  0.37879  0.59896  1.0000
  C   C1918     1.0  0.58060  0.36988  0.61041  1.0000
  C   C1919     1.0  0.58643  0.35575  0.61276  1.0000
  C   C1920     1.0  0.59864  0.35061  0.60389  1.0000
  C   C1921     1.0  0.60510  0.35957  0.59277  1.0000
  H   H3040     1.0  0.58211  0.38967  0.59700  1.0000
  H   H3041     1.0  0.57114  0.37392  0.61720  1.0000
  H   H3042     1.0  0.54358  0.32684  0.61597  1.0000
  H   H3043     1.0  0.61464  0.35550  0.58617  1.0000
  S   S791      1.0  0.63614  0.46462  0.66797  1.0000
  H   H3044     1.0  0.66186  0.57139  0.71143  1.0000
  H   H3045     1.0  0.64019  0.64046  0.72344  1.0000
  H   H3046     1.0  0.58812  0.39743  0.69700  1.0000
  C   C1922     1.0  0.64416  0.37740  0.51350  1.0000
  C   C1923     1.0  0.66115  0.36809  0.71042  1.0000
  H   H3047     1.0  0.64365  0.38497  0.51924  1.0000
  C   C1924     1.0  0.64423  0.47875  0.66017  1.0000
  C   C1925     1.0  0.66514  0.60284  0.60319  1.0000
  N   N187      1.0  0.60743  0.36826  0.54112  1.0000
  H   H3048     1.0  0.36134  0.59929  0.49404  1.0000
  H   H3049     1.0  0.64404  0.40925  0.57889  1.0000
  C   C1926     1.0  0.60833  0.35651  0.55296  1.0000
  C   C1927     1.0  0.54308  0.34556  0.62992  1.0000
  H   H3050     1.0  0.58756  0.36704  0.73433  1.0000
  C   C1928     1.0  0.33870  0.36081  0.53760  1.0000
  C   C1929     1.0  0.58439  0.39521  0.70836  1.0000
  H   H3051     1.0  0.58774  0.36068  0.71270  1.0000
  C   C1930     1.0  0.35261  0.60826  0.49221  1.0000
  C   C1931     1.0  0.42238  0.51722  0.68970  1.0000
  H   H3052     1.0  0.61879  0.34947  0.55160  1.0000
  H   H3053     1.0  0.63137  0.32773  0.67745  1.0000
  H   H3054     1.0  0.64487  0.60837  0.70164  1.0000
  H   H3055     1.0  0.39329  0.60170  0.68576  1.0000
  H   H3056     1.0  0.36772  0.37100  0.51682  1.0000
  C   C1932     1.0  0.40031  0.53181  0.68608  1.0000
  H   H3057     1.0  0.37306  0.63113  0.48793  1.0000
  H   H3058     1.0  0.59230  0.38617  0.53454  1.0000
  H   H3059     1.0  0.65729  0.59533  0.73434  1.0000
  Fe  Fe402     1.0  0.65241  0.35266  0.57968  1.0000
  H   H3060     1.0  0.60878  0.36617  0.71595  1.0000
  H   H3061     1.0  0.57536  0.63111  0.57976  1.0000
  H   H3062     1.0  0.63510  0.63835  0.62763  1.0000
  C   C1933     1.0  0.60469  0.37709  0.71136  1.0000
  H   H3063     1.0  0.35865  0.36552  0.49934  1.0000
  N   N188      1.0  0.39837  0.35562  0.55412  1.0000
  S   S792      1.0  0.35110  0.49482  0.63948  1.0000
  C   C1934     1.0  0.53630  0.32641  0.62622  1.0000
  Fe  Fe403     1.0  0.66057  0.53423  0.65012  1.0000
  H   H3064     1.0  0.62905  0.39055  0.50194  1.0000
  H   H3065     1.0  0.63435  0.60237  0.71809  1.0000
  S   S793      1.0  0.34572  0.45806  0.63829  1.0000
  S   S794      1.0  0.58830  0.64925  0.62952  1.0000
  H   H3066     1.0  0.58832  0.40209  0.71238  1.0000
  N   N189      1.0  0.46387  0.38437  0.67609  1.0000
  C   C1935     1.0  0.46252  0.37119  0.68589  1.0000
  C   C1936     1.0  0.47744  0.38747  0.67521  1.0000
  C   C1937     1.0  0.45246  0.39552  0.68087  1.0000
  C   C1938     1.0  0.46299  0.38329  0.66238  1.0000
  H   H3067     1.0  0.45230  0.36865  0.68683  1.0000
  H   H3068     1.0  0.46326  0.37154  0.69634  1.0000
  H   H3069     1.0  0.47082  0.36252  0.68248  1.0000
  H   H3070     1.0  0.47879  0.39732  0.66785  1.0000
  H   H3071     1.0  0.47854  0.38827  0.68539  1.0000
  H   H3072     1.0  0.48627  0.37928  0.67159  1.0000
  H   H3073     1.0  0.44208  0.39339  0.68184  1.0000
  H   H3074     1.0  0.45290  0.40558  0.67356  1.0000
  H   H3075     1.0  0.45286  0.39675  0.69114  1.0000
  H   H3076     1.0  0.47177  0.37550  0.65811  1.0000
  H   H3077     1.0  0.46322  0.39322  0.65482  1.0000
  H   H3078     1.0  0.45329  0.38007  0.66290  1.0000
  C   C1939     1.0  0.64898  0.58760  0.61153  1.0000
  H   H3079     1.0  0.48228  0.65359  0.67616  1.0000
  N   N190      1.0  0.58930  0.38055  0.71441  1.0000
  C   C1940     1.0  0.33958  0.60046  0.68436  1.0000
  C   C1941     1.0  0.65301  0.36446  0.51590  1.0000
  C   C1942     1.0  0.59934  0.32928  0.70808  1.0000
  H   H3080     1.0  0.34743  0.61149  0.50219  1.0000
  H   H3081     1.0  0.37732  0.35885  0.68142  1.0000
  C   C1943     1.0  0.65991  0.49076  0.64166  1.0000
  C   C1944     1.0  0.34247  0.37820  0.64408  1.0000
  N   N191      1.0  0.61145  0.39569  0.61875  1.0000
  C   C1945     1.0  0.60883  0.40799  0.62463  1.0000
  C   C1946     1.0  0.60101  0.38733  0.62647  1.0000
  C   C1947     1.0  0.62556  0.38741  0.61976  1.0000
  C   C1948     1.0  0.61043  0.39998  0.60415  1.0000
  H   H3082     1.0  0.59809  0.41426  0.62450  1.0000
  H   H3083     1.0  0.61629  0.41475  0.61885  1.0000
  H   H3084     1.0  0.60996  0.40509  0.63552  1.0000
  H   H3085     1.0  0.59023  0.39327  0.62591  1.0000
  H   H3086     1.0  0.60265  0.37795  0.62231  1.0000
  H   H3087     1.0  0.60136  0.38398  0.63757  1.0000
  H   H3088     1.0  0.62786  0.37798  0.61552  1.0000
  H   H3089     1.0  0.62673  0.38412  0.63064  1.0000
  H   H3090     1.0  0.63370  0.39339  0.61391  1.0000
  H   H3091     1.0  0.61252  0.39092  0.59941  1.0000
  H   H3092     1.0  0.61808  0.40637  0.59798  1.0000
  H   H3093     1.0  0.59986  0.40609  0.60300  1.0000
  N   N192      1.0  0.40924  0.41536  0.61465  1.0000
  C   C1949     1.0  0.40583  0.43039  0.61384  1.0000
  C   C1950     1.0  0.41428  0.40819  0.62738  1.0000
  C   C1951     1.0  0.42019  0.41206  0.60257  1.0000
  C   C1952     1.0  0.39669  0.41076  0.61482  1.0000
  H   H3094     1.0  0.40155  0.43614  0.60459  1.0000
  H   H3095     1.0  0.41509  0.43425  0.61359  1.0000
  H   H3096     1.0  0.39785  0.43323  0.62294  1.0000
  H   H3097     1.0  0.42388  0.41123  0.62748  1.0000
  H   H3098     1.0  0.40631  0.41060  0.63668  1.0000
  H   H3099     1.0  0.41681  0.39682  0.62843  1.0000
  H   H3100     1.0  0.42293  0.40082  0.60278  1.0000
  H   H3101     1.0  0.42989  0.41521  0.60223  1.0000
  H   H3102     1.0  0.41671  0.41739  0.59280  1.0000
  H   H3103     1.0  0.39877  0.39939  0.61610  1.0000
  H   H3104     1.0  0.39298  0.41548  0.60510  1.0000
  H   H3105     1.0  0.38796  0.41375  0.62337  1.0000
  H   H3106     1.0  0.34531  0.58400  0.49702  1.0000
  S   S795      1.0  0.38280  0.64363  0.52613  1.0000
  S   S796      1.0  0.65903  0.33405  0.59544  1.0000
  C   C1953     1.0  0.38751  0.35485  0.68457  1.0000
  C   C1954     1.0  0.40233  0.35860  0.56562  1.0000
  C   C1955     1.0  0.61079  0.33089  0.71205  1.0000
  C   C1956     1.0  0.38017  0.33438  0.69905  1.0000
  C   C1957     1.0  0.64202  0.48911  0.66752  1.0000
  H   H3107     1.0  0.60325  0.33971  0.60576  1.0000
  C   C1958     1.0  0.58406  0.63638  0.57402  1.0000
  C   C1959     1.0  0.66620  0.63976  0.48884  1.0000
  C   C1960     1.0  0.61775  0.37634  0.54002  1.0000
  C   C1961     1.0  0.65766  0.61056  0.59306  1.0000
  H   H3108     1.0  0.64723  0.50795  0.66791  1.0000
  S   S797      1.0  0.55803  0.64675  0.62652  1.0000
  H   H3109     1.0  0.62112  0.35668  0.52626  1.0000
  C   C1962     1.0  0.39305  0.36868  0.54511  1.0000
  Fe  Fe404     1.0  0.33379  0.35630  0.59722  1.0000
  C   C1963     1.0  0.35463  0.39683  0.63727  1.0000
  H   H3110     1.0  0.36530  0.63298  0.68451  1.0000
  N   N193      1.0  0.54154  0.33120  0.63575  1.0000
  H   H3111     1.0  0.65970  0.46019  0.68198  1.0000
  H   H3112     1.0  0.63521  0.48842  0.67763  1.0000
  C   C1964     1.0  0.35819  0.36724  0.51992  1.0000
  H   H3113     1.0  0.60048  0.35033  0.55433  1.0000
  C   C1965     1.0  0.38739  0.34756  0.55968  1.0000
  C   C1966     1.0  0.59331  0.37712  0.54323  1.0000
  H   H3114     1.0  0.38962  0.36680  0.53652  1.0000
  C   C1967     1.0  0.58564  0.64201  0.59470  1.0000
  H   H3115     1.0  0.61759  0.38512  0.53102  1.0000
  H   H3116     1.0  0.54657  0.34968  0.63706  1.0000
  H   H3117     1.0  0.60584  0.61562  0.57958  1.0000
  C   C1968     1.0  0.33806  0.33902  0.68773  1.0000
  C   C1969     1.0  0.66201  0.40177  0.58797  1.0000
  H   H3118     1.0  0.39080  0.33779  0.56687  1.0000
  H   H3119     1.0  0.38320  0.62991  0.70458  1.0000
  Fe  Fe405     1.0  0.36376  0.65202  0.57477  1.0000
  C   C1970     1.0  0.37597  0.63510  0.68036  1.0000
  C   C1971     1.0  0.53156  0.33049  0.64919  1.0000
  H   H3120     1.0  0.40105  0.37503  0.54058  1.0000
  H   H3121     1.0  0.35466  0.40724  0.63853  1.0000
  C   C1972     1.0  0.34284  0.39042  0.66093  1.0000
  C   C1973     1.0  0.64235  0.32698  0.67784  1.0000
  H   H3122     1.0  0.57282  0.39823  0.71050  1.0000
  C   C1974     1.0  0.63678  0.37092  0.49594  1.0000
  Fe  Fe406     1.0  0.43287  0.65391  0.65892  1.0000
  H   H3123     1.0  0.66143  0.35876  0.70675  1.0000
  S   S798      1.0  0.59594  0.65070  0.66172  1.0000
  N   N194      1.0  0.34237  0.39175  0.64644  1.0000
  Fe  Fe407     1.0  0.45835  0.65461  0.63572  1.0000
  H   H3124     1.0  0.37787  0.63728  0.66893  1.0000
  H   H3125     1.0  0.37794  0.35347  0.56552  1.0000
  H   H3126     1.0  0.60651  0.36008  0.56273  1.0000
  C   C1975     1.0  0.58410  0.37184  0.70849  1.0000
  H   H3127     1.0  0.41302  0.33890  0.68370  1.0000
  H   H3128     1.0  0.60959  0.37172  0.51917  1.0000
  C   C1976     1.0  0.38345  0.62070  0.70075  1.0000
  C   C1977     1.0  0.39201  0.33446  0.67534  1.0000
  C   C1978     1.0  0.35779  0.65117  0.51753  1.0000
  H   H3129     1.0  0.36453  0.38981  0.63942  1.0000
  C   C1979     1.0  0.41065  0.34760  0.54609  1.0000
  Fe  Fe408     1.0  0.57891  0.65052  0.65153  1.0000
  H   H3130     1.0  0.53474  0.33479  0.65642  1.0000
  H   H3131     1.0  0.63881  0.64613  0.51538  1.0000
  H   H3132     1.0  0.39587  0.64373  0.61565  1.0000
  Fe  Fe409     1.0  0.66160  0.56482  0.64065  1.0000
  S   S799      1.0  0.56889  0.63250  0.65564  1.0000
  H   H3133     1.0  0.34191  0.43818  0.61888  1.0000
  H   H3134     1.0  0.61668  0.64216  0.63464  1.0000
  C   C1980     1.0  0.33693  0.59335  0.49531  1.0000
  H   H3135     1.0  0.40060  0.33765  0.66677  1.0000
  Fe  Fe410     1.0  0.57693  0.63250  0.63322  1.0000
  S   S800      1.0  0.58913  0.61458  0.62344  1.0000
  H   H3136     1.0  0.40620  0.34897  0.57275  1.0000
  H   H3137     1.0  0.65423  0.58406  0.69842  1.0000
  S   S801      1.0  0.61252  0.56167  0.66485  1.0000
  C   C1981     1.0  0.61420  0.61623  0.64635  1.0000
  H   H3138     1.0  0.39639  0.53511  0.62119  1.0000
  Fe  Fe411     1.0  0.38816  0.57072  0.66641  1.0000
  S   S802      1.0  0.37483  0.58821  0.65462  1.0000
  S   S803      1.0  0.40341  0.57465  0.67631  1.0000
  Fe  Fe412     1.0  0.37553  0.54896  0.66209  1.0000
  S   S804      1.0  0.36075  0.56459  0.65013  1.0000
  S   S805      1.0  0.38057  0.52572  0.66545  1.0000
  Fe  Fe413     1.0  0.37898  0.57447  0.63976  1.0000
  S   S806      1.0  0.38480  0.58091  0.61678  1.0000
  Fe  Fe414     1.0  0.35771  0.57707  0.66605  1.0000
  H   H3139     1.0  0.43359  0.51372  0.68510  1.0000
  S   S807      1.0  0.39410  0.55798  0.65041  1.0000
  S   S808      1.0  0.37071  0.56053  0.67913  1.0000
  N   N195      1.0  0.65593  0.59201  0.71507  1.0000
  S   S809      1.0  0.38487  0.64377  0.56283  1.0000
  S   S810      1.0  0.35341  0.64152  0.59557  1.0000
  H   H3140     1.0  0.57252  0.37406  0.71067  1.0000
  H   H3141     1.0  0.59248  0.64149  0.60165  1.0000
  C   C1982     1.0  0.61037  0.36311  0.52831  1.0000
  C   C1983     1.0  0.64780  0.41945  0.60633  1.0000
  S   S811      1.0  0.45179  0.63754  0.65309  1.0000
  S   S812      1.0  0.42038  0.64933  0.64658  1.0000
  Fe  Fe415     1.0  0.66168  0.41802  0.65877  1.0000
  H   H3142     1.0  0.38707  0.49803  0.66132  1.0000
  Fe  Fe416     1.0  0.43981  0.63478  0.63891  1.0000
  S   S813      1.0  0.43732  0.61625  0.63289  1.0000
  S   S814      1.0  0.44777  0.65063  0.62104  1.0000
  H   H3143     1.0  0.41281  0.64513  0.60516  1.0000
  N   N196      1.0  0.61464  0.52839  0.64736  1.0000
  C   C1984     1.0  0.35307  0.51677  0.64868  1.0000
  H   H3144     1.0  0.61959  0.54832  0.63916  1.0000
  S   S815      1.0  0.34339  0.62631  0.71236  1.0000
  H   H3145     1.0  0.38712  0.55152  0.62521  1.0000
  C   C1985     1.0  0.61755  0.52726  0.66094  1.0000
  N   N197      1.0  0.40647  0.62676  0.60561  1.0000
  H   H3146     1.0  0.42136  0.61094  0.59612  1.0000
  H   H3147     1.0  0.35186  0.37039  0.64657  1.0000
  C   C1986     1.0  0.35893  0.50303  0.64747  1.0000
  H   H3148     1.0  0.39907  0.53687  0.69474  1.0000
  C   C1987     1.0  0.37151  0.64353  0.51592  1.0000
  C   C1988     1.0  0.37685  0.63621  0.50528  1.0000
  C   C1989     1.0  0.36871  0.63674  0.49610  1.0000
  C   C1990     1.0  0.35507  0.64450  0.49754  1.0000
  H   H3149     1.0  0.66104  0.34496  0.50965  1.0000
  C   C1991     1.0  0.65561  0.58727  0.72997  1.0000
  H   H3150     1.0  0.58967  0.63153  0.56504  1.0000
  H   H3151     1.0  0.40333  0.62876  0.66870  1.0000
  Fe  Fe417     1.0  0.65790  0.38129  0.56959  1.0000
  H   H3152     1.0  0.40110  0.63607  0.68335  1.0000
  H   H3153     1.0  0.66104  0.61944  0.58599  1.0000
  H   H3154     1.0  0.40796  0.34520  0.53734  1.0000
  H   H3155     1.0  0.66392  0.57795  0.73205  1.0000
  C   C1992     1.0  0.41334  0.58587  0.66441  1.0000
  C   C1993     1.0  0.41972  0.59381  0.66893  1.0000
  C   C1994     1.0  0.42688  0.60345  0.65936  1.0000
  C   C1995     1.0  0.42826  0.60460  0.64526  1.0000
  C   C1996     1.0  0.42240  0.59621  0.64080  1.0000
  C   C1997     1.0  0.41464  0.58715  0.65033  1.0000
  H   H3156     1.0  0.41899  0.59262  0.67982  1.0000
  H   H3157     1.0  0.43167  0.60970  0.66284  1.0000
  H   H3158     1.0  0.42383  0.59672  0.62992  1.0000
  H   H3159     1.0  0.40989  0.58097  0.64674  1.0000
  C   C1998     1.0  0.37560  0.59749  0.61082  1.0000
  C   C1999     1.0  0.37890  0.60372  0.59688  1.0000
  C   C2000     1.0  0.37198  0.61718  0.59208  1.0000
  C   C2001     1.0  0.36182  0.62448  0.60122  1.0000
  C   C2002     1.0  0.35840  0.61817  0.61512  1.0000
  C   C2003     1.0  0.36527  0.60469  0.61992  1.0000
  H   H3160     1.0  0.38678  0.59814  0.58978  1.0000
  H   H3161     1.0  0.37432  0.62177  0.58127  1.0000
  H   H3162     1.0  0.38588  0.52295  0.61011  1.0000
  H   H3163     1.0  0.36246  0.59986  0.63064  1.0000
  C   C2004     1.0  0.35000  0.59582  0.69198  1.0000
  C   C2005     1.0  0.35111  0.60382  0.70056  1.0000
  C   C2006     1.0  0.34207  0.61664  0.70125  1.0000
  H   H3164     1.0  0.35693  0.58588  0.69158  1.0000
  H   H3165     1.0  0.35887  0.59997  0.70679  1.0000
  C   C2007     1.0  0.37183  0.51710  0.65884  1.0000
  C   C2008     1.0  0.35949  0.52379  0.65434  1.0000
  H   H3166     1.0  0.60849  0.54441  0.63055  1.0000
  C   C2009     1.0  0.38584  0.54138  0.62451  1.0000
  H   H3167     1.0  0.59132  0.61507  0.59416  1.0000
  H   H3168     1.0  0.35482  0.53430  0.65536  1.0000
  C   C2010     1.0  0.62716  0.52146  0.63859  1.0000
  H   H3169     1.0  0.58088  0.65306  0.59123  1.0000
  C   C2011     1.0  0.35160  0.33154  0.68389  1.0000
  H   H3170     1.0  0.55946  0.32573  0.64478  1.0000
  C   C2012     1.0  0.40462  0.33483  0.69189  1.0000
  C   C2013     1.0  0.50418  0.64230  0.65607  1.0000
  C   C2014     1.0  0.49323  0.64536  0.64912  1.0000
  C   C2015     1.0  0.63599  0.38056  0.50364  1.0000
  H   H3171     1.0  0.62847  0.36985  0.53895  1.0000
  H   H3172     1.0  0.50377  0.63504  0.66583  1.0000
  H   H3173     1.0  0.48448  0.64041  0.65349  1.0000
  C   C2016     1.0  0.59491  0.59953  0.63493  1.0000
  C   C2017     1.0  0.58800  0.59693  0.64874  1.0000
  C   C2018     1.0  0.59330  0.58513  0.65787  1.0000
  C   C2019     1.0  0.60576  0.57620  0.65330  1.0000
  C   C2020     1.0  0.61266  0.57886  0.63949  1.0000
  C   C2021     1.0  0.60704  0.59030  0.63026  1.0000
  H   H3174     1.0  0.57848  0.60388  0.65237  1.0000
  H   H3175     1.0  0.58787  0.58308  0.66853  1.0000
  H   H3176     1.0  0.62223  0.57206  0.63582  1.0000
  H   H3177     1.0  0.61230  0.59218  0.61955  1.0000
  H   H3178     1.0  0.64430  0.33759  0.67476  1.0000
  H   H3179     1.0  0.35568  0.55251  0.61300  1.0000
  H   H3180     1.0  0.63176  0.42523  0.59470  1.0000
  C   C2022     1.0  0.64448  0.64430  0.50531  1.0000
  Fe  Fe418     1.0  0.64347  0.32422  0.72171  1.0000
  H   H3181     1.0  0.42723  0.62659  0.59341  1.0000
  N   N198      1.0  0.39108  0.33963  0.68771  1.0000
  C   C2023     1.0  0.37118  0.49632  0.65212  1.0000
  H   H3182     1.0  0.34320  0.40042  0.66290  1.0000
  C   C2024     1.0  0.63722  0.64435  0.49547  1.0000
  N   N199      1.0  0.37679  0.54300  0.61492  1.0000
  C   C2025     1.0  0.38290  0.55029  0.60113  1.0000
  C   C2026     1.0  0.36283  0.55112  0.61994  1.0000
  C   C2027     1.0  0.37559  0.52927  0.61412  1.0000
  H   H3183     1.0  0.37635  0.55168  0.59362  1.0000
  H   H3184     1.0  0.39350  0.54455  0.59705  1.0000
  H   H3185     1.0  0.38386  0.56072  0.60141  1.0000
  H   H3186     1.0  0.35791  0.54599  0.63036  1.0000
  H   H3187     1.0  0.36848  0.53005  0.60732  1.0000
  C   C2028     1.0  0.39843  0.61697  0.61552  1.0000
  C   C2029     1.0  0.64879  0.50020  0.66202  1.0000
  S   S816      1.0  0.42180  0.65649  0.68047  1.0000
  H   H3188     1.0  0.62644  0.53202  0.65987  1.0000
  C   C2030     1.0  0.60293  0.52176  0.64921  1.0000
  H   H3189     1.0  0.60171  0.54872  0.64726  1.0000
  H   H3190     1.0  0.38908  0.63865  0.59654  1.0000
  H   H3191     1.0  0.39886  0.60808  0.61109  1.0000
  N   N200      1.0  0.38660  0.62340  0.68555  1.0000
  C   C2031     1.0  0.38640  0.61104  0.68097  1.0000
  Fe  Fe419     1.0  0.66191  0.55063  0.67030  1.0000
  H   H3192     1.0  0.39136  0.61206  0.70506  1.0000
  H   H3193     1.0  0.34240  0.37882  0.63316  1.0000
  Fe  Fe420     1.0  0.37585  0.65439  0.54412  1.0000
  C   C2032     1.0  0.65375  0.58099  0.70970  1.0000
  H   H3194     1.0  0.33564  0.33060  0.66102  1.0000
  H   H3195     1.0  0.38378  0.37500  0.55088  1.0000
  H   H3196     1.0  0.59087  0.38114  0.55286  1.0000
  H   H3197     1.0  0.41917  0.35336  0.54176  1.0000
  H   H3198     1.0  0.37946  0.33772  0.70867  1.0000
  C   C2033     1.0  0.40053  0.62675  0.68015  1.0000
  H   H3199     1.0  0.35216  0.38275  0.66373  1.0000
  H   H3200     1.0  0.42179  0.52159  0.69867  1.0000
  S   S817      1.0  0.64868  0.56995  0.66066  1.0000
  H   H3201     1.0  0.63869  0.60029  0.63676  1.0000
  C   C2034     1.0  0.59955  0.62084  0.58813  1.0000
  C   C2035     1.0  0.41602  0.52124  0.66784  1.0000
  H   H3202     1.0  0.60540  0.51066  0.65422  1.0000
  H   H3203     1.0  0.43279  0.53673  0.66950  1.0000
  H   H3204     1.0  0.36340  0.56157  0.62060  1.0000
  H   H3205     1.0  0.64123  0.61030  0.64733  1.0000
  H   H3206     1.0  0.59333  0.52677  0.65579  1.0000
  C   C2036     1.0  0.64484  0.60446  0.71279  1.0000
  H   H3207     1.0  0.38410  0.34506  0.55133  1.0000
  C   C2037     1.0  0.63899  0.61088  0.63721  1.0000
  H   H3208     1.0  0.38744  0.63023  0.50402  1.0000
  H   H3209     1.0  0.63254  0.59221  0.60050  1.0000
  H   H3210     1.0  0.39959  0.62479  0.58841  1.0000
  H   H3211     1.0  0.60662  0.61981  0.59505  1.0000
  H   H3212     1.0  0.35042  0.62370  0.62221  1.0000
  H   H3213     1.0  0.42630  0.61501  0.60980  1.0000
  H   H3214     1.0  0.40589  0.64012  0.58575  1.0000
  H   H3215     1.0  0.61112  0.63771  0.56620  1.0000
  H   H3216     1.0  0.36973  0.33820  0.69643  1.0000
  C   C2038     1.0  0.39997  0.63286  0.59357  1.0000
  C   C2039     1.0  0.42096  0.61948  0.60103  1.0000
  Fe  Fe421     1.0  0.63584  0.55604  0.65937  1.0000
  C   C2040     1.0  0.64594  0.35812  0.49803  1.0000
  H   H3217     1.0  0.41483  0.33766  0.55261  1.0000
  H   H3218     1.0  0.63175  0.62431  0.61316  1.0000
  H   H3219     1.0  0.62999  0.51026  0.64305  1.0000
  H   H3220     1.0  0.37137  0.52336  0.62442  1.0000
  H   H3221     1.0  0.38140  0.53618  0.63508  1.0000
  H   H3222     1.0  0.60046  0.52239  0.63917  1.0000
  S   S818      1.0  0.63629  0.61632  0.57959  1.0000
  S   S819      1.0  0.64763  0.55244  0.63847  1.0000
  H   H3223     1.0  0.64794  0.61386  0.62901  1.0000
  S   S820      1.0  0.64776  0.53697  0.67101  1.0000
  H   H3224     1.0  0.40252  0.61274  0.62508  1.0000
  C   C2041     1.0  0.64158  0.59524  0.60130  1.0000
  C   C2042     1.0  0.62658  0.63459  0.63588  1.0000
  N   N201      1.0  0.59352  0.63546  0.58296  1.0000
  H   H3225     1.0  0.57710  0.63677  0.60102  1.0000
  N   N202      1.0  0.62575  0.62067  0.63530  1.0000
  H   H3226     1.0  0.66643  0.35920  0.59521  1.0000
  Fe  Fe422     1.0  0.64554  0.63379  0.56538  1.0000
  H   H3227     1.0  0.40549  0.33312  0.61486  1.0000
  C   C2043     1.0  0.66088  0.41113  0.60774  1.0000
  H   H3228     1.0  0.62018  0.51634  0.66635  1.0000
  H   H3229     1.0  0.61217  0.64213  0.58145  1.0000
  H   H3230     1.0  0.64555  0.57879  0.61862  1.0000
  H   H3231     1.0  0.60846  0.53270  0.66773  1.0000
  C   C2044     1.0  0.40657  0.63776  0.61229  1.0000
  H   H3232     1.0  0.38725  0.62195  0.61852  1.0000
  H   H3233     1.0  0.39501  0.52296  0.69005  1.0000
  C   C2045     1.0  0.42159  0.53957  0.67447  1.0000
  H   H3234     1.0  0.37579  0.60889  0.68381  1.0000
  H   H3235     1.0  0.42084  0.54469  0.68297  1.0000
  H   H3236     1.0  0.41135  0.63346  0.62147  1.0000
  C   C2046     1.0  0.64591  0.60672  0.59206  1.0000
  H   H3237     1.0  0.39454  0.53926  0.67855  1.0000
  H   H3238     1.0  0.62554  0.52249  0.62809  1.0000
  C   C2047     1.0  0.61092  0.54308  0.64076  1.0000
  H   H3239     1.0  0.61329  0.62810  0.61996  1.0000
  H   H3240     1.0  0.40428  0.33826  0.70135  1.0000
  H   H3241     1.0  0.63637  0.52585  0.63740  1.0000
  H   H3242     1.0  0.38992  0.61219  0.66960  1.0000
  H   H3243     1.0  0.41067  0.52873  0.65993  1.0000
  H   H3244     1.0  0.60391  0.62276  0.64471  1.0000
  C   C2048     1.0  0.62326  0.62098  0.62175  1.0000
  C   C2049     1.0  0.37758  0.50332  0.65781  1.0000
  H   H3245     1.0  0.62842  0.63477  0.64598  1.0000
  H   H3246     1.0  0.41634  0.54751  0.66676  1.0000
  H   H3247     1.0  0.62262  0.61065  0.62095  1.0000
  N   N203      1.0  0.41510  0.52746  0.67952  1.0000
  H   H3248     1.0  0.41771  0.50796  0.69369  1.0000
  H   H3249     1.0  0.35472  0.39772  0.62627  1.0000
  C   C2050     1.0  0.65901  0.64212  0.50200  1.0000
  H   H3250     1.0  0.64623  0.61293  0.71679  1.0000
  H   H3251     1.0  0.57936  0.64730  0.56996  1.0000
  C   C2051     1.0  0.60486  0.64258  0.57499  1.0000
  C   C2052     1.0  0.64733  0.64614  0.72423  1.0000
  H   H3252     1.0  0.39711  0.65324  0.49464  1.0000
  H   H3253     1.0  0.65465  0.36717  0.72106  1.0000
  C   C2053     1.0  0.65782  0.50103  0.64909  1.0000
  H   H3254     1.0  0.65476  0.47186  0.64131  1.0000
  H   H3255     1.0  0.52096  0.33644  0.64801  1.0000
  H   H3256     1.0  0.60075  0.65362  0.57076  1.0000
  H   H3257     1.0  0.64543  0.58470  0.73579  1.0000
  H   H3258     1.0  0.64345  0.57831  0.71477  1.0000
  S   S821      1.0  0.64632  0.65158  0.57355  1.0000
  S   S822      1.0  0.33729  0.59007  0.67452  1.0000
  H   H3259     1.0  0.65308  0.33384  0.65065  1.0000
  H   H3260     1.0  0.39551  0.35918  0.67605  1.0000
  C   C2054     1.0  0.64176  0.41865  0.59596  1.0000
  S   S823      1.0  0.66334  0.36021  0.52823  1.0000
  H   H3261     1.0  0.61376  0.32444  0.72134  1.0000
  H   H3262     1.0  0.65573  0.37716  0.70376  1.0000
  S   S824      1.0  0.33375  0.35563  0.50143  1.0000
  C   C2055     1.0  0.33354  0.35775  0.52762  1.0000
  H   H3263     1.0  0.35359  0.65688  0.52568  1.0000
  H   H3264     1.0  0.64009  0.32404  0.65342  1.0000
  H   H3265     1.0  0.35852  0.71398  0.22311  1.0000
  C   C2056     1.0  0.36610  0.71711  0.22651  1.0000
  H   H3266     1.0  0.39666  0.86131  0.99247  1.0000
  C   C2057     1.0  0.37095  0.72898  0.21911  1.0000
  S   S825      1.0  0.61818  0.81429  0.23131  1.0000
  C   C2058     1.0  0.38074  0.73308  0.22349  1.0000
  H   H3267     1.0  0.65188  0.88144  0.99279  1.0000
  H   H3268     1.0  0.38500  0.95526  0.14544  1.0000
  H   H3269     1.0  0.39879  0.84337  0.99264  1.0000
  H   H3270     1.0  0.36842  0.76129  0.09214  1.0000
  Fe  Fe423     1.0  0.36790  0.93969  0.13987  1.0000
  S   S826      1.0  0.37378  0.95370  0.11959  1.0000
  S   S827      1.0  0.38170  0.92729  0.15438  1.0000
  Fe  Fe424     1.0  0.35313  0.96751  0.12623  1.0000
  Fe  Fe425     1.0  0.36174  0.94327  0.11182  1.0000
  H   H3271     1.0  0.35261  0.76793  0.16958  1.0000
  S   S828      1.0  0.34816  0.95414  0.14718  1.0000
  S   S829      1.0  0.35791  0.92796  0.13148  1.0000
  Fe  Fe426     1.0  0.35172  0.87740  0.07471  1.0000
  S   S830      1.0  0.36524  0.86019  0.08640  1.0000
  H   H3272     1.0  0.45918  0.81645  0.20504  1.0000
  Fe  Fe427     1.0  0.36088  0.86521  0.04888  1.0000
  S   S831      1.0  0.37555  0.84671  0.05848  1.0000
  Fe  Fe428     1.0  0.35795  0.84660  0.07734  1.0000
  S   S832      1.0  0.35094  0.82905  0.09371  1.0000
  Fe  Fe429     1.0  0.38158  0.86172  0.06700  1.0000
  S   S833      1.0  0.40276  0.86429  0.06717  1.0000
  H   H3273     1.0  0.35764  0.78455  0.11708  1.0000
  S   S834      1.0  0.36854  0.88013  0.05588  1.0000
  Fe  Fe430     1.0  0.46063  0.84629  0.14065  1.0000
  S   S835      1.0  0.44598  0.86286  0.15115  1.0000
  S   S836      1.0  0.48264  0.83712  0.14430  1.0000
  Fe  Fe431     1.0  0.43787  0.84272  0.12812  1.0000
  S   S837      1.0  0.42190  0.85912  0.13750  1.0000
  S   S838      1.0  0.42906  0.83071  0.11843  1.0000
  Fe  Fe432     1.0  0.43895  0.87074  0.13113  1.0000
  S   S839      1.0  0.43439  0.89293  0.12055  1.0000
  Fe  Fe433     1.0  0.43040  0.84946  0.15644  1.0000
  S   S840      1.0  0.41493  0.84571  0.17652  1.0000
  S   S841      1.0  0.45458  0.85507  0.12008  1.0000
  S   S842      1.0  0.44545  0.83224  0.14754  1.0000
  Fe  Fe434     1.0  0.65225  0.92060  0.17013  1.0000
  S   S843      1.0  0.63617  0.94026  0.16874  1.0000
  H   H3274     1.0  0.33535  0.76446  0.23004  1.0000
  H   H3275     1.0  0.34313  0.82578  0.06979  1.0000
  S   S844      1.0  0.34576  0.77617  0.19649  1.0000
  Fe  Fe435     1.0  0.62509  0.92940  0.16034  1.0000
  S   S845      1.0  0.60220  0.93103  0.16912  1.0000
  H   H3276     1.0  0.35267  0.98244  0.15085  1.0000
  S   S846      1.0  0.64007  0.90923  0.16380  1.0000
  Fe  Fe436     1.0  0.54107  0.86738  0.15971  1.0000
  S   S847      1.0  0.55331  0.84792  0.17068  1.0000
  S   S848      1.0  0.51954  0.87258  0.15480  1.0000
  Fe  Fe437     1.0  0.56365  0.88347  0.15528  1.0000
  S   S849      1.0  0.57759  0.86558  0.16594  1.0000
  S   S850      1.0  0.57110  0.90263  0.14284  1.0000
  Fe  Fe438     1.0  0.57192  0.85307  0.15452  1.0000
  S   S851      1.0  0.59058  0.83790  0.14605  1.0000
  Fe  Fe439     1.0  0.55820  0.86181  0.18142  1.0000
  S   S852      1.0  0.55900  0.85356  0.20377  1.0000
  S   S853      1.0  0.55944  0.87124  0.14245  1.0000
  S   S854      1.0  0.54449  0.88099  0.17184  1.0000
  Fe  Fe440     1.0  0.64602  0.86819  0.04510  1.0000
  S   S855      1.0  0.64245  0.84756  0.05768  1.0000
  H   H3277     1.0  0.61409  0.96796  0.17437  1.0000
  Fe  Fe441     1.0  0.64428  0.87936  0.07049  1.0000
  S   S856      1.0  0.64083  0.85966  0.08513  1.0000
  H   H3278     1.0  0.34585  0.74761  0.22913  1.0000
  C   C2059     1.0  0.65482  0.89919  0.11599  1.0000
  Fe  Fe442     1.0  0.62636  0.85950  0.07232  1.0000
  S   S857      1.0  0.60440  0.85689  0.08150  1.0000
  H   H3279     1.0  0.62448  0.86825  0.11185  1.0000
  S   S858      1.0  0.62855  0.87998  0.05874  1.0000
  C   C2060     1.0  0.64755  0.98050  0.14640  1.0000
  H   H3280     1.0  0.36083  0.90199  0.18678  1.0000
  Fe  Fe443     1.0  0.38178  0.78316  0.19387  1.0000
  S   S859      1.0  0.37855  0.77113  0.18017  1.0000
  S   S860      1.0  0.40365  0.78555  0.19128  1.0000
  Fe  Fe444     1.0  0.35166  0.78747  0.20898  1.0000
  H   H3281     1.0  0.66197  0.83306  0.10528  1.0000
  H   H3282     1.0  0.37434  0.65835  0.21809  1.0000
  Fe  Fe445     1.0  0.36555  0.76087  0.19931  1.0000
  H   H3283     1.0  0.34551  0.92698  0.04603  1.0000
  Fe  Fe446     1.0  0.35918  0.78745  0.17856  1.0000
  Fe  Fe447     1.0  0.33838  0.94345  0.13710  1.0000
  S   S861      1.0  0.37051  0.77131  0.21326  1.0000
  S   S862      1.0  0.36330  0.80042  0.19076  1.0000
  H   H3284     1.0  0.37778  0.91626  0.07433  1.0000
  H   H3285     1.0  0.34541  0.90337  0.20028  1.0000
  H   H3286     1.0  0.40654  0.88698  0.12418  1.0000
  H   H3287     1.0  0.33836  0.93551  0.17414  1.0000
  H   H3288     1.0  0.62261  0.96712  0.14960  1.0000
  S   S863      1.0  0.61435  0.85459  0.21955  1.0000
  C   C2061     1.0  0.63402  0.91029  0.02401  1.0000
  Fe  Fe448     1.0  0.63857  0.80594  0.21827  1.0000
  S   S864      1.0  0.63761  0.79437  0.20305  1.0000
  S   S865      1.0  0.64602  0.82560  0.21223  1.0000
  H   H3289     1.0  0.44206  0.84458  0.19348  1.0000
  H   H3290     1.0  0.65375  0.82945  0.99350  1.0000
  C   C2062     1.0  0.39231  0.98714  0.13618  1.0000
  H   H3291     1.0  0.38192  0.85451  0.99358  1.0000
  H   H3292     1.0  0.61875  0.82093  0.19674  1.0000
  C   C2063     1.0  0.65033  0.81194  0.11790  1.0000
  H   H3293     1.0  0.39187  0.87907  0.13096  1.0000
  H   H3294     1.0  0.65232  0.88535  0.20545  1.0000
  H   H3295     1.0  0.41185  0.87941  0.10250  1.0000
  H   H3296     1.0  0.66104  0.85268  0.19323  1.0000
  H   H3297     1.0  0.39764  0.87071  0.10894  1.0000
  H   H3298     1.0  0.64782  0.81940  0.14177  1.0000
  H   H3299     1.0  0.39501  0.79719  0.16592  1.0000
  N   N204      1.0  0.60788  0.88495  0.11758  1.0000
  C   C2064     1.0  0.59897  0.89722  0.11071  1.0000
  C   C2065     1.0  0.61589  0.88929  0.12506  1.0000
  C   C2066     1.0  0.38558  0.72534  0.23535  1.0000
  H   H3300     1.0  0.46095  0.83288  0.20636  1.0000
  H   H3301     1.0  0.66144  0.90578  0.03869  1.0000
  H   H3302     1.0  0.33891  0.85729  0.11333  1.0000
  C   C2067     1.0  0.64823  0.92652  0.02133  1.0000
  C   C2068     1.0  0.65444  0.88707  0.09877  1.0000
  H   H3303     1.0  0.37407  0.76732  0.10411  1.0000
  H   H3304     1.0  0.35509  0.68931  0.23248  1.0000
  C   C2069     1.0  0.64344  0.86856  0.01170  1.0000
  H   H3305     1.0  0.62501  0.91869  0.02164  1.0000
  Fe  Fe449     1.0  0.65497  0.81763  0.23114  1.0000
  C   C2070     1.0  0.63454  0.91847  0.04371  1.0000
  C   C2071     1.0  0.63125  0.85251  0.00901  1.0000
  C   C2072     1.0  0.63600  0.85809  0.01750  1.0000
  H   H3306     1.0  0.62983  0.90127  0.03075  1.0000
  H   H3307     1.0  0.34262  0.91990  0.15845  1.0000
  H   H3308     1.0  0.62544  0.84446  0.01358  1.0000
  H   H3309     1.0  0.63385  0.85433  0.02853  1.0000
  C   C2073     1.0  0.59443  0.84225  0.12805  1.0000
  C   C2074     1.0  0.60827  0.83965  0.12077  1.0000
  C   C2075     1.0  0.61145  0.84396  0.10640  1.0000
  C   C2076     1.0  0.60078  0.85077  0.09934  1.0000
  C   C2077     1.0  0.58693  0.85304  0.10662  1.0000
  C   C2078     1.0  0.58378  0.84885  0.12097  1.0000
  H   H3310     1.0  0.61650  0.83449  0.12626  1.0000
  H   H3311     1.0  0.62211  0.84184  0.10077  1.0000
  H   H3312     1.0  0.57869  0.85816  0.10112  1.0000
  H   H3313     1.0  0.57310  0.85058  0.12655  1.0000
  C   C2079     1.0  0.57407  0.85443  0.20833  1.0000
  C   C2080     1.0  0.58179  0.86437  0.20085  1.0000
  C   C2081     1.0  0.59403  0.86456  0.20450  1.0000
  C   C2082     1.0  0.59873  0.85463  0.21541  1.0000
  C   C2083     1.0  0.59093  0.84478  0.22294  1.0000
  C   C2084     1.0  0.57855  0.84478  0.21951  1.0000
  H   H3314     1.0  0.57821  0.87207  0.19242  1.0000
  H   H3315     1.0  0.59991  0.87235  0.19875  1.0000
  H   H3316     1.0  0.35922  0.91138  0.16256  1.0000
  H   H3317     1.0  0.57255  0.83712  0.22534  1.0000
  H   H3318     1.0  0.64825  0.86604  0.22579  1.0000
  H   H3319     1.0  0.38979  0.89714  0.13028  1.0000
  C   C2085     1.0  0.44617  0.83643  0.18730  1.0000
  S   S866      1.0  0.36430  0.73861  0.20468  1.0000
  H   H3320     1.0  0.58508  0.97625  0.14862  1.0000
  C   C2086     1.0  0.65856  0.88718  0.11068  1.0000
  H   H3321     1.0  0.39828  0.81047  0.12830  1.0000
  C   C2087     1.0  0.35611  0.86509  0.01544  1.0000
  S   S867      1.0  0.34289  0.86381  0.06721  1.0000
  H   H3322     1.0  0.35369  0.76107  0.12283  1.0000
  C   C2088     1.0  0.59454  0.92213  0.16185  1.0000
  C   C2089     1.0  0.58581  0.91341  0.17038  1.0000
  C   C2090     1.0  0.57895  0.90695  0.16463  1.0000
  C   C2091     1.0  0.58036  0.90966  0.15036  1.0000
  C   C2092     1.0  0.58907  0.91842  0.14185  1.0000
  C   C2093     1.0  0.59637  0.92441  0.14756  1.0000
  H   H3323     1.0  0.58432  0.91168  0.18144  1.0000
  H   H3324     1.0  0.57218  0.90027  0.17125  1.0000
  H   H3325     1.0  0.59007  0.92070  0.13082  1.0000
  H   H3326     1.0  0.60298  0.93124  0.14094  1.0000
  H   H3327     1.0  0.65105  0.83727  0.12095  1.0000
  C   C2094     1.0  0.64138  0.86778  0.98888  1.0000
  N   N205      1.0  0.34211  0.91345  0.17998  1.0000
  H   H3328     1.0  0.62291  0.88033  0.13019  1.0000
  H   H3329     1.0  0.40291  0.95776  0.12367  1.0000
  H   H3330     1.0  0.61049  0.97103  0.13869  1.0000
  H   H3331     1.0  0.41614  0.96926  0.14047  1.0000
  C   C2095     1.0  0.49264  0.84695  0.14768  1.0000
  C   C2096     1.0  0.48791  0.86109  0.14706  1.0000
  C   C2097     1.0  0.49612  0.86864  0.14973  1.0000
  C   C2098     1.0  0.50913  0.86217  0.15307  1.0000
  C   C2099     1.0  0.51377  0.84796  0.15396  1.0000
  C   C2100     1.0  0.50556  0.84040  0.15122  1.0000
  H   H3332     1.0  0.47799  0.86626  0.14435  1.0000
  H   H3333     1.0  0.49245  0.87963  0.14900  1.0000
  H   H3334     1.0  0.52372  0.84284  0.15660  1.0000
  H   H3335     1.0  0.50926  0.82944  0.15180  1.0000
  C   C2101     1.0  0.40651  0.80232  0.18761  1.0000
  C   C2102     1.0  0.42003  0.80445  0.18178  1.0000
  C   C2103     1.0  0.42262  0.81774  0.17834  1.0000
  C   C2104     1.0  0.41174  0.82899  0.18087  1.0000
  C   C2105     1.0  0.39826  0.82684  0.18700  1.0000
  C   C2106     1.0  0.39561  0.81353  0.19026  1.0000
  H   H3336     1.0  0.42850  0.79579  0.17980  1.0000
  H   H3337     1.0  0.43310  0.81921  0.17396  1.0000
  H   H3338     1.0  0.38983  0.83548  0.18915  1.0000
  H   H3339     1.0  0.38521  0.81193  0.19504  1.0000
  C   C2107     1.0  0.35555  0.84403  0.00939  1.0000
  C   C2108     1.0  0.35683  0.85089  0.01897  1.0000
  H   H3340     1.0  0.41022  0.97287  0.11777  1.0000
  H   H3341     1.0  0.35830  0.84521  0.02910  1.0000
  C   C2109     1.0  0.40983  0.85498  0.08156  1.0000
  C   C2110     1.0  0.42068  0.85901  0.08434  1.0000
  C   C2111     1.0  0.42638  0.85185  0.09587  1.0000
  C   C2112     1.0  0.42163  0.84028  0.10433  1.0000
  C   C2113     1.0  0.41096  0.83610  0.10140  1.0000
  C   C2114     1.0  0.40487  0.84359  0.09021  1.0000
  H   H3342     1.0  0.42463  0.86775  0.07760  1.0000
  H   H3343     1.0  0.43472  0.85505  0.09797  1.0000
  H   H3344     1.0  0.40746  0.82700  0.10773  1.0000
  H   H3345     1.0  0.39662  0.84032  0.08802  1.0000
  C   C2115     1.0  0.36348  0.68221  0.22669  1.0000
  C   C2116     1.0  0.66131  0.80143  0.18508  1.0000
  Fe  Fe450     1.0  0.65151  0.91638  0.14229  1.0000
  C   C2117     1.0  0.33934  0.76285  0.15950  1.0000
  C   C2118     1.0  0.60153  0.98806  0.15640  1.0000
  H   H3346     1.0  0.37978  0.81310  0.13511  1.0000
  C   C2119     1.0  0.39681  0.91800  0.14526  1.0000
  C   C2120     1.0  0.40182  0.92311  0.13132  1.0000
  C   C2121     1.0  0.41372  0.91560  0.12394  1.0000
  C   C2122     1.0  0.42044  0.90276  0.13037  1.0000
  C   C2123     1.0  0.41540  0.89756  0.14431  1.0000
  C   C2124     1.0  0.40369  0.90528  0.15180  1.0000
  H   H3347     1.0  0.39663  0.93290  0.12620  1.0000
  H   H3348     1.0  0.41756  0.91960  0.11314  1.0000
  H   H3349     1.0  0.42050  0.88759  0.14931  1.0000
  H   H3350     1.0  0.39983  0.90126  0.16258  1.0000
  H   H3351     1.0  0.64426  0.77831  0.18270  1.0000
  C   C2125     1.0  0.64285  0.91103  0.09735  1.0000
  H   H3352     1.0  0.35605  0.83306  0.01221  1.0000
  N   N206      1.0  0.35249  0.77512  0.10334  1.0000
  C   C2126     1.0  0.36050  0.90628  0.07929  1.0000
  C   C2127     1.0  0.36752  0.91563  0.08067  1.0000
  H   H3353     1.0  0.44031  0.82809  0.19227  1.0000
  H   H3354     1.0  0.47588  0.82112  0.19900  1.0000
  H   H3355     1.0  0.36544  0.89975  0.07195  1.0000
  C   C2128     1.0  0.34404  0.92682  0.18098  1.0000
  N   N207      1.0  0.46135  0.83124  0.18593  1.0000
  N   N208      1.0  0.53593  0.86521  0.11385  1.0000
  C   C2129     1.0  0.53980  0.85997  0.10101  1.0000
  C   C2130     1.0  0.54335  0.87624  0.11214  1.0000
  C   C2131     1.0  0.53985  0.85384  0.12523  1.0000
  C   C2132     1.0  0.52074  0.87080  0.11706  1.0000
  H   H3356     1.0  0.53434  0.85163  0.10202  1.0000
  H   H3357     1.0  0.55121  0.85569  0.09827  1.0000
  H   H3358     1.0  0.53700  0.86826  0.09217  1.0000
  H   H3359     1.0  0.54043  0.88054  0.12163  1.0000
  H   H3360     1.0  0.55485  0.87236  0.11001  1.0000
  H   H3361     1.0  0.54080  0.88492  0.10352  1.0000
  H   H3362     1.0  0.53775  0.85756  0.13493  1.0000
  H   H3363     1.0  0.55112  0.84896  0.12288  1.0000
  H   H3364     1.0  0.53389  0.84565  0.12735  1.0000
  H   H3365     1.0  0.51763  0.87566  0.12617  1.0000
  H   H3366     1.0  0.51472  0.86260  0.11942  1.0000
  H   H3367     1.0  0.51727  0.87885  0.10837  1.0000
  N   N209      1.0  0.60373  0.82470  0.18432  1.0000
  C   C2133     1.0  0.60768  0.82067  0.19782  1.0000
  C   C2134     1.0  0.58881  0.82481  0.18630  1.0000
  C   C2135     1.0  0.61223  0.81474  0.17569  1.0000
  C   C2136     1.0  0.60623  0.83860  0.17747  1.0000
  H   H3368     1.0  0.60553  0.86604  0.13223  1.0000
  H   H3369     1.0  0.60641  0.81003  0.20313  1.0000
  H   H3370     1.0  0.60121  0.82772  0.20471  1.0000
  H   H3371     1.0  0.58549  0.82780  0.17629  1.0000
  H   H3372     1.0  0.58648  0.81453  0.19155  1.0000
  H   H3373     1.0  0.58209  0.83231  0.19268  1.0000
  H   H3374     1.0  0.62356  0.81426  0.17419  1.0000
  H   H3375     1.0  0.60956  0.81752  0.16537  1.0000
  H   H3376     1.0  0.61054  0.80415  0.18058  1.0000
  H   H3377     1.0  0.60345  0.84192  0.16719  1.0000
  H   H3378     1.0  0.61733  0.83898  0.17597  1.0000
  H   H3379     1.0  0.59984  0.84637  0.18367  1.0000
  H   H3380     1.0  0.37506  0.89491  0.10149  1.0000
  H   H3381     1.0  0.65756  0.87782  0.09465  1.0000
  H   H3382     1.0  0.33668  0.91456  0.13611  1.0000
  H   H3383     1.0  0.46525  0.85092  0.18536  1.0000
  C   C2137     1.0  0.66596  0.95088  0.17313  1.0000
  H   H3384     1.0  0.35524  0.92740  0.17780  1.0000
  C   C2138     1.0  0.65814  0.81331  0.13752  1.0000
  C   C2139     1.0  0.34828  0.92293  0.09871  1.0000
  S   S868      1.0  0.37094  0.93479  0.09262  1.0000
  C   C2140     1.0  0.60382  0.96692  0.17352  1.0000
  H   H3385     1.0  0.62251  0.89637  0.11798  1.0000
  C   C2141     1.0  0.33614  0.82177  0.07903  1.0000
  H   H3386     1.0  0.58686  0.96063  0.16145  1.0000
  H   H3387     1.0  0.61186  0.95529  0.15134  1.0000
  C   C2142     1.0  0.35361  0.85127  0.99619  1.0000
  H   H3388     1.0  0.39443  0.90792  0.09249  1.0000
  S   S869      1.0  0.35275  0.79671  0.15834  1.0000
  N   N210      1.0  0.39554  0.97208  0.13722  1.0000
  H   H3389     1.0  0.44350  0.84100  0.17706  1.0000
  H   H3390     1.0  0.40252  0.79295  0.14936  1.0000
  H   H3391     1.0  0.62429  0.88423  0.09951  1.0000
  H   H3392     1.0  0.33718  0.88961  0.14190  1.0000
  H   H3393     1.0  0.64389  0.92039  0.11337  1.0000
  H   H3394     1.0  0.35491  0.79580  0.10098  1.0000
  C   C2143     1.0  0.34715  0.90556  0.08726  1.0000
  H   H3395     1.0  0.37097  0.77861  0.08816  1.0000
  H   H3396     1.0  0.37466  0.97104  0.13795  1.0000
  H   H3397     1.0  0.40898  0.95405  0.14637  1.0000
  C   C2144     1.0  0.61201  0.96638  0.14936  1.0000
  S   S870      1.0  0.65227  0.96673  0.13763  1.0000
  C   C2145     1.0  0.66280  0.78337  0.16846  1.0000
  C   C2146     1.0  0.34788  0.91145  0.16573  1.0000
  S   S871      1.0  0.64945  0.87601  0.02198  1.0000
  H   H3398     1.0  0.59214  0.88071  0.13581  1.0000
  H   H3399     1.0  0.60530  0.90436  0.10324  1.0000
  H   H3400     1.0  0.63975  0.81803  0.12147  1.0000
  H   H3401     1.0  0.65658  0.84869  0.22399  1.0000
  H   H3402     1.0  0.37365  0.88405  0.11824  1.0000
  S   S872      1.0  0.63546  0.93595  0.13823  1.0000
  H   H3403     1.0  0.60380  0.95572  0.17618  1.0000
  C   C2147     1.0  0.39339  0.79927  0.15527  1.0000
  H   H3404     1.0  0.38398  0.79547  0.15585  1.0000
  H   H3405     1.0  0.34321  0.90556  0.02291  1.0000
  H   H3406     1.0  0.38129  0.82049  0.16793  1.0000
  H   H3407     1.0  0.40388  0.82970  0.14317  1.0000
  S   S873      1.0  0.64183  0.89947  0.07668  1.0000
  C   C2148     1.0  0.33695  0.78996  0.14454  1.0000
  H   H3408     1.0  0.33601  0.80046  0.13873  1.0000
  S   S874      1.0  0.34143  0.95817  0.11665  1.0000
  C   C2149     1.0  0.36715  0.77035  0.09664  1.0000
  C   C2150     1.0  0.34103  0.91393  0.09695  1.0000
  C   C2151     1.0  0.64099  0.97893  0.16035  1.0000
  C   C2152     1.0  0.61755  0.87757  0.10710  1.0000
  C   C2153     1.0  0.37736  0.89339  0.11178  1.0000
  H   H3409     1.0  0.40665  0.81714  0.15851  1.0000
  H   H3410     1.0  0.66209  0.95380  0.16344  1.0000
  H   H3411     1.0  0.37286  0.68683  0.22306  1.0000
  S   S875      1.0  0.35771  0.87427  0.02699  1.0000
  H   H3412     1.0  0.61182  0.87420  0.10123  1.0000
  H   H3413     1.0  0.47767  0.81678  0.17577  1.0000
  C   C2154     1.0  0.46618  0.82064  0.17745  1.0000
  N   N211      1.0  0.39180  0.81407  0.14889  1.0000
  C   C2155     1.0  0.37978  0.82199  0.15731  1.0000
  C   C2156     1.0  0.40459  0.81861  0.14811  1.0000
  H   H3414     1.0  0.36997  0.81869  0.15820  1.0000
  H   H3415     1.0  0.66478  0.88183  0.19017  1.0000
  H   H3416     1.0  0.59277  0.89433  0.10497  1.0000
  Fe  Fe451     1.0  0.64782  0.94539  0.14700  1.0000
  H   H3417     1.0  0.62560  0.92723  0.04205  1.0000
  H   H3418     1.0  0.37821  0.83321  0.15279  1.0000
  H   H3419     1.0  0.41391  0.81274  0.14196  1.0000
  H   H3420     1.0  0.34638  0.90161  0.16442  1.0000
  C   C2157     1.0  0.34499  0.78530  0.15456  1.0000
  H   H3421     1.0  0.48005  0.83918  0.17772  1.0000
  C   C2158     1.0  0.34946  0.90219  0.18940  1.0000
  C   C2159     1.0  0.38941  0.81637  0.13488  1.0000
  N   N212      1.0  0.66107  0.81585  0.12234  1.0000
  H   H3422     1.0  0.38827  0.82744  0.12970  1.0000
  H   H3423     1.0  0.35085  0.91907  0.02378  1.0000
  H   H3424     1.0  0.39085  0.91366  0.10827  1.0000
  H   H3425     1.0  0.59148  0.90306  0.11828  1.0000
  C   C2160     1.0  0.65199  0.78452  0.18009  1.0000
  H   H3426     1.0  0.37102  0.90241  0.11629  1.0000
  C   C2161     1.0  0.46448  0.82514  0.19971  1.0000
  H   H3427     1.0  0.34006  0.89145  0.05279  1.0000
  N   N213      1.0  0.39238  0.89195  0.11074  1.0000
  H   H3428     1.0  0.66121  0.89983  0.02379  1.0000
  C   C2162     1.0  0.39660  0.90498  0.10302  1.0000
  C   C2163     1.0  0.39521  0.88865  0.12468  1.0000
  H   H3429     1.0  0.46373  0.82485  0.16709  1.0000
  N   N214      1.0  0.64285  0.91462  0.03061  1.0000
  C   C2164     1.0  0.35414  0.87232  0.00226  1.0000
  H   H3430     1.0  0.35345  0.88332  0.99947  1.0000
  C   C2165     1.0  0.64675  0.89907  0.09195  1.0000
  H   H3431     1.0  0.39863  0.88291  0.09283  1.0000
  H   H3432     1.0  0.40793  0.90417  0.10195  1.0000
  H   H3433     1.0  0.60886  0.89480  0.13314  1.0000
  H   H3434     1.0  0.59241  0.87286  0.12218  1.0000
  S   S876      1.0  0.66072  0.89908  0.13062  1.0000
  H   H3435     1.0  0.37840  0.96917  0.15446  1.0000
  H   H3436     1.0  0.46624  0.84765  0.16888  1.0000
  H   H3437     1.0  0.63842  0.96922  0.16599  1.0000
  C   C2166     1.0  0.46853  0.84274  0.17924  1.0000
  C   C2167     1.0  0.40045  0.88076  0.10345  1.0000
  C   C2168     1.0  0.36150  0.92386  0.09048  1.0000
  C   C2169     1.0  0.59912  0.87573  0.12737  1.0000
  H   H3438     1.0  0.46112  0.81170  0.18225  1.0000
  H   H3439     1.0  0.66638  0.97562  0.17645  1.0000
  Fe  Fe452     1.0  0.65724  0.84943  0.06943  1.0000
  C   C2170     1.0  0.35136  0.78715  0.10910  1.0000
  C   C2171     1.0  0.64612  0.87336  0.99737  1.0000
  C   C2172     1.0  0.65692  0.87755  0.19888  1.0000
  H   H3440     1.0  0.63688  0.92034  0.09214  1.0000
  C   C2173     1.0  0.40058  0.96904  0.12327  1.0000
  H   H3441     1.0  0.64843  0.87659  0.19455  1.0000
  H   H3442     1.0  0.34354  0.92928  0.10629  1.0000
  H   H3443     1.0  0.65231  0.81376  0.10645  1.0000
  Fe  Fe453     1.0  0.62644  0.83337  0.22662  1.0000
  H   H3444     1.0  0.63026  0.90972  0.05090  1.0000
  C   C2174     1.0  0.34775  0.76395  0.11452  1.0000
  S   S877      1.0  0.65944  0.91128  0.18994  1.0000
  C   C2175     1.0  0.37750  0.65916  0.22731  1.0000
  S   S878      1.0  0.33789  0.89450  0.08495  1.0000
  H   H3445     1.0  0.38475  0.74208  0.21763  1.0000
  C   C2176     1.0  0.64677  0.91107  0.10940  1.0000
  C   C2177     1.0  0.65127  0.79344  0.18849  1.0000
  H   H3446     1.0  0.34041  0.79113  0.11401  1.0000
  H   H3447     1.0  0.65018  0.80084  0.12198  1.0000
  H   H3448     1.0  0.35089  0.90949  0.05455  1.0000
  C   C2178     1.0  0.39316  0.85394  0.98870  1.0000
  H   H3449     1.0  0.65735  0.95483  0.18131  1.0000
  C   C2179     1.0  0.40637  0.96544  0.14535  1.0000
  C   C2180     1.0  0.38285  0.96665  0.14409  1.0000
  C   C2181     1.0  0.34625  0.77170  0.16196  1.0000
  H   H3450     1.0  0.66337  0.77630  0.16212  1.0000
  H   H3451     1.0  0.65086  0.89398  0.04015  1.0000
  H   H3452     1.0  0.34821  0.89198  0.18881  1.0000
  H   H3453     1.0  0.34035  0.75235  0.16530  1.0000
  H   H3454     1.0  0.34460  0.77045  0.08812  1.0000
  H   H3455     1.0  0.34883  0.75455  0.11065  1.0000
  H   H3456     1.0  0.63960  0.93541  0.01898  1.0000
  C   C2182     1.0  0.35286  0.86547  0.99269  1.0000
  N   N215      1.0  0.66322  0.86424  0.20681  1.0000
  H   H3457     1.0  0.66486  0.87796  0.11567  1.0000
  H   H3458     1.0  0.66074  0.80844  0.19143  1.0000
  C   C2183     1.0  0.58739  0.97172  0.15902  1.0000
  N   N216      1.0  0.60118  0.97329  0.15958  1.0000
  H   H3459     1.0  0.38732  0.66305  0.22368  1.0000
  H   H3460     1.0  0.34992  0.66170  0.23129  1.0000
  C   C2184     1.0  0.63387  0.85736  0.99469  1.0000
  S   S879      1.0  0.33527  0.79366  0.22692  1.0000
  H   H3461     1.0  0.59438  0.83720  0.23145  1.0000
  H   H3462     1.0  0.64344  0.85830  0.21458  1.0000
  H   H3463     1.0  0.39261  0.97400  0.11688  1.0000
  C   C2185     1.0  0.34366  0.77908  0.09310  1.0000
  H   H3464     1.0  0.57891  0.97680  0.16658  1.0000
  H   H3465     1.0  0.34007  0.92862  0.19165  1.0000
  H   H3466     1.0  0.33656  0.76710  0.11939  1.0000
  H   H3467     1.0  0.65822  0.80224  0.14215  1.0000
  C   C2186     1.0  0.33725  0.82290  0.09188  1.0000
  H   H3468     1.0  0.34637  0.78800  0.08486  1.0000
  C   C2187     1.0  0.66094  0.83062  0.11662  1.0000
  S   S880      1.0  0.66217  0.86916  0.05581  1.0000
  H   H3469     1.0  0.64006  0.90699  0.01424  1.0000
  H   H3470     1.0  0.64097  0.92142  0.04918  1.0000
  S   S881      1.0  0.66501  0.92636  0.14897  1.0000
  H   H3471     1.0  0.35999  0.68203  0.21743  1.0000
  C   C2188     1.0  0.34187  0.91727  0.05123  1.0000
  C   C2189     1.0  0.65466  0.90311  0.03341  1.0000
  H   H3472     1.0  0.40283  0.96755  0.15594  1.0000
  H   H3473     1.0  0.65498  0.92997  0.02602  1.0000
  C   C2190     1.0  0.65240  0.85911  0.21831  1.0000
  H   H3474     1.0  0.59573  0.97176  0.18151  1.0000
  C   C2191     1.0  0.34705  0.90965  0.02983  1.0000
  H   H3475     1.0  0.65872  0.80430  0.99443  1.0000
  H   H3476     1.0  0.65458  0.92387  0.01138  1.0000
  C   C2192     1.0  0.33697  0.75352  0.23567  1.0000
  H   H3477     1.0  0.66620  0.81604  0.14114  1.0000
  H   H3478     1.0  0.35621  0.90173  0.03275  1.0000
  H   H3479     1.0  0.63308  0.98859  0.17794  1.0000
  N   N217      1.0  0.33612  0.91243  0.04211  1.0000
  H   H3480     1.0  0.61190  0.98953  0.15660  1.0000
  S   S882      1.0  0.64928  0.79703  0.23599  1.0000
  N   N218      1.0  0.36645  0.66829  0.23537  1.0000
  C   C2193     1.0  0.63800  0.98993  0.16712  1.0000
  H   H3481     1.0  0.33401  0.91915  0.06079  1.0000
  H   H3482     1.0  0.38828  0.98987  0.14650  1.0000
  S   S883      1.0  0.64256  0.65959  0.43074  1.0000
  S   S884      1.0  0.34908  0.66952  0.41600  1.0000
  H   H3483     1.0  0.42780  0.69908  0.27603  1.0000
  H   H3484     1.0  0.59987  0.75077  0.27757  1.0000
  H   H3485     1.0  0.35181  0.67484  0.35524  1.0000
  H   H3486     1.0  0.64550  0.66845  0.39838  1.0000
  C   C2194     1.0  0.41777  0.66788  0.42197  1.0000
  H   H3487     1.0  0.60932  0.72896  0.29223  1.0000
  H   H3488     1.0  0.60482  0.72700  0.31057  1.0000
  C   C2195     1.0  0.63415  0.69414  0.38791  1.0000
  H   H3489     1.0  0.35069  0.73103  0.25055  1.0000
  H   H3490     1.0  0.38211  0.66720  0.46343  1.0000
  H   H3491     1.0  0.42405  0.70622  0.29110  1.0000
  C   C2196     1.0  0.59670  0.67118  0.36369  1.0000
  Fe  Fe454     1.0  0.63269  0.72508  0.34855  1.0000
  C   C2197     1.0  0.60312  0.83285  0.27606  1.0000
  H   H3492     1.0  0.61590  0.78328  0.29821  1.0000
  H   H3493     1.0  0.65101  0.68097  0.44684  1.0000
  H   H3494     1.0  0.59234  0.67064  0.37484  1.0000
  C   C2198     1.0  0.37115  0.66907  0.24744  1.0000
  Fe  Fe455     1.0  0.36854  0.69570  0.27349  1.0000
  S   S885      1.0  0.37109  0.67384  0.28505  1.0000
  Fe  Fe456     1.0  0.34955  0.67560  0.28231  1.0000
  H   H3495     1.0  0.36714  0.70030  0.24401  1.0000
  Fe  Fe457     1.0  0.36013  0.68255  0.30383  1.0000
  S   S886      1.0  0.36608  0.67656  0.32444  1.0000
  S   S887      1.0  0.34787  0.69691  0.26914  1.0000
  S   S888      1.0  0.35965  0.70432  0.29248  1.0000
  Fe  Fe458     1.0  0.61146  0.71905  0.33630  1.0000
  S   S889      1.0  0.62809  0.70913  0.32056  1.0000
  S   S890      1.0  0.58875  0.72000  0.33808  1.0000
  C   C2199     1.0  0.65334  0.69765  0.46162  1.0000
  S   S891      1.0  0.65081  0.71583  0.33353  1.0000
  Fe  Fe459     1.0  0.63919  0.69909  0.33773  1.0000
  S   S892      1.0  0.62186  0.70760  0.35375  1.0000
  H   H3496     1.0  0.61697  0.67614  0.34164  1.0000
  H   H3497     1.0  0.57997  0.73438  0.31102  1.0000
  H   H3498     1.0  0.36282  0.69495  0.34421  1.0000
  H   H3499     1.0  0.38943  0.71262  0.28250  1.0000
  H   H3500     1.0  0.64558  0.66948  0.38075  1.0000
  N   N219      1.0  0.34229  0.69578  0.35698  1.0000
  H   H3501     1.0  0.64911  0.66782  0.48436  1.0000
  H   H3502     1.0  0.40539  0.71339  0.27004  1.0000
  H   H3503     1.0  0.36104  0.69799  0.36106  1.0000
  C   C2200     1.0  0.64845  0.67906  0.48081  1.0000
  S   S893      1.0  0.63605  0.82722  0.24507  1.0000
  H   H3504     1.0  0.60009  0.82462  0.28500  1.0000
  H   H3505     1.0  0.61674  0.73769  0.30041  1.0000
  H   H3506     1.0  0.38060  0.67352  0.24436  1.0000
  H   H3507     1.0  0.39316  0.72852  0.23871  1.0000
  H   H3508     1.0  0.36291  0.67558  0.25393  1.0000
  H   H3509     1.0  0.66028  0.83752  0.24740  1.0000
  H   H3510     1.0  0.42784  0.68133  0.40460  1.0000
  C   C2201     1.0  0.61682  0.66506  0.34602  1.0000
  N   N220      1.0  0.61092  0.66264  0.36099  1.0000
  H   H3511     1.0  0.66571  0.67498  0.42489  1.0000
  H   H3512     1.0  0.39220  0.69062  0.47889  1.0000
  H   H3513     1.0  0.64890  0.75268  0.26841  1.0000
  H   H3514     1.0  0.35113  0.76828  0.24246  1.0000
  H   H3515     1.0  0.64974  0.69056  0.36328  1.0000
  H   H3516     1.0  0.38302  0.67499  0.34302  1.0000
  H   H3517     1.0  0.59898  0.85761  0.25896  1.0000
  H   H3518     1.0  0.41117  0.67707  0.28838  1.0000
  H   H3519     1.0  0.40190  0.72064  0.28500  1.0000
  C   C2202     1.0  0.65635  0.69087  0.39372  1.0000
  H   H3520     1.0  0.65201  0.68713  0.40481  1.0000
  H   H3521     1.0  0.62684  0.75953  0.30861  1.0000
  N   N221      1.0  0.64909  0.68749  0.38485  1.0000
  C   C2203     1.0  0.61975  0.66639  0.36803  1.0000
  C   C2204     1.0  0.62637  0.78152  0.27739  1.0000
  H   H3522     1.0  0.59125  0.66985  0.39914  1.0000
  C   C2205     1.0  0.58352  0.67868  0.33427  1.0000
  C   C2206     1.0  0.57342  0.68612  0.34335  1.0000
  C   C2207     1.0  0.57467  0.69915  0.34410  1.0000
  C   C2208     1.0  0.58610  0.70463  0.33589  1.0000
  C   C2209     1.0  0.59570  0.69750  0.32630  1.0000
  C   C2210     1.0  0.59434  0.68464  0.32541  1.0000
  H   H3523     1.0  0.56491  0.68165  0.35010  1.0000
  H   H3524     1.0  0.56709  0.70470  0.35142  1.0000
  H   H3525     1.0  0.60422  0.70182  0.31955  1.0000
  H   H3526     1.0  0.60204  0.67904  0.31819  1.0000
  S   S894      1.0  0.38587  0.70438  0.25814  1.0000
  H   H3527     1.0  0.62833  0.69169  0.38150  1.0000
  Fe  Fe460     1.0  0.33908  0.70388  0.28913  1.0000
  H   H3528     1.0  0.38951  0.69646  0.30545  1.0000
  S   S895      1.0  0.63706  0.73077  0.36631  1.0000
  C   C2211     1.0  0.63846  0.75443  0.28921  1.0000
  S   S896      1.0  0.64773  0.67642  0.34374  1.0000
  H   H3529     1.0  0.60696  0.84455  0.24907  1.0000
  H   H3530     1.0  0.39460  0.68704  0.28504  1.0000
  H   H3531     1.0  0.40589  0.68713  0.30968  1.0000
  C   C2212     1.0  0.66118  0.73076  0.37321  1.0000
  C   C2213     1.0  0.33544  0.66570  0.41138  1.0000
  C   C2214     1.0  0.35568  0.70026  0.35240  1.0000
  H   H3532     1.0  0.65534  0.70219  0.39199  1.0000
  C   C2215     1.0  0.58253  0.74151  0.30091  1.0000
  H   H3533     1.0  0.40121  0.70541  0.30798  1.0000
  C   C2216     1.0  0.35237  0.75723  0.24775  1.0000
  C   C2217     1.0  0.42239  0.69793  0.28707  1.0000
  H   H3534     1.0  0.42766  0.68791  0.29271  1.0000
  H   H3535     1.0  0.38496  0.68953  0.46522  1.0000
  H   H3536     1.0  0.35480  0.75630  0.25787  1.0000
  C   C2218     1.0  0.37083  0.70947  0.23840  1.0000
  H   H3537     1.0  0.34238  0.69300  0.33697  1.0000
  H   H3538     1.0  0.37227  0.66455  0.48089  1.0000
  C   C2219     1.0  0.65414  0.73328  0.36256  1.0000
  H   H3539     1.0  0.40569  0.67188  0.45817  1.0000
  C   C2220     1.0  0.40598  0.66769  0.46924  1.0000
  H   H3540     1.0  0.66661  0.85574  0.25474  1.0000
  H   H3541     1.0  0.58927  0.85335  0.24911  1.0000
  H   H3542     1.0  0.66642  0.68730  0.36747  1.0000
  H   H3543     1.0  0.49359  0.66398  0.36178  1.0000
  C   C2221     1.0  0.34476  0.68085  0.36294  1.0000
  S   S897      1.0  0.64605  0.73732  0.29609  1.0000
  C   C2222     1.0  0.59016  0.82707  0.26279  1.0000
  H   H3544     1.0  0.45754  0.66786  0.39130  1.0000
  H   H3545     1.0  0.60245  0.75746  0.31040  1.0000
  H   H3546     1.0  0.57089  0.84890  0.27010  1.0000
  H   H3547     1.0  0.58415  0.76268  0.31056  1.0000
  H   H3548     1.0  0.63565  0.68268  0.46038  1.0000
  S   S898      1.0  0.43194  0.66966  0.38124  1.0000
  C   C2223     1.0  0.65529  0.69248  0.37025  1.0000
  H   H3549     1.0  0.65472  0.70376  0.36793  1.0000
  H   H3550     1.0  0.62915  0.69059  0.39887  1.0000
  C   C2224     1.0  0.46536  0.65895  0.38775  1.0000
  C   C2225     1.0  0.57920  0.84463  0.27614  1.0000
  C   C2226     1.0  0.64701  0.67809  0.45813  1.0000
  H   H3551     1.0  0.57537  0.83694  0.28525  1.0000
  C   C2227     1.0  0.65057  0.67242  0.38758  1.0000
  H   H3552     1.0  0.58207  0.83079  0.25649  1.0000
  H   H3553     1.0  0.41013  0.68860  0.27208  1.0000
  H   H3554     1.0  0.63259  0.70555  0.38588  1.0000
  C   C2228     1.0  0.59365  0.65871  0.40176  1.0000
  S   S899      1.0  0.61682  0.66118  0.40865  1.0000
  H   H3555     1.0  0.63816  0.77639  0.25804  1.0000
  H   H3556     1.0  0.37357  0.65873  0.25420  1.0000
  N   N222      1.0  0.59523  0.74642  0.29970  1.0000
  C   C2229     1.0  0.59306  0.75367  0.31094  1.0000
  C   C2230     1.0  0.42361  0.67214  0.40801  1.0000
  C   C2231     1.0  0.66566  0.67233  0.33711  1.0000
  C   C2232     1.0  0.63569  0.77283  0.26906  1.0000
  C   C2233     1.0  0.62303  0.77659  0.29168  1.0000
  Fe  Fe461     1.0  0.62948  0.80718  0.24866  1.0000
  C   C2234     1.0  0.66091  0.73749  0.34895  1.0000
  H   H3557     1.0  0.60803  0.75948  0.28499  1.0000
  S   S900      1.0  0.33867  0.68263  0.30211  1.0000
  H   H3558     1.0  0.63724  0.68413  0.48329  1.0000
  H   H3559     1.0  0.63056  0.66017  0.36622  1.0000
  Fe  Fe462     1.0  0.63769  0.72712  0.31792  1.0000
  N   N223      1.0  0.40740  0.69850  0.28884  1.0000
  H   H3560     1.0  0.36159  0.75136  0.24148  1.0000
  C   C2235     1.0  0.40069  0.69684  0.30362  1.0000
  C   C2236     1.0  0.40577  0.68730  0.28336  1.0000
  C   C2237     1.0  0.40076  0.71190  0.28129  1.0000
  H   H3561     1.0  0.59646  0.68222  0.35877  1.0000
  H   H3562     1.0  0.58386  0.73577  0.29274  1.0000
  H   H3563     1.0  0.65593  0.72764  0.38378  1.0000
  H   H3564     1.0  0.65884  0.70139  0.46740  1.0000
  H   H3565     1.0  0.57335  0.75020  0.30014  1.0000
  H   H3566     1.0  0.33759  0.70187  0.37643  1.0000
  H   H3567     1.0  0.37510  0.68712  0.48265  1.0000
  C   C2238     1.0  0.62914  0.76311  0.29758  1.0000
  H   H3568     1.0  0.59086  0.74675  0.32123  1.0000
  H   H3569     1.0  0.62032  0.67741  0.36427  1.0000
  C   C2239     1.0  0.35365  0.66273  0.24007  1.0000
  H   H3570     1.0  0.34954  0.67833  0.37204  1.0000
  N   N224      1.0  0.59239  0.83838  0.26768  1.0000
  H   H3571     1.0  0.61323  0.82810  0.26996  1.0000
  C   C2240     1.0  0.64171  0.75935  0.27495  1.0000
  H   H3572     1.0  0.58975  0.76517  0.28519  1.0000
  C   C2241     1.0  0.60705  0.73451  0.30075  1.0000
  C   C2242     1.0  0.33580  0.69866  0.34507  1.0000
  S   S901      1.0  0.62032  0.73773  0.33270  1.0000
  C   C2243     1.0  0.34176  0.73749  0.25649  1.0000
  H   H3573     1.0  0.33484  0.67715  0.36642  1.0000
  C   C2244     1.0  0.42402  0.66452  0.39848  1.0000
  H   H3574     1.0  0.59991  0.82218  0.25635  1.0000
  S   S902      1.0  0.61854  0.79843  0.27016  1.0000
  C   C2245     1.0  0.59831  0.75589  0.28627  1.0000
  C   C2246     1.0  0.59708  0.84893  0.25572  1.0000
  H   H3575     1.0  0.60505  0.84103  0.28004  1.0000
  H   H3576     1.0  0.58689  0.81876  0.27153  1.0000
  H   H3577     1.0  0.64226  0.70326  0.46342  1.0000
  S   S903      1.0  0.58413  0.66138  0.33475  1.0000
  H   H3578     1.0  0.40833  0.66699  0.34174  1.0000
  H   H3579     1.0  0.58051  0.85322  0.27999  1.0000
  H   H3580     1.0  0.34388  0.73606  0.26688  1.0000
  H   H3581     1.0  0.64811  0.66672  0.46081  1.0000
  H   H3582     1.0  0.65547  0.73972  0.34070  1.0000
  H   H3583     1.0  0.35410  0.71153  0.34806  1.0000
  H   H3584     1.0  0.58944  0.66765  0.35977  1.0000
  N   N225      1.0  0.65455  0.68260  0.46593  1.0000
  H   H3585     1.0  0.47485  0.66276  0.38168  1.0000
  H   H3586     1.0  0.46869  0.66125  0.41181  1.0000
  H   H3587     1.0  0.41310  0.67258  0.47189  1.0000
  H   H3588     1.0  0.62775  0.65921  0.34358  1.0000
  H   H3589     1.0  0.41738  0.67384  0.42930  1.0000
  H   H3590     1.0  0.66172  0.66696  0.38596  1.0000
  N   N226      1.0  0.39188  0.67010  0.47811  1.0000
  N   N227      1.0  0.33970  0.75212  0.24938  1.0000
  C   C2247     1.0  0.38377  0.66937  0.32411  1.0000
  H   H3591     1.0  0.66636  0.69179  0.32292  1.0000
  S   S904      1.0  0.36429  0.66109  0.44925  1.0000
  C   C2248     1.0  0.38953  0.67026  0.33462  1.0000
  C   C2249     1.0  0.40385  0.66550  0.33404  1.0000
  H   H3592     1.0  0.65798  0.70071  0.45048  1.0000
  C   C2250     1.0  0.38047  0.71363  0.24290  1.0000
  C   C2251     1.0  0.39229  0.66329  0.31325  1.0000
  C   C2252     1.0  0.38578  0.68502  0.47612  1.0000
  H   H3593     1.0  0.61560  0.66477  0.37934  1.0000
  H   H3594     1.0  0.38787  0.66228  0.30527  1.0000
  C   C2253     1.0  0.38299  0.66314  0.47435  1.0000
  C   C2254     1.0  0.41240  0.65950  0.32315  1.0000
  H   H3595     1.0  0.34503  0.66955  0.24596  1.0000
  H   H3596     1.0  0.61065  0.66194  0.34043  1.0000
  C   C2255     1.0  0.40658  0.65829  0.31282  1.0000
  S   S905      1.0  0.34704  0.65709  0.27632  1.0000
  H   H3597     1.0  0.33393  0.70981  0.34021  1.0000
  C   C2256     1.0  0.35953  0.74211  0.66349  1.0000
  H   H3598     1.0  0.41203  0.71263  0.57363  1.0000
  C   C2257     1.0  0.62589  0.73719  0.73126  1.0000
  S   S906      1.0  0.56922  0.68132  0.60656  1.0000
  H   H3599     1.0  0.66115  0.69363  0.67492  1.0000
  H   H3600     1.0  0.33785  0.74573  0.66309  1.0000
  S   S907      1.0  0.62053  0.68272  0.55558  1.0000
  H   H3601     1.0  0.61415  0.70929  0.63208  1.0000
  Fe  Fe463     1.0  0.36143  0.67997  0.55571  1.0000
  S   S908      1.0  0.38238  0.67407  0.54214  1.0000
  S   S909      1.0  0.34908  0.70160  0.55104  1.0000
  C   C2258     1.0  0.62542  0.77809  0.71870  1.0000
  H   H3602     1.0  0.65396  0.68211  0.48710  1.0000
  H   H3603     1.0  0.65209  0.71528  0.63806  1.0000
  H   H3604     1.0  0.35195  0.65988  0.61397  1.0000
  C   C2259     1.0  0.34059  0.74431  0.68349  1.0000
  H   H3605     1.0  0.52506  0.66264  0.63332  1.0000
  H   H3606     1.0  0.46674  0.65729  0.68901  1.0000
  Fe  Fe464     1.0  0.39352  0.71816  0.71279  1.0000
  S   S910      1.0  0.41176  0.71481  0.69513  1.0000
  H   H3607     1.0  0.38045  0.72310  0.57934  1.0000
  S   S911      1.0  0.65918  0.66525  0.54129  1.0000
  C   C2260     1.0  0.36904  0.74049  0.67164  1.0000
  S   S912      1.0  0.37488  0.71070  0.71293  1.0000
  H   H3608     1.0  0.34960  0.67703  0.61652  1.0000
  Fe  Fe465     1.0  0.34604  0.73490  0.60932  1.0000
  S   S913      1.0  0.36048  0.72131  0.62269  1.0000
  Fe  Fe466     1.0  0.62343  0.71564  0.68458  1.0000
  S   S914      1.0  0.62497  0.69305  0.69282  1.0000
  C   C2261     1.0  0.39601  0.70905  0.65921  1.0000
  Fe  Fe467     1.0  0.60283  0.69952  0.70373  1.0000
  S   S915      1.0  0.58539  0.69034  0.70294  1.0000
  S   S916      1.0  0.60101  0.72208  0.69455  1.0000
  S   S917      1.0  0.63124  0.71891  0.70150  1.0000
  H   H3609     1.0  0.40731  0.70888  0.65522  1.0000
  C   C2262     1.0  0.34973  0.73534  0.56332  1.0000
  C   C2263     1.0  0.34516  0.66763  0.62003  1.0000
  C   C2264     1.0  0.64057  0.77940  0.73245  1.0000
  C   C2265     1.0  0.42498  0.68331  0.67510  1.0000
  C   C2266     1.0  0.42285  0.69612  0.67852  1.0000
  C   C2267     1.0  0.41449  0.69860  0.69118  1.0000
  C   C2268     1.0  0.40839  0.68817  0.70048  1.0000
  C   C2269     1.0  0.41072  0.67527  0.69711  1.0000
  H   H3610     1.0  0.43132  0.68164  0.66531  1.0000
  H   H3611     1.0  0.42755  0.70418  0.67129  1.0000
  H   H3612     1.0  0.40206  0.68993  0.71036  1.0000
  C   C2270     1.0  0.41194  0.67527  0.60469  1.0000
  H   H3613     1.0  0.34495  0.71445  0.68536  1.0000
  H   H3614     1.0  0.64085  0.79745  0.70832  1.0000
  S   S918      1.0  0.60061  0.74004  0.72489  1.0000
  H   H3615     1.0  0.63046  0.73193  0.72282  1.0000
  C   C2271     1.0  0.50524  0.66097  0.63090  1.0000
  C   C2272     1.0  0.63161  0.79967  0.71671  1.0000
  C   C2273     1.0  0.46067  0.68461  0.67937  1.0000
  H   H3616     1.0  0.62305  0.76834  0.72564  1.0000
  H   H3617     1.0  0.40608  0.66721  0.70442  1.0000
  C   C2274     1.0  0.34928  0.71253  0.56141  1.0000
  S   S919      1.0  0.63107  0.72156  0.66177  1.0000
  C   C2275     1.0  0.35036  0.71660  0.58324  1.0000
  C   C2276     1.0  0.35039  0.73045  0.57718  1.0000
  H   H3618     1.0  0.38838  0.67340  0.58789  1.0000
  H   H3619     1.0  0.62269  0.80562  0.71187  1.0000
  C   C2277     1.0  0.59849  0.69327  0.65121  1.0000
  C   C2278     1.0  0.34991  0.70761  0.57531  1.0000
  H   H3620     1.0  0.38953  0.67998  0.60884  1.0000
  S   S920      1.0  0.38157  0.73863  0.71798  1.0000
  H   H3621     1.0  0.38029  0.69981  0.57717  1.0000
  H   H3622     1.0  0.58918  0.70573  0.67300  1.0000
  Fe  Fe468     1.0  0.38939  0.66404  0.56192  1.0000
  C   C2279     1.0  0.58818  0.71755  0.64674  1.0000
  H   H3623     1.0  0.64501  0.83512  0.72990  1.0000
  H   H3624     1.0  0.48793  0.68281  0.66769  1.0000
  S   S921      1.0  0.36897  0.67156  0.57527  1.0000
  H   H3625     1.0  0.34847  0.73028  0.54479  1.0000
  C   C2280     1.0  0.58394  0.68141  0.59284  1.0000
  C   C2281     1.0  0.58292  0.69148  0.58082  1.0000
  C   C2282     1.0  0.59425  0.69184  0.56955  1.0000
  C   C2283     1.0  0.60672  0.68209  0.57015  1.0000
  C   C2284     1.0  0.60788  0.67208  0.58224  1.0000
  C   C2285     1.0  0.59650  0.67175  0.59358  1.0000
  H   H3626     1.0  0.57329  0.69903  0.58019  1.0000
  H   H3627     1.0  0.59330  0.69964  0.56029  1.0000
  N   N228      1.0  0.46994  0.67406  0.67176  1.0000
  S   S922      1.0  0.33797  0.75110  0.62206  1.0000
  H   H3628     1.0  0.46627  0.68776  0.68550  1.0000
  H   H3629     1.0  0.33615  0.70145  0.72316  1.0000
  C   C2286     1.0  0.60185  0.67200  0.68672  1.0000
  C   C2287     1.0  0.58842  0.67912  0.69165  1.0000
  C   C2288     1.0  0.57714  0.67736  0.68746  1.0000
  H   H3630     1.0  0.45641  0.69403  0.67225  1.0000
  H   H3631     1.0  0.45313  0.66571  0.67082  1.0000
  H   H3632     1.0  0.61057  0.67308  0.69006  1.0000
  H   H3633     1.0  0.56670  0.68279  0.69129  1.0000
  C   C2289     1.0  0.39902  0.67629  0.60185  1.0000
  H   H3634     1.0  0.36983  0.71198  0.65684  1.0000
  H   H3635     1.0  0.59866  0.69255  0.64058  1.0000
  H   H3636     1.0  0.39041  0.72002  0.65748  1.0000
  H   H3637     1.0  0.57792  0.71566  0.65317  1.0000
  H   H3638     1.0  0.38933  0.70135  0.63191  1.0000
  H   H3639     1.0  0.60058  0.71767  0.66674  1.0000
  C   C2290     1.0  0.42351  0.66700  0.58365  1.0000
  S   S923      1.0  0.41266  0.68039  0.61930  1.0000
  H   H3640     1.0  0.66404  0.67484  0.66318  1.0000
  H   H3641     1.0  0.47807  0.68876  0.65437  1.0000
  S   S924      1.0  0.41012  0.66483  0.56503  1.0000
  H   H3642     1.0  0.64768  0.85699  0.73347  1.0000
  H   H3643     1.0  0.45159  0.68074  0.68660  1.0000
  H   H3644     1.0  0.43302  0.66361  0.57653  1.0000
  N   N229      1.0  0.62845  0.78688  0.72626  1.0000
  C   C2291     1.0  0.41902  0.67280  0.68440  1.0000
  H   H3645     1.0  0.60683  0.79594  0.73300  1.0000
  H   H3646     1.0  0.57052  0.66743  0.67506  1.0000
  H   H3647     1.0  0.34007  0.68628  0.71624  1.0000
  Fe  Fe469     1.0  0.56883  0.66359  0.62479  1.0000
  C   C2292     1.0  0.41059  0.66815  0.58070  1.0000
  H   H3648     1.0  0.63442  0.77522  0.71031  1.0000
  C   C2293     1.0  0.48172  0.67966  0.66216  1.0000
  H   H3649     1.0  0.41026  0.72155  0.54910  1.0000
  H   H3650     1.0  0.41039  0.68610  0.64994  1.0000
  H   H3651     1.0  0.39265  0.69218  0.56375  1.0000
  Fe  Fe470     1.0  0.63051  0.69686  0.71086  1.0000
  C   C2294     1.0  0.37612  0.70124  0.65818  1.0000
  C   C2295     1.0  0.40521  0.70559  0.57431  1.0000
  C   C2296     1.0  0.38666  0.72479  0.56858  1.0000
  H   H3652     1.0  0.41213  0.69582  0.57175  1.0000
  H   H3653     1.0  0.39960  0.70321  0.58524  1.0000
  H   H3654     1.0  0.38003  0.73942  0.66708  1.0000
  N   N230      1.0  0.39108  0.70099  0.65232  1.0000
  H   H3655     1.0  0.38734  0.71801  0.63547  1.0000
  N   N231      1.0  0.39540  0.71172  0.56499  1.0000
  C   C2297     1.0  0.40332  0.71437  0.55061  1.0000
  H   H3656     1.0  0.34213  0.66689  0.66609  1.0000
  C   C2298     1.0  0.64908  0.72050  0.65770  1.0000
  Fe  Fe471     1.0  0.63808  0.66414  0.55499  1.0000
  H   H3657     1.0  0.37917  0.72975  0.56172  1.0000
  C   C2299     1.0  0.34532  0.70785  0.69577  1.0000
  H   H3658     1.0  0.60713  0.68509  0.65481  1.0000
  C   C2300     1.0  0.39309  0.70708  0.63742  1.0000
  H   H3659     1.0  0.40429  0.70683  0.63259  1.0000
  C   C2301     1.0  0.39910  0.68662  0.65442  1.0000
  H   H3660     1.0  0.37200  0.69543  0.65305  1.0000
  C   C2302     1.0  0.38641  0.70213  0.56645  1.0000
  H   H3661     1.0  0.39568  0.68024  0.64931  1.0000
  C   C2303     1.0  0.59271  0.66151  0.67342  1.0000
  H   H3662     1.0  0.59752  0.66413  0.60287  1.0000
  H   H3663     1.0  0.61436  0.65755  0.67409  1.0000
  H   H3664     1.0  0.48899  0.67189  0.65639  1.0000
  Fe  Fe472     1.0  0.36282  0.73032  0.71949  1.0000
  H   H3665     1.0  0.37888  0.70645  0.55954  1.0000
  H   H3666     1.0  0.35095  0.71277  0.59394  1.0000
  H   H3667     1.0  0.39621  0.71899  0.54331  1.0000
  C   C2304     1.0  0.61320  0.70986  0.64292  1.0000
  H   H3668     1.0  0.58879  0.72807  0.64708  1.0000
  H   H3669     1.0  0.58856  0.69077  0.65788  1.0000
  H   H3670     1.0  0.38226  0.66625  0.49967  1.0000
  S   S925      1.0  0.64902  0.68587  0.72017  1.0000
  C   C2305     1.0  0.59926  0.70752  0.66605  1.0000
  H   H3671     1.0  0.61439  0.72030  0.64289  1.0000
  H   H3672     1.0  0.39306  0.73229  0.56770  1.0000
  H   H3673     1.0  0.63391  0.80652  0.72218  1.0000
  C   C2306     1.0  0.34900  0.72644  0.55552  1.0000
  N   N232      1.0  0.59979  0.70705  0.65172  1.0000
  H   H3674     1.0  0.37424  0.69667  0.66939  1.0000
  C   C2307     1.0  0.60396  0.66313  0.67775  1.0000
  H   H3675     1.0  0.39438  0.70501  0.67054  1.0000
  C   C2308     1.0  0.47535  0.66177  0.68159  1.0000
  H   H3676     1.0  0.34993  0.69693  0.57994  1.0000
  H   H3677     1.0  0.40997  0.70465  0.54764  1.0000
  H   H3678     1.0  0.48158  0.66426  0.68759  1.0000
  H   H3679     1.0  0.60768  0.69953  0.67028  1.0000
  C   C2309     1.0  0.46198  0.67020  0.66391  1.0000
  S   S926      1.0  0.60846  0.70120  0.72281  1.0000
  H   H3680     1.0  0.58828  0.71751  0.63593  1.0000
  H   H3681     1.0  0.39802  0.68172  0.66555  1.0000
  H   H3682     1.0  0.37188  0.73870  0.69200  1.0000
  H   H3683     1.0  0.64944  0.72580  0.67638  1.0000
  H   H3684     1.0  0.39943  0.66944  0.49592  1.0000
  C   C2310     1.0  0.65558  0.72269  0.66700  1.0000
  Fe  Fe473     1.0  0.34239  0.71161  0.63402  1.0000
  Fe  Fe474     1.0  0.60893  0.72323  0.71249  1.0000
  C   C2311     1.0  0.36441  0.74020  0.68577  1.0000
  Fe  Fe475     1.0  0.35084  0.73642  0.63653  1.0000
  H   H3685     1.0  0.62219  0.70238  0.64670  1.0000
  H   H3686     1.0  0.45774  0.67925  0.65640  1.0000
  H   H3687     1.0  0.63386  0.66607  0.71918  1.0000
  H   H3688     1.0  0.34985  0.74601  0.55857  1.0000
  H   H3689     1.0  0.64994  0.77630  0.72451  1.0000
  S   S927      1.0  0.36579  0.74124  0.64605  1.0000
  S   S928      1.0  0.34451  0.74068  0.70960  1.0000
  C   C2312     1.0  0.39836  0.67254  0.58997  1.0000
  S   S929      1.0  0.35206  0.74174  0.58639  1.0000
  Fe  Fe476     1.0  0.42900  0.66535  0.62970  1.0000
  S   S930      1.0  0.44013  0.67109  0.64248  1.0000
  H   H3690     1.0  0.50565  0.66834  0.62121  1.0000
  S   S931      1.0  0.34566  0.68884  0.64213  1.0000
  H   H3691     1.0  0.65802  0.68231  0.69142  1.0000
  C   C2313     1.0  0.35019  0.74207  0.69174  1.0000
  C   C2314     1.0  0.34527  0.74409  0.66941  1.0000
  Fe  Fe477     1.0  0.37443  0.70216  0.73524  1.0000
  S   S932      1.0  0.55986  0.66634  0.64661  1.0000
  C   C2315     1.0  0.65300  0.66791  0.72289  1.0000
  C   C2316     1.0  0.65708  0.71693  0.64531  1.0000
  C   C2317     1.0  0.64377  0.66061  0.72178  1.0000
  S   S933      1.0  0.47944  0.66046  0.62819  1.0000
  H   H3692     1.0  0.46861  0.66243  0.65787  1.0000
  H   H3693     1.0  0.61624  0.78333  0.71399  1.0000
  H   H3694     1.0  0.34916  0.71339  0.70143  1.0000
  H   H3695     1.0  0.43420  0.66968  0.59782  1.0000
  C   C2318     1.0  0.42418  0.67041  0.59570  1.0000
  H   H3696     1.0  0.61755  0.66469  0.58289  1.0000
  C   C2319     1.0  0.57927  0.66867  0.67828  1.0000
  C   C2320     1.0  0.61155  0.74249  0.73426  1.0000
  H   H3697     1.0  0.66062  0.66340  0.67963  1.0000
  H   H3698     1.0  0.35322  0.69819  0.69454  1.0000
  S   S934      1.0  0.39421  0.70785  0.73463  1.0000
  H   H3699     1.0  0.33677  0.66913  0.59714  1.0000
  H   H3700     1.0  0.33532  0.76845  0.59302  1.0000
  S   S935      1.0  0.35418  0.66107  0.55623  1.0000
  H   H3701     1.0  0.34586  0.66350  0.63101  1.0000
  C   C2321     1.0  0.51627  0.65773  0.63773  1.0000
  C   C2322     1.0  0.39273  0.66453  0.49269  1.0000
  C   C2323     1.0  0.66574  0.66083  0.72633  1.0000
  H   H3702     1.0  0.33896  0.65751  0.50965  1.0000
  S   S936      1.0  0.33372  0.72568  0.64896  1.0000
  H   H3703     1.0  0.33396  0.68784  0.69393  1.0000
  C   C2324     1.0  0.66634  0.68608  0.68290  1.0000
  H   H3704     1.0  0.66681  0.67672  0.56857  1.0000
  H   H3705     1.0  0.66667  0.69543  0.57960  1.0000
  H   H3706     1.0  0.33400  0.68621  0.59995  1.0000
  H   H3707     1.0  0.38927  0.87389  0.95736  1.0000
  H   H3708     1.0  0.35107  0.87120  0.98269  1.0000
  H   H3709     1.0  0.61813  0.79713  0.74308  1.0000
  H   H3710     1.0  0.65221  0.85180  0.87519  1.0000
  S   S937      1.0  0.62797  0.84995  0.98431  1.0000
  C   C2325     1.0  0.63759  0.70780  0.76287  1.0000
  H   H3711     1.0  0.36418  0.91468  0.83521  1.0000
  H   H3712     1.0  0.37504  0.97770  0.86652  1.0000
  H   H3713     1.0  0.37365  0.88957  0.82203  1.0000
  Fe  Fe478     1.0  0.38037  0.72752  0.74021  1.0000
  C   C2326     1.0  0.34133  0.81748  0.81460  1.0000
  H   H3714     1.0  0.65073  0.68118  0.76464  1.0000
  C   C2327     1.0  0.37294  0.69858  0.77221  1.0000
  C   C2328     1.0  0.65592  0.90359  0.90607  1.0000
  C   C2329     1.0  0.39102  0.67833  0.76920  1.0000
  H   H3715     1.0  0.66175  0.83747  0.86725  1.0000
  C   C2330     1.0  0.66032  0.91087  0.89265  1.0000
  C   C2331     1.0  0.66529  0.75836  0.84146  1.0000
  C   C2332     1.0  0.41048  0.85591  0.96739  1.0000
  S   S938      1.0  0.37030  0.98820  0.83730  1.0000
  H   H3716     1.0  0.36623  0.97243  0.91031  1.0000
  H   H3717     1.0  0.66029  0.94553  0.89461  1.0000
  N   N233      1.0  0.63373  0.69713  0.75838  1.0000
  H   H3718     1.0  0.39192  0.70617  0.78046  1.0000
  H   H3719     1.0  0.64589  0.71229  0.75493  1.0000
  H   H3720     1.0  0.39411  0.68257  0.75796  1.0000
  C   C2333     1.0  0.62820  0.70334  0.74578  1.0000
  H   H3721     1.0  0.39924  0.70222  0.76383  1.0000
  C   C2334     1.0  0.44182  0.75391  0.81747  1.0000
  H   H3722     1.0  0.39535  0.83641  0.97288  1.0000
  C   C2335     1.0  0.66381  0.92153  0.80086  1.0000
  H   H3723     1.0  0.40037  0.67119  0.77253  1.0000
  N   N234      1.0  0.38531  0.68945  0.77705  1.0000
  C   C2336     1.0  0.64615  0.68611  0.75543  1.0000
  H   H3724     1.0  0.38317  0.67217  0.77040  1.0000
  C   C2337     1.0  0.38124  0.68342  0.79185  1.0000
  H   H3725     1.0  0.62671  0.68643  0.77902  1.0000
  C   C2338     1.0  0.39598  0.69749  0.77491  1.0000
  H   H3726     1.0  0.39032  0.67643  0.79586  1.0000
  H   H3727     1.0  0.40547  0.69100  0.77848  1.0000
  H   H3728     1.0  0.63805  0.81479  0.84857  1.0000
  H   H3729     1.0  0.65171  0.81370  0.96577  1.0000
  H   H3730     1.0  0.62958  0.82617  0.88847  1.0000
  H   H3731     1.0  0.64154  0.70358  0.77252  1.0000
  H   H3732     1.0  0.61875  0.71167  0.74749  1.0000
  H   H3733     1.0  0.62536  0.69548  0.74212  1.0000
  S   S939      1.0  0.38328  0.73130  0.75990  1.0000
  C   C2339     1.0  0.62293  0.69127  0.76934  1.0000
  H   H3734     1.0  0.33498  0.84462  0.83139  1.0000
  C   C2340     1.0  0.65816  0.79726  0.82393  1.0000
  H   H3735     1.0  0.44807  0.74749  0.84240  1.0000
  Fe  Fe479     1.0  0.39202  0.78766  0.79179  1.0000
  S   S940      1.0  0.39921  0.80560  0.79414  1.0000
  C   C2341     1.0  0.62005  0.88840  0.81405  1.0000
  Fe  Fe480     1.0  0.38983  0.77413  0.82183  1.0000
  S   S941      1.0  0.39603  0.79095  0.82701  1.0000
  C   C2342     1.0  0.66261  0.79397  0.91900  1.0000
  Fe  Fe481     1.0  0.38242  0.80520  0.81326  1.0000
  S   S942      1.0  0.37067  0.82456  0.82057  1.0000
  Fe  Fe482     1.0  0.41238  0.79010  0.80773  1.0000
  S   S943      1.0  0.43388  0.79082  0.80886  1.0000
  S   S944      1.0  0.37408  0.78845  0.81014  1.0000
  S   S945      1.0  0.40721  0.77212  0.80328  1.0000
  H   H3736     1.0  0.63085  0.85903  0.80156  1.0000
  Fe  Fe483     1.0  0.58786  0.85110  0.86706  1.0000
  S   S946      1.0  0.57146  0.87067  0.86736  1.0000
  S   S947      1.0  0.59835  0.83903  0.88458  1.0000
  Fe  Fe484     1.0  0.58960  0.85186  0.83720  1.0000
  S   S948      1.0  0.57344  0.87137  0.83503  1.0000
  S   S949      1.0  0.60069  0.84526  0.81725  1.0000
  Fe  Fe485     1.0  0.58451  0.87841  0.84693  1.0000
  S   S950      1.0  0.58909  0.89949  0.83827  1.0000
  Fe  Fe486     1.0  0.56160  0.86196  0.85545  1.0000
  S   S951      1.0  0.53809  0.86807  0.85820  1.0000
  S   S952      1.0  0.60166  0.85965  0.84750  1.0000
  S   S953      1.0  0.57697  0.84157  0.85677  1.0000
  Fe  Fe487     1.0  0.63313  0.85758  0.96123  1.0000
  H   H3737     1.0  0.37284  0.95775  0.90237  1.0000
  Fe  Fe488     1.0  0.62360  0.86644  0.93397  1.0000
  C   C2343     1.0  0.34363  0.68921  0.75126  1.0000
  S   S954      1.0  0.60575  0.87413  0.92306  1.0000
  S   S955      1.0  0.65955  0.78038  0.91375  1.0000
  C   C2344     1.0  0.44179  0.74101  0.84073  1.0000
  C   C2345     1.0  0.65685  0.95599  0.89703  1.0000
  H   H3738     1.0  0.36107  0.65954  0.74044  1.0000
  S   S956      1.0  0.63039  0.84570  0.94700  1.0000
  S   S957      1.0  0.62417  0.87814  0.94932  1.0000
  Fe  Fe489     1.0  0.62825  0.93657  0.86424  1.0000
  S   S958      1.0  0.64901  0.92584  0.85393  1.0000
  S   S959      1.0  0.61247  0.92367  0.87550  1.0000
  Fe  Fe490     1.0  0.63683  0.96418  0.85765  1.0000
  H   H3739     1.0  0.35544  0.90516  0.80093  1.0000
  Fe  Fe491     1.0  0.64763  0.94487  0.83729  1.0000
  C   C2346     1.0  0.42340  0.76079  0.83622  1.0000
  C   C2347     1.0  0.34246  0.90461  0.91775  1.0000
  H   H3740     1.0  0.41246  0.85830  0.95591  1.0000
  S   S960      1.0  0.62603  0.95499  0.84696  1.0000
  S   S961      1.0  0.63719  0.94640  0.87583  1.0000
  Fe  Fe492     1.0  0.44837  0.84639  0.84054  1.0000
  S   S962      1.0  0.46133  0.82973  0.85359  1.0000
  S   S963      1.0  0.43567  0.84426  0.82656  1.0000
  Fe  Fe493     1.0  0.45083  0.86874  0.85319  1.0000
  S   S964      1.0  0.46384  0.85421  0.86753  1.0000
  S   S965      1.0  0.44399  0.89097  0.85472  1.0000
  Fe  Fe494     1.0  0.47536  0.84461  0.84942  1.0000
  S   S966      1.0  0.49852  0.83536  0.84786  1.0000
  Fe  Fe495     1.0  0.44922  0.84042  0.87082  1.0000
  S   S967      1.0  0.44155  0.82815  0.89166  1.0000
  S   S968      1.0  0.46353  0.86046  0.83450  1.0000
  S   S969      1.0  0.43500  0.85583  0.85833  1.0000
  Fe  Fe496     1.0  0.35756  0.84424  0.93364  1.0000
  Fe  Fe497     1.0  0.37707  0.86056  0.93692  1.0000
  S   S970      1.0  0.36052  0.87192  0.95167  1.0000
  S   S971      1.0  0.39808  0.86616  0.92990  1.0000
  Fe  Fe498     1.0  0.35509  0.85130  0.96139  1.0000
  H   H3741     1.0  0.37929  0.81749  0.84604  1.0000
  H   H3742     1.0  0.38401  0.96908  0.90092  1.0000
  S   S972      1.0  0.37269  0.83972  0.94739  1.0000
  S   S973      1.0  0.36367  0.86411  0.92197  1.0000
  H   H3743     1.0  0.34951  0.89602  0.81812  1.0000
  H   H3744     1.0  0.64356  0.67792  0.75197  1.0000
  Fe  Fe499     1.0  0.37639  0.93763  0.84105  1.0000
  S   S974      1.0  0.38135  0.95025  0.85294  1.0000
  S   S975      1.0  0.39101  0.92166  0.82969  1.0000
  Fe  Fe500     1.0  0.36397  0.94348  0.86974  1.0000
  S   S976      1.0  0.36806  0.93603  0.89111  1.0000
  Fe  Fe501     1.0  0.36454  0.96726  0.84509  1.0000
  H   H3745     1.0  0.35611  0.85223  0.82136  1.0000
  S   S977      1.0  0.36039  0.92944  0.85854  1.0000
  S   S978      1.0  0.36109  0.95509  0.83146  1.0000
  C   C2348     1.0  0.65647  0.81768  0.88958  1.0000
  H   H3746     1.0  0.57271  0.83921  0.82866  1.0000
  Fe  Fe502     1.0  0.62249  0.77953  0.79380  1.0000
  S   S979      1.0  0.62008  0.78175  0.77222  1.0000
  S   S980      1.0  0.60529  0.78459  0.81177  1.0000
  Fe  Fe503     1.0  0.65377  0.77128  0.78670  1.0000
  C   C2349     1.0  0.65490  0.75848  0.83492  1.0000
  C   C2350     1.0  0.54261  0.84386  0.81835  1.0000
  Fe  Fe504     1.0  0.63802  0.79231  0.76626  1.0000
  H   H3747     1.0  0.65273  0.81922  0.83539  1.0000
  Fe  Fe505     1.0  0.63649  0.76218  0.77212  1.0000
  C   C2351     1.0  0.33407  0.83297  0.79456  1.0000
  S   S981      1.0  0.63921  0.79160  0.78774  1.0000
  S   S982      1.0  0.63726  0.75887  0.79441  1.0000
  S   S983      1.0  0.65430  0.77302  0.76450  1.0000
  C   C2352     1.0  0.34996  0.76822  0.86051  1.0000
  H   H3748     1.0  0.36622  0.84650  0.77317  1.0000
  C   C2353     1.0  0.63436  0.73849  0.73930  1.0000
  C   C2354     1.0  0.36405  0.84775  0.78369  1.0000
  H   H3749     1.0  0.63140  0.87950  0.78273  1.0000
  H   H3750     1.0  0.38917  0.97303  0.87522  1.0000
  H   H3751     1.0  0.61363  0.78098  0.74476  1.0000
  C   C2355     1.0  0.64001  0.82745  0.76480  1.0000
  C   C2356     1.0  0.64189  0.83975  0.76680  1.0000
  H   H3752     1.0  0.63730  0.81950  0.77357  1.0000
  H   H3753     1.0  0.64070  0.84120  0.77710  1.0000
  C   C2357     1.0  0.34205  0.82252  0.90668  1.0000
  C   C2358     1.0  0.35448  0.97615  0.88887  1.0000
  H   H3754     1.0  0.37689  0.69160  0.79801  1.0000
  H   H3755     1.0  0.60979  0.75616  0.76166  1.0000
  C   C2359     1.0  0.35606  0.86018  0.78720  1.0000
  H   H3756     1.0  0.66569  0.81666  0.89384  1.0000
  H   H3757     1.0  0.47474  0.82516  0.87556  1.0000
  H   H3758     1.0  0.34348  0.80607  0.79352  1.0000
  H   H3759     1.0  0.64043  0.88607  0.79140  1.0000
  H   H3760     1.0  0.64523  0.78413  0.84822  1.0000
  C   C2360     1.0  0.35239  0.66745  0.74390  1.0000
  H   H3761     1.0  0.38303  0.75886  0.74233  1.0000
  H   H3762     1.0  0.34682  0.91958  0.83245  1.0000
  H   H3763     1.0  0.34743  0.87141  0.80350  1.0000
  S   S984      1.0  0.66186  0.78520  0.87549  1.0000
  H   H3764     1.0  0.35221  0.81482  0.80875  1.0000
  H   H3765     1.0  0.43152  0.73086  0.82501  1.0000
  H   H3766     1.0  0.62307  0.86081  0.81898  1.0000
  S   S985      1.0  0.34734  0.96130  0.86287  1.0000
  H   H3767     1.0  0.65677  0.98827  0.84900  1.0000
  C   C2361     1.0  0.35453  0.90541  0.92116  1.0000
  C   C2362     1.0  0.36215  0.91532  0.91312  1.0000
  C   C2363     1.0  0.35806  0.92406  0.90132  1.0000
  C   C2364     1.0  0.65723  0.76147  0.82050  1.0000
  H   H3768     1.0  0.41765  0.73633  0.83880  1.0000
  C   C2365     1.0  0.65780  0.84085  0.87727  1.0000
  H   H3769     1.0  0.37120  0.91618  0.91608  1.0000
  C   C2366     1.0  0.42967  0.89963  0.84719  1.0000
  C   C2367     1.0  0.42466  0.89322  0.83974  1.0000
  C   C2368     1.0  0.41288  0.90012  0.83423  1.0000
  C   C2369     1.0  0.40597  0.91336  0.83632  1.0000
  C   C2370     1.0  0.41101  0.91977  0.84375  1.0000
  C   C2371     1.0  0.42287  0.91293  0.84913  1.0000
  H   H3770     1.0  0.42995  0.88300  0.83809  1.0000
  H   H3771     1.0  0.40911  0.89515  0.82841  1.0000
  H   H3772     1.0  0.40593  0.93008  0.84515  1.0000
  H   H3773     1.0  0.42677  0.91795  0.85482  1.0000
  C   C2372     1.0  0.42941  0.83882  0.90212  1.0000
  C   C2373     1.0  0.41750  0.83444  0.91062  1.0000
  C   C2374     1.0  0.40772  0.84292  0.91899  1.0000
  C   C2375     1.0  0.41009  0.85555  0.91929  1.0000
  C   C2376     1.0  0.42215  0.85981  0.91099  1.0000
  C   C2377     1.0  0.43165  0.85159  0.90219  1.0000
  H   H3774     1.0  0.41572  0.82459  0.91055  1.0000
  H   H3775     1.0  0.39843  0.83956  0.92531  1.0000
  H   H3776     1.0  0.42408  0.86953  0.91123  1.0000
  H   H3777     1.0  0.44082  0.85503  0.89564  1.0000
  C   C2378     1.0  0.64777  0.81051  0.84162  1.0000
  C   C2379     1.0  0.38559  0.77130  0.75503  1.0000
  N   N235      1.0  0.64492  0.80287  0.83278  1.0000
  C   C2380     1.0  0.35662  0.91160  0.83124  1.0000
  N   N236      1.0  0.36880  0.97716  0.88831  1.0000
  H   H3778     1.0  0.35506  0.93185  0.80891  1.0000
  H   H3779     1.0  0.64073  0.92095  0.83163  1.0000
  H   H3780     1.0  0.62470  0.89643  0.78649  1.0000
  H   H3781     1.0  0.55761  0.86349  0.81062  1.0000
  N   N237      1.0  0.62174  0.87984  0.80402  1.0000
  H   H3782     1.0  0.63027  0.88930  0.81515  1.0000
  H   H3783     1.0  0.53951  0.84531  0.80843  1.0000
  C   C2381     1.0  0.35178  0.90608  0.81191  1.0000
  N   N238      1.0  0.43295  0.74891  0.83084  1.0000
  H   H3784     1.0  0.53869  0.83485  0.82545  1.0000
  H   H3785     1.0  0.62833  0.79529  0.84833  1.0000
  H   H3786     1.0  0.34165  0.77730  0.86003  1.0000
  S   S986      1.0  0.38840  0.75494  0.83804  1.0000
  H   H3787     1.0  0.37869  0.96092  0.87724  1.0000
  H   H3788     1.0  0.56026  0.85529  0.79646  1.0000
  H   H3789     1.0  0.63947  0.86561  0.81073  1.0000
  H   H3790     1.0  0.63751  0.84763  0.89891  1.0000
  C   C2382     1.0  0.60789  0.87952  0.80245  1.0000
  C   C2383     1.0  0.56266  0.85384  0.80671  1.0000
  C   C2384     1.0  0.52722  0.85863  0.85563  1.0000
  C   C2385     1.0  0.51366  0.86539  0.85403  1.0000
  C   C2386     1.0  0.50473  0.85835  0.85175  1.0000
  C   C2387     1.0  0.50932  0.84448  0.85100  1.0000
  C   C2388     1.0  0.52280  0.83762  0.85287  1.0000
  C   C2389     1.0  0.53168  0.84464  0.85529  1.0000
  H   H3791     1.0  0.51005  0.87618  0.85445  1.0000
  H   H3792     1.0  0.49435  0.86373  0.85040  1.0000
  H   H3793     1.0  0.52632  0.82680  0.85257  1.0000
  H   H3794     1.0  0.54186  0.83920  0.85714  1.0000
  C   C2390     1.0  0.59671  0.90539  0.84836  1.0000
  C   C2391     1.0  0.60234  0.91716  0.84273  1.0000
  C   C2392     1.0  0.60768  0.92254  0.85087  1.0000
  C   C2393     1.0  0.60704  0.91639  0.86478  1.0000
  C   C2394     1.0  0.60155  0.90454  0.87037  1.0000
  C   C2395     1.0  0.59662  0.89890  0.86212  1.0000
  H   H3795     1.0  0.60253  0.92218  0.83206  1.0000
  H   H3796     1.0  0.61193  0.93168  0.84647  1.0000
  H   H3797     1.0  0.60119  0.89968  0.88108  1.0000
  H   H3798     1.0  0.59248  0.88970  0.86650  1.0000
  C   C2396     1.0  0.60030  0.84878  0.89535  1.0000
  C   C2397     1.0  0.59558  0.86307  0.89289  1.0000
  C   C2398     1.0  0.59723  0.87070  0.90154  1.0000
  C   C2399     1.0  0.60399  0.86417  0.91243  1.0000
  C   C2400     1.0  0.60889  0.84989  0.91483  1.0000
  C   C2401     1.0  0.60687  0.84219  0.90641  1.0000
  H   H3799     1.0  0.59057  0.86824  0.88441  1.0000
  H   H3800     1.0  0.59328  0.88171  0.89975  1.0000
  H   H3801     1.0  0.61386  0.84475  0.92340  1.0000
  H   H3802     1.0  0.61029  0.83111  0.90854  1.0000
  C   C2402     1.0  0.60181  0.82834  0.81610  1.0000
  C   C2403     1.0  0.59728  0.81859  0.82762  1.0000
  C   C2404     1.0  0.59815  0.80517  0.82624  1.0000
  C   C2405     1.0  0.60365  0.80150  0.81339  1.0000
  C   C2406     1.0  0.60802  0.81132  0.80190  1.0000
  C   C2407     1.0  0.60719  0.82468  0.80327  1.0000
  H   H3803     1.0  0.59321  0.82131  0.83759  1.0000
  H   H3804     1.0  0.59476  0.79757  0.83515  1.0000
  H   H3805     1.0  0.61183  0.80871  0.79187  1.0000
  H   H3806     1.0  0.61062  0.83222  0.79430  1.0000
  C   C2408     1.0  0.65757  0.89922  0.80964  1.0000
  H   H3807     1.0  0.57641  0.82750  0.80920  1.0000
  H   H3808     1.0  0.65261  0.83660  0.90474  1.0000
  H   H3809     1.0  0.53695  0.85306  0.82286  1.0000
  C   C2409     1.0  0.35485  0.67900  0.74676  1.0000
  H   H3810     1.0  0.34413  0.81934  0.86896  1.0000
  C   C2410     1.0  0.43435  0.80463  0.81568  1.0000
  C   C2411     1.0  0.44719  0.80708  0.81576  1.0000
  C   C2412     1.0  0.44773  0.81874  0.82010  1.0000
  C   C2413     1.0  0.43542  0.82797  0.82439  1.0000
  C   C2414     1.0  0.42259  0.82515  0.82488  1.0000
  C   C2415     1.0  0.42204  0.81357  0.82051  1.0000
  H   H3811     1.0  0.45676  0.80023  0.81203  1.0000
  H   H3812     1.0  0.45768  0.82093  0.81951  1.0000
  H   H3813     1.0  0.41306  0.83216  0.82840  1.0000
  H   H3814     1.0  0.41209  0.81182  0.82051  1.0000
  C   C2416     1.0  0.36561  0.83828  0.80752  1.0000
  C   C2417     1.0  0.36866  0.83672  0.79389  1.0000
  N   N239      1.0  0.66402  0.81957  0.97635  1.0000
  H   H3815     1.0  0.63993  0.82961  0.87138  1.0000
  H   H3816     1.0  0.37427  0.82696  0.79123  1.0000
  H   H3817     1.0  0.41643  0.75748  0.84626  1.0000
  S   S987      1.0  0.63942  0.74489  0.76121  1.0000
  C   C2418     1.0  0.37287  0.75588  0.85065  1.0000
  C   C2419     1.0  0.36215  0.76769  0.85007  1.0000
  C   C2420     1.0  0.37317  0.96875  0.90105  1.0000
  C   C2421     1.0  0.65365  0.81406  0.92951  1.0000
  H   H3818     1.0  0.36321  0.77636  0.84155  1.0000
  S   S988      1.0  0.62841  0.98537  0.86298  1.0000
  H   H3819     1.0  0.41479  0.86315  0.97052  1.0000
  Fe  Fe506     1.0  0.34661  0.87362  0.93752  1.0000
  C   C2422     1.0  0.38775  0.75968  0.77825  1.0000
  S   S989      1.0  0.35754  0.83115  0.91917  1.0000
  H   H3820     1.0  0.64989  0.81073  0.89696  1.0000
  H   H3821     1.0  0.38904  0.75984  0.78827  1.0000
  C   C2423     1.0  0.62912  0.86569  0.80904  1.0000
  H   H3822     1.0  0.61448  0.88393  0.82445  1.0000
  N   N240      1.0  0.61099  0.91367  0.91669  1.0000
  C   C2424     1.0  0.61818  0.90424  0.90715  1.0000
  C   C2425     1.0  0.62115  0.91570  0.92340  1.0000
  C   C2426     1.0  0.60001  0.90768  0.92726  1.0000
  C   C2427     1.0  0.60461  0.92705  0.90893  1.0000
  H   H3823     1.0  0.61078  0.90218  0.90214  1.0000
  H   H3824     1.0  0.62333  0.89412  0.91261  1.0000
  H   H3825     1.0  0.62627  0.90859  0.89877  1.0000
  H   H3826     1.0  0.61608  0.92251  0.93090  1.0000
  H   H3827     1.0  0.62637  0.90575  0.92912  1.0000
  H   H3828     1.0  0.62949  0.92037  0.91573  1.0000
  H   H3829     1.0  0.59250  0.90546  0.92249  1.0000
  H   H3830     1.0  0.59408  0.91463  0.93445  1.0000
  H   H3831     1.0  0.60450  0.89773  0.93353  1.0000
  H   H3832     1.0  0.59908  0.93446  0.91576  1.0000
  H   H3833     1.0  0.59697  0.92582  0.90365  1.0000
  H   H3834     1.0  0.61260  0.93181  0.90077  1.0000
  H   H3835     1.0  0.63279  0.80674  0.81750  1.0000
  H   H3836     1.0  0.35399  0.82716  0.85306  1.0000
  H   H3837     1.0  0.37248  0.92713  0.81152  1.0000
  H   H3838     1.0  0.41650  0.84531  0.97061  1.0000
  S   S990      1.0  0.36046  0.72104  0.74202  1.0000
  H   H3839     1.0  0.35086  0.98224  0.87937  1.0000
  N   N241      1.0  0.54850  0.91267  0.85905  1.0000
  C   C2428     1.0  0.55704  0.90628  0.86952  1.0000
  C   C2429     1.0  0.55411  0.92433  0.84948  1.0000
  C   C2430     1.0  0.53395  0.91767  0.86592  1.0000
  C   C2431     1.0  0.54890  0.90235  0.85130  1.0000
  H   H3840     1.0  0.55308  0.89749  0.87700  1.0000
  H   H3841     1.0  0.55724  0.91380  0.87542  1.0000
  H   H3842     1.0  0.56801  0.90223  0.86464  1.0000
  H   H3843     1.0  0.54803  0.92932  0.84133  1.0000
  H   H3844     1.0  0.55398  0.93232  0.85497  1.0000
  H   H3845     1.0  0.56513  0.92088  0.84421  1.0000
  H   H3846     1.0  0.52941  0.90905  0.87312  1.0000
  H   H3847     1.0  0.52722  0.92259  0.85831  1.0000
  H   H3848     1.0  0.53325  0.92539  0.87198  1.0000
  H   H3849     1.0  0.55970  0.89848  0.84583  1.0000
  H   H3850     1.0  0.54240  0.90669  0.84343  1.0000
  H   H3851     1.0  0.54497  0.89329  0.85824  1.0000
  H   H3852     1.0  0.37966  0.89857  0.80479  1.0000
  Fe  Fe507     1.0  0.66392  0.86614  0.76599  1.0000
  C   C2432     1.0  0.36560  0.80090  0.87798  1.0000
  H   H3853     1.0  0.37314  0.67736  0.79376  1.0000
  H   H3854     1.0  0.44802  0.76085  0.81848  1.0000
  C   C2433     1.0  0.63543  0.81226  0.82408  1.0000
  C   C2434     1.0  0.64471  0.85043  0.75548  1.0000
  C   C2435     1.0  0.62860  0.74519  0.75037  1.0000
  H   H3855     1.0  0.33862  0.85597  0.91040  1.0000
  H   H3856     1.0  0.35433  0.90177  0.83804  1.0000
  C   C2436     1.0  0.61435  0.75107  0.75306  1.0000
  H   H3857     1.0  0.39155  0.87897  0.97186  1.0000
  S   S991      1.0  0.65538  0.94235  0.81525  1.0000
  H   H3858     1.0  0.38682  0.73823  0.78358  1.0000
  H   H3859     1.0  0.36988  0.79006  0.85574  1.0000
  H   H3860     1.0  0.65502  0.80373  0.84821  1.0000
  H   H3861     1.0  0.34548  0.69810  0.75356  1.0000
  H   H3862     1.0  0.56174  0.81992  0.81811  1.0000
  H   H3863     1.0  0.37575  0.70336  0.76116  1.0000
  C   C2437     1.0  0.38733  0.77167  0.76799  1.0000
  H   H3864     1.0  0.36876  0.92315  0.79713  1.0000
  C   C2438     1.0  0.42472  0.74001  0.82897  1.0000
  C   C2439     1.0  0.34249  0.82616  0.91869  1.0000
  C   C2440     1.0  0.37916  0.81167  0.85682  1.0000
  C   C2441     1.0  0.60585  0.74972  0.74499  1.0000
  H   H3865     1.0  0.34694  0.98003  0.89775  1.0000
  C   C2442     1.0  0.56488  0.82925  0.81091  1.0000
  H   H3866     1.0  0.61403  0.89903  0.81093  1.0000
  H   H3867     1.0  0.55829  0.83115  0.83730  1.0000
  C   C2443     1.0  0.35916  0.74508  0.87190  1.0000
  C   C2444     1.0  0.63836  0.79145  0.84150  1.0000
  H   H3868     1.0  0.64306  0.89717  0.82926  1.0000
  N   N242      1.0  0.55786  0.84182  0.81643  1.0000
  H   H3869     1.0  0.36154  0.80535  0.84532  1.0000
  C   C2445     1.0  0.62990  0.88572  0.79057  1.0000
  H   H3870     1.0  0.55602  0.84956  0.83439  1.0000
  C   C2446     1.0  0.64414  0.83634  0.74022  1.0000
  Fe  Fe508     1.0  0.65196  0.84822  0.93573  1.0000
  H   H3871     1.0  0.60210  0.89000  0.79846  1.0000
  C   C2447     1.0  0.65152  0.80248  0.92628  1.0000
  H   H3872     1.0  0.60878  0.87284  0.79521  1.0000
  C   C2448     1.0  0.34848  0.75689  0.87145  1.0000
  H   H3873     1.0  0.34174  0.91374  0.81269  1.0000
  H   H3874     1.0  0.48912  0.81080  0.87542  1.0000
  S   S992      1.0  0.64504  0.86800  0.92139  1.0000
  H   H3875     1.0  0.60142  0.87536  0.81248  1.0000
  H   H3876     1.0  0.36834  0.80696  0.88394  1.0000
  N   N243      1.0  0.39636  0.89189  0.88615  1.0000
  C   C2449     1.0  0.40885  0.88323  0.87905  1.0000
  C   C2450     1.0  0.40011  0.89678  0.89661  1.0000
  C   C2451     1.0  0.39089  0.90387  0.87603  1.0000
  H   H3877     1.0  0.41289  0.87377  0.88625  1.0000
  H   H3878     1.0  0.41745  0.88886  0.87443  1.0000
  H   H3879     1.0  0.40666  0.87992  0.87057  1.0000
  H   H3880     1.0  0.40383  0.88804  0.90468  1.0000
  H   H3881     1.0  0.40850  0.90267  0.89190  1.0000
  H   H3882     1.0  0.39101  0.90367  0.90186  1.0000
  H   H3883     1.0  0.38111  0.91029  0.88093  1.0000
  H   H3884     1.0  0.38862  0.90066  0.86753  1.0000
  H   H3885     1.0  0.39849  0.91064  0.87128  1.0000
  N   N244      1.0  0.41007  0.84474  0.78714  1.0000
  C   C2452     1.0  0.40010  0.84318  0.80055  1.0000
  C   C2453     1.0  0.42277  0.83372  0.78785  1.0000
  C   C2454     1.0  0.41386  0.85828  0.78387  1.0000
  C   C2455     1.0  0.40355  0.84383  0.77633  1.0000
  H   H3886     1.0  0.40438  0.84453  0.80881  1.0000
  H   H3887     1.0  0.39754  0.83280  0.80374  1.0000
  H   H3888     1.0  0.39013  0.85090  0.80020  1.0000
  H   H3889     1.0  0.42033  0.82330  0.79074  1.0000
  H   H3890     1.0  0.43038  0.83434  0.77781  1.0000
  H   H3891     1.0  0.42816  0.83436  0.79564  1.0000
  H   H3892     1.0  0.40453  0.86684  0.78332  1.0000
  H   H3893     1.0  0.42138  0.85982  0.77381  1.0000
  H   H3894     1.0  0.41884  0.85925  0.79185  1.0000
  H   H3895     1.0  0.41077  0.84493  0.76605  1.0000
  H   H3896     1.0  0.39393  0.85200  0.77555  1.0000
  H   H3897     1.0  0.40051  0.83377  0.77853  1.0000
  H   H3898     1.0  0.43546  0.76001  0.80979  1.0000
  H   H3899     1.0  0.64493  0.75649  0.84101  1.0000
  S   S993      1.0  0.34940  0.87348  0.77461  1.0000
  N   N245      1.0  0.36536  0.80846  0.86367  1.0000
  H   H3900     1.0  0.66036  0.81373  0.87991  1.0000
  S   S994      1.0  0.65512  0.85868  0.95074  1.0000
  H   H3901     1.0  0.39225  0.84906  0.95768  1.0000
  H   H3902     1.0  0.35384  0.96529  0.88989  1.0000
  H   H3903     1.0  0.64011  0.82088  0.81717  1.0000
  Fe  Fe509     1.0  0.65780  0.93741  0.86370  1.0000
  H   H3904     1.0  0.41792  0.74567  0.82154  1.0000
  H   H3905     1.0  0.64819  0.83171  0.96553  1.0000
  C   C2456     1.0  0.33871  0.66621  0.74532  1.0000
  H   H3906     1.0  0.34066  0.82624  0.81928  1.0000
  H   H3907     1.0  0.38325  0.90266  0.81914  1.0000
  C   C2457     1.0  0.38788  0.87124  0.96877  1.0000
  H   H3908     1.0  0.35803  0.73631  0.88032  1.0000
  H   H3909     1.0  0.61341  0.69936  0.77171  1.0000
  C   C2458     1.0  0.36201  0.79989  0.85610  1.0000
  C   C2459     1.0  0.64765  0.91738  0.82272  1.0000
  C   C2460     1.0  0.64884  0.90395  0.82126  1.0000
  S   S995      1.0  0.33949  0.85397  0.94844  1.0000
  H   H3910     1.0  0.63014  0.84358  0.87975  1.0000
  H   H3911     1.0  0.64501  0.82072  0.93489  1.0000
  C   C2461     1.0  0.56135  0.84036  0.82980  1.0000
  N   N246      1.0  0.48462  0.82075  0.89253  1.0000
  C   C2462     1.0  0.49420  0.83015  0.88531  1.0000
  C   C2463     1.0  0.47229  0.82799  0.90126  1.0000
  C   C2464     1.0  0.49185  0.80860  0.90122  1.0000
  C   C2465     1.0  0.48013  0.81623  0.88230  1.0000
  H   H3912     1.0  0.50351  0.82507  0.87847  1.0000
  H   H3913     1.0  0.49788  0.83379  0.89265  1.0000
  H   H3914     1.0  0.48908  0.83942  0.87861  1.0000
  H   H3915     1.0  0.46474  0.82124  0.90671  1.0000
  H   H3916     1.0  0.47522  0.83158  0.90912  1.0000
  H   H3917     1.0  0.46651  0.83715  0.89502  1.0000
  H   H3918     1.0  0.48489  0.80130  0.90676  1.0000
  H   H3919     1.0  0.49539  0.81162  0.90907  1.0000
  H   H3920     1.0  0.50119  0.80291  0.89492  1.0000
  H   H3921     1.0  0.57415  0.85261  0.80513  1.0000
  H   H3922     1.0  0.35073  0.82307  0.89796  1.0000
  C   C2466     1.0  0.64373  0.83687  0.90028  1.0000
  H   H3923     1.0  0.64199  0.82035  0.98095  1.0000
  H   H3924     1.0  0.35691  0.82826  0.86918  1.0000
  H   H3925     1.0  0.62544  0.81688  0.83046  1.0000
  H   H3926     1.0  0.44919  0.74527  0.81305  1.0000
  H   H3927     1.0  0.56237  0.82992  0.80087  1.0000
  H   H3928     1.0  0.47264  0.80934  0.88730  1.0000
  H   H3929     1.0  0.42917  0.76795  0.83753  1.0000
  C   C2467     1.0  0.38558  0.88372  0.89297  1.0000
  C   C2468     1.0  0.63656  0.83291  0.88142  1.0000
  C   C2469     1.0  0.34617  0.92307  0.89772  1.0000
  H   H3930     1.0  0.64121  0.80029  0.92911  1.0000
  H   H3931     1.0  0.38209  0.81806  0.86230  1.0000
  H   H3932     1.0  0.38250  0.87983  0.88540  1.0000
  N   N247      1.0  0.66635  0.96504  0.88840  1.0000
  H   H3933     1.0  0.66311  0.80388  0.76137  1.0000
  C   C2470     1.0  0.38433  0.75903  0.75234  1.0000
  S   S996      1.0  0.66188  0.75513  0.85955  1.0000
  S   S997      1.0  0.38887  0.78724  0.77105  1.0000
  H   H3934     1.0  0.37603  0.88995  0.89849  1.0000
  H   H3935     1.0  0.37955  0.73543  0.86203  1.0000
  C   C2471     1.0  0.38649  0.74744  0.77557  1.0000
  H   H3936     1.0  0.36835  0.70720  0.77779  1.0000
  H   H3937     1.0  0.38939  0.87463  0.90072  1.0000
  H   H3938     1.0  0.41658  0.76681  0.82902  1.0000
  S   S998      1.0  0.64563  0.86644  0.75774  1.0000
  H   H3939     1.0  0.64905  0.76178  0.81558  1.0000
  H   H3940     1.0  0.35777  0.89866  0.93023  1.0000
  H   H3941     1.0  0.65436  0.69018  0.74697  1.0000
  C   C2472     1.0  0.35824  0.85091  0.81087  1.0000
  H   H3942     1.0  0.35528  0.79853  0.88356  1.0000
  C   C2473     1.0  0.66164  0.90411  0.91676  1.0000
  H   H3943     1.0  0.38744  0.80214  0.85639  1.0000
  H   H3944     1.0  0.63607  0.78545  0.83516  1.0000
  Fe  Fe510     1.0  0.34527  0.94772  0.84988  1.0000
  C   C2474     1.0  0.35330  0.86178  0.80077  1.0000
  C   C2475     1.0  0.38478  0.74704  0.76262  1.0000
  H   H3945     1.0  0.65556  0.91084  0.88448  1.0000
  C   C2476     1.0  0.37835  0.97199  0.87630  1.0000
  H   H3946     1.0  0.36474  0.69288  0.77332  1.0000
  Fe  Fe511     1.0  0.64607  0.87825  0.93757  1.0000
  H   H3947     1.0  0.35167  0.79727  0.86096  1.0000
  C   C2477     1.0  0.35467  0.82140  0.86374  1.0000
  H   H3948     1.0  0.64347  0.87160  0.97786  1.0000
  H   H3949     1.0  0.43537  0.73712  0.85092  1.0000
  H   H3950     1.0  0.61972  0.68325  0.76620  1.0000
  N   N248      1.0  0.36209  0.91028  0.81673  1.0000
  H   H3951     1.0  0.33516  0.95560  0.82101  1.0000
  H   H3952     1.0  0.64788  0.89789  0.90822  1.0000
  S   S999      1.0  0.37198  0.68053  0.74479  1.0000
  C   C2478     1.0  0.37133  0.74459  0.86156  1.0000
  C   C2479     1.0  0.65092  0.82132  0.97197  1.0000
  H   H3953     1.0  0.37651  0.87250  0.97321  1.0000
  C   C2480     1.0  0.36472  0.92367  0.80817  1.0000
  H   H3954     1.0  0.37331  0.79091  0.87827  1.0000
  H   H3955     1.0  0.63705  0.83027  0.90807  1.0000
  C   C2481     1.0  0.39028  0.84725  0.96910  1.0000
  C   C2482     1.0  0.37523  0.89978  0.81561  1.0000
  C   C2483     1.0  0.64573  0.84870  0.74222  1.0000
  C   C2484     1.0  0.65539  0.92611  0.81270  1.0000
  H   H3956     1.0  0.44916  0.73196  0.83700  1.0000
  S   S1000     1.0  0.65829  0.95577  0.84629  1.0000
  H   H3957     1.0  0.38526  0.78053  0.74703  1.0000
  H   H3958     1.0  0.64607  0.96017  0.89529  1.0000
  S   S1001     1.0  0.63940  0.81032  0.74840  1.0000
  N   N249      1.0  0.64863  0.83209  0.88714  1.0000
  H   H3959     1.0  0.34288  0.92987  0.88867  1.0000
  N   N250      1.0  0.39546  0.85709  0.97351  1.0000
  C   C2485     1.0  0.64124  0.82569  0.75147  1.0000
  H   H3960     1.0  0.59475  0.75391  0.74732  1.0000
  H   H3961     1.0  0.37888  0.84821  0.97309  1.0000
  C   C2486     1.0  0.33825  0.91350  0.90605  1.0000
  H   H3962     1.0  0.62853  0.71646  0.76481  1.0000
  H   H3963     1.0  0.34460  0.83061  0.78786  1.0000
  H   H3964     1.0  0.65638  0.95476  0.90818  1.0000
  S   S1002     1.0  0.65504  0.89684  0.93393  1.0000
  H   H3965     1.0  0.65644  0.96903  0.87144  1.0000
  H   H3966     1.0  0.66349  0.80558  0.81732  1.0000
  H   H3967     1.0  0.66552  0.79008  0.83021  1.0000
  C   C2487     1.0  0.66108  0.97898  0.89147  1.0000
  H   H3968     1.0  0.33684  0.65734  0.74296  1.0000
  H   H3969     1.0  0.33946  0.80861  0.82325  1.0000
  H   H3970     1.0  0.65999  0.84073  0.97799  1.0000
  H   H3971     1.0  0.66046  0.97882  0.90244  1.0000
  C   C2488     1.0  0.66246  0.83014  0.98426  1.0000
  H   H3972     1.0  0.64329  0.78584  0.73801  1.0000
  S   S1003     1.0  0.66389  0.85596  0.78789  1.0000
  H   H3973     1.0  0.33703  0.87355  0.91084  1.0000
  H   H3974     1.0  0.63844  0.76988  0.74000  1.0000
  H   H3975     1.0  0.65964  0.81369  0.78173  1.0000
  S   S1004     1.0  0.65971  0.88190  0.80893  1.0000
  S   S1005     1.0  0.35244  0.84222  0.98431  1.0000
  H   H3976     1.0  0.65642  0.79143  0.81710  1.0000
  H   H3977     1.0  0.65047  0.98354  0.88936  1.0000
  H   H3978     1.0  0.33625  0.86919  0.89540  1.0000
  C   C2489     1.0  0.66489  0.90811  0.79931  1.0000
  H   H3979     1.0  0.33364  0.84199  0.79883  1.0000
  C   C2490     1.0  0.61621  0.79039  0.73726  1.0000
  H   H3980     1.0  0.64542  0.73412  0.73703  1.0000
  H   H3981     1.0  0.63608  0.70781  0.73721  1.0000
  Fe  Fe512     1.0  0.69738  0.19682  0.12611  1.0000
  C   C2491     1.0  0.67159  0.17887  0.03208  1.0000
  Fe  Fe513     1.0  0.72632  0.18246  0.13073  1.0000
  S   S1006     1.0  0.72748  0.19731  0.14254  1.0000
  S   S1007     1.0  0.74383  0.16458  0.12630  1.0000
  Fe  Fe514     1.0  0.70535  0.19637  0.15277  1.0000
  H   H3982     1.0  0.72198  0.15431  0.14818  1.0000
  Fe  Fe515     1.0  0.71836  0.21341  0.12608  1.0000
  S   S1008     1.0  0.70517  0.17983  0.14261  1.0000
  S   S1009     1.0  0.71876  0.19850  0.11333  1.0000
  Fe  Fe516     1.0  0.72486  0.10955  0.18672  1.0000
  S   S1010     1.0  0.71718  0.12612  0.19888  1.0000
  S   S1011     1.0  0.74467  0.10913  0.17071  1.0000
  Fe  Fe517     1.0  0.70102  0.09538  0.20138  1.0000
  S   S1012     1.0  0.69376  0.07642  0.20157  1.0000
  Fe  Fe518     1.0  0.69622  0.12637  0.19591  1.0000
  S   S1013     1.0  0.70428  0.11133  0.18191  1.0000
  S   S1014     1.0  0.72247  0.09241  0.20519  1.0000
  C   C2492     1.0  0.86364  0.31111  0.13840  1.0000
  H   H3983     1.0  0.69596  0.09084  0.15176  1.0000
  S   S1015     1.0  0.69801  0.19341  0.17582  1.0000
  H   H3984     1.0  0.90549  0.26451  0.22768  1.0000
  H   H3985     1.0  0.67254  0.19847  0.04423  1.0000
  C   C2493     1.0  0.67618  0.21535  0.17195  1.0000
  C   C2494     1.0  0.74938  0.22417  0.12806  1.0000
  H   H3986     1.0  0.83288  0.22887  0.15251  1.0000
  H   H3987     1.0  0.80707  0.21560  0.13433  1.0000
  H   H3988     1.0  0.74268  0.16711  0.15846  1.0000
  H   H3989     1.0  0.84862  0.20186  0.21242  1.0000
  H   H3990     1.0  0.81398  0.28921  0.17235  1.0000
  C   C2495     1.0  0.67923  0.07770  0.19482  1.0000
  S   S1016     1.0  0.68337  0.14750  0.18978  1.0000
  C   C2496     1.0  0.92948  0.24609  0.22068  1.0000
  H   H3991     1.0  0.71797  0.16799  0.16893  1.0000
  C   C2497     1.0  0.69573  0.07981  0.15624  1.0000
  S   S1017     1.0  0.69129  0.11064  0.21522  1.0000
  H   H3992     1.0  0.73979  0.14211  0.19164  1.0000
  S   S1018     1.0  0.68331  0.10656  0.06976  1.0000
  H   H3993     1.0  0.72953  0.18466  0.17264  1.0000
  H   H3994     1.0  0.74725  0.14942  0.16684  1.0000
  C   C2498     1.0  0.73987  0.12227  0.22448  1.0000
  C   C2499     1.0  0.68950  0.06987  0.09602  1.0000
  C   C2500     1.0  0.69074  0.08072  0.08457  1.0000
  H   H3995     1.0  0.68417  0.05762  0.16379  1.0000
  H   H3996     1.0  0.97893  0.31147  0.09731  1.0000
  H   H3997     1.0  0.69685  0.06010  0.09583  1.0000
  H   H3998     1.0  0.69901  0.07925  0.07561  1.0000
  H   H3999     1.0  0.81996  0.29092  0.15408  1.0000
  H   H4000     1.0  0.90198  0.24911  0.22570  1.0000
  H   H4001     1.0  0.72229  0.13239  0.16530  1.0000
  H   H4002     1.0  0.80351  0.23979  0.14740  1.0000
  H   H4003     1.0  0.81553  0.31362  0.13854  1.0000
  H   H4004     1.0  0.75727  0.13203  0.21464  1.0000
  H   H4005     1.0  0.72180  0.15030  0.17742  1.0000
  C   C2501     1.0  0.81141  0.29496  0.16226  1.0000
  H   H4006     1.0  0.68854  0.07935  0.16651  1.0000
  C   C2502     1.0  0.83067  0.22796  0.14283  1.0000
  H   H4007     1.0  0.85258  0.22558  0.20742  1.0000
  N   N251      1.0  0.81885  0.22118  0.14568  1.0000
  C   C2503     1.0  0.94647  0.31563  0.11777  1.0000
  H   H4008     1.0  0.74353  0.27650  0.12794  1.0000
  H   H4009     1.0  0.85674  0.23161  0.22028  1.0000
  C   C2504     1.0  0.73232  0.17703  0.18190  1.0000
  C   C2505     1.0  0.82224  0.20713  0.15397  1.0000
  H   H4010     1.0  0.90182  0.21961  0.21437  1.0000
  H   H4011     1.0  0.74641  0.21438  0.13170  1.0000
  C   C2506     1.0  0.68646  0.18583  0.08340  1.0000
  H   H4012     1.0  0.76784  0.21708  0.13644  1.0000
  C   C2507     1.0  0.68727  0.19010  0.09498  1.0000
  C   C2508     1.0  0.69138  0.05891  0.15352  1.0000
  H   H4013     1.0  0.69317  0.18887  0.07354  1.0000
  N   N252      1.0  0.73414  0.16279  0.18029  1.0000
  H   H4014     1.0  0.69446  0.19649  0.09400  1.0000
  H   H4015     1.0  0.86944  0.21913  0.21166  1.0000
  H   H4016     1.0  0.75536  0.16185  0.16902  1.0000
  C   C2509     1.0  0.80684  0.31707  0.14693  1.0000
  H   H4017     1.0  0.70268  0.13560  0.22584  1.0000
  C   C2510     1.0  0.74370  0.14914  0.13860  1.0000
  C   C2511     1.0  0.75596  0.13899  0.13855  1.0000
  C   C2512     1.0  0.75617  0.12662  0.14834  1.0000
  C   C2513     1.0  0.74408  0.12430  0.15811  1.0000
  C   C2514     1.0  0.73171  0.13427  0.15792  1.0000
  C   C2515     1.0  0.73154  0.14672  0.14822  1.0000
  H   H4018     1.0  0.76537  0.14075  0.13106  1.0000
  H   H4019     1.0  0.76574  0.11887  0.14843  1.0000
  C   C2516     1.0  0.89335  0.22669  0.21945  1.0000
  H   H4020     1.0  0.73886  0.12036  0.21503  1.0000
  H   H4021     1.0  0.94031  0.24326  0.21471  1.0000
  H   H4022     1.0  0.74766  0.15428  0.19466  1.0000
  H   H4023     1.0  0.77384  0.31746  0.12632  1.0000
  C   C2517     1.0  0.67278  0.19890  0.19349  1.0000
  C   C2518     1.0  0.76162  0.22572  0.13066  1.0000
  H   H4024     1.0  0.85049  0.19059  0.22868  1.0000
  C   C2519     1.0  0.73794  0.15297  0.19271  1.0000
  C   C2520     1.0  0.74119  0.23521  0.12063  1.0000
  C   C2521     1.0  0.74534  0.16021  0.16813  1.0000
  H   H4025     1.0  0.70069  0.08573  0.12843  1.0000
  N   N253      1.0  0.80966  0.30996  0.16067  1.0000
  H   H4026     1.0  0.83168  0.30910  0.15431  1.0000
  C   C2522     1.0  0.67873  0.07148  0.10757  1.0000
  C   C2523     1.0  0.87600  0.24810  0.21821  1.0000
  H   H4027     1.0  0.80799  0.23017  0.16330  1.0000
  H   H4028     1.0  0.92563  0.27363  0.21245  1.0000
  H   H4029     1.0  0.72958  0.15432  0.20205  1.0000
  C   C2524     1.0  0.88705  0.23904  0.21166  1.0000
  H   H4030     1.0  0.68354  0.05589  0.19563  1.0000
  C   C2525     1.0  0.72097  0.16096  0.17838  1.0000
  H   H4031     1.0  0.83167  0.20077  0.14846  1.0000
  H   H4032     1.0  0.81352  0.20174  0.15630  1.0000
  H   H4033     1.0  0.71215  0.16317  0.18717  1.0000
  Fe  Fe519     1.0  0.71314  0.10922  0.21715  1.0000
  H   H4034     1.0  0.67619  0.17699  0.15346  1.0000
  H   H4035     1.0  0.72373  0.17941  0.19081  1.0000
  S   S1019     1.0  0.72549  0.23365  0.11760  1.0000
  C   C2526     1.0  0.95483  0.30584  0.09750  1.0000
  H   H4036     1.0  0.80176  0.29229  0.16166  1.0000
  H   H4037     1.0  0.89842  0.26484  0.21341  1.0000
  H   H4038     1.0  0.85859  0.30388  0.13615  1.0000
  H   H4039     1.0  0.95657  0.29519  0.10383  1.0000
  H   H4040     1.0  0.86561  0.19509  0.21637  1.0000
  N   N254      1.0  0.71673  0.15355  0.10587  1.0000
  C   C2527     1.0  0.72811  0.14787  0.09521  1.0000
  C   C2528     1.0  0.71874  0.14555  0.11964  1.0000
  C   C2529     1.0  0.70320  0.15273  0.10388  1.0000
  C   C2530     1.0  0.71693  0.16807  0.10477  1.0000
  H   H4041     1.0  0.73845  0.14845  0.09641  1.0000
  H   H4042     1.0  0.72690  0.15365  0.08468  1.0000
  H   H4043     1.0  0.72836  0.13687  0.09580  1.0000
  H   H4044     1.0  0.71073  0.14995  0.12798  1.0000
  H   H4045     1.0  0.71821  0.13462  0.12107  1.0000
  H   H4046     1.0  0.72910  0.14555  0.12119  1.0000
  H   H4047     1.0  0.69439  0.15709  0.11167  1.0000
  H   H4048     1.0  0.70262  0.14192  0.10470  1.0000
  H   H4049     1.0  0.70140  0.15860  0.09355  1.0000
  H   H4050     1.0  0.71561  0.17442  0.09447  1.0000
  H   H4051     1.0  0.72695  0.16905  0.10637  1.0000
  H   H4052     1.0  0.70840  0.17275  0.11260  1.0000
  H   H4053     1.0  0.82844  0.23862  0.13665  1.0000
  H   H4054     1.0  0.74197  0.17881  0.18350  1.0000
  H   H4055     1.0  0.67288  0.19405  0.15647  1.0000
  N   N255      1.0  0.69120  0.07360  0.14727  1.0000
  H   H4056     1.0  0.82430  0.20735  0.16396  1.0000
  C   C2531     1.0  0.81611  0.22043  0.13256  1.0000
  S   S1020     1.0  0.69605  0.21338  0.13714  1.0000
  C   C2532     1.0  0.80631  0.22920  0.15340  1.0000
  H   H4057     1.0  0.79711  0.22450  0.15564  1.0000
  H   H4058     1.0  0.89060  0.24146  0.20061  1.0000
  H   H4059     1.0  0.67177  0.16202  0.99069  1.0000
  H   H4060     1.0  0.94781  0.30520  0.12458  1.0000
  H   H4061     1.0  0.84035  0.22222  0.13702  1.0000
  H   H4062     1.0  0.68809  0.05389  0.14695  1.0000
  H   H4063     1.0  0.68049  0.18004  0.02317  1.0000
  C   C2533     1.0  0.68130  0.20334  0.18080  1.0000
  H   H4064     1.0  0.79722  0.31503  0.14551  1.0000
  C   C2534     1.0  0.67693  0.08086  0.14573  1.0000
  C   C2535     1.0  0.69339  0.14420  0.22662  1.0000
  C   C2536     1.0  0.82253  0.31288  0.16211  1.0000
  H   H4065     1.0  0.67331  0.07657  0.13885  1.0000
  H   H4066     1.0  0.93050  0.24579  0.19416  1.0000
  H   H4067     1.0  0.75732  0.31768  0.16926  1.0000
  C   C2537     1.0  0.68137  0.09341  0.08460  1.0000
  C   C2538     1.0  0.90591  0.25856  0.21996  1.0000
  H   H4068     1.0  0.69772  0.07001  0.12665  1.0000
  C   C2539     1.0  0.87125  0.24476  0.23250  1.0000
  H   H4069     1.0  0.67216  0.09963  0.19276  1.0000
  H   H4070     1.0  0.87820  0.30066  0.11611  1.0000
  C   C2540     1.0  0.92528  0.26792  0.20484  1.0000
  C   C2541     1.0  0.67695  0.17778  0.08448  1.0000
  C   C2542     1.0  0.85232  0.27295  0.13472  1.0000
  C   C2543     1.0  0.67670  0.06572  0.19282  1.0000
  C   C2544     1.0  0.85447  0.19916  0.22076  1.0000
  H   H4071     1.0  0.82529  0.21439  0.12644  1.0000
  S   S1021     1.0  0.67788  0.05743  0.12167  1.0000
  C   C2545     1.0  0.75034  0.12884  0.22429  1.0000
  H   H4072     1.0  0.96226  0.30577  0.08737  1.0000
  H   H4073     1.0  0.81348  0.23085  0.12604  1.0000
  H   H4074     1.0  0.71165  0.06952  0.13437  1.0000
  C   C2546     1.0  0.88866  0.22341  0.23377  1.0000
  C   C2547     1.0  0.76584  0.23830  0.12583  1.0000
  H   H4075     1.0  0.88987  0.30145  0.12588  1.0000
  C   C2548     1.0  0.67073  0.09524  0.09628  1.0000
  Fe  Fe520     1.0  0.80525  0.26722  0.14238  1.0000
  S   S1022     1.0  0.78320  0.26486  0.14886  1.0000
  Fe  Fe521     1.0  0.80164  0.28333  0.11400  1.0000
  S   S1023     1.0  0.77919  0.28204  0.11787  1.0000
  S   S1024     1.0  0.81415  0.29370  0.09444  1.0000
  Fe  Fe522     1.0  0.77796  0.28682  0.13828  1.0000
  S   S1025     1.0  0.76065  0.30025  0.15039  1.0000
  Fe  Fe523     1.0  0.78646  0.26001  0.12817  1.0000
  H   H4076     1.0  0.73937  0.25631  0.10964  1.0000
  S   S1026     1.0  0.79979  0.28971  0.13370  1.0000
  S   S1027     1.0  0.80910  0.26089  0.12236  1.0000
  S   S1028     1.0  0.81865  0.25793  0.15788  1.0000
  Fe  Fe524     1.0  0.88383  0.27752  0.15706  1.0000
  S   S1029     1.0  0.86774  0.28765  0.17286  1.0000
  S   S1030     1.0  0.87671  0.27548  0.13908  1.0000
  Fe  Fe525     1.0  0.90728  0.27657  0.17016  1.0000
  S   S1031     1.0  0.89318  0.28695  0.18695  1.0000
  S   S1032     1.0  0.93012  0.26903  0.16952  1.0000
  Fe  Fe526     1.0  0.87944  0.27278  0.18816  1.0000
  Fe  Fe527     1.0  0.88292  0.30079  0.17012  1.0000
  S   S1033     1.0  0.96934  0.31135  0.14136  1.0000
  S   S1034     1.0  0.89430  0.26126  0.17255  1.0000
  S   S1035     1.0  0.89832  0.29170  0.15315  1.0000
  H   H4077     1.0  0.97276  0.31960  0.11184  1.0000
  H   H4078     1.0  0.68288  0.21926  0.16251  1.0000
  H   H4079     1.0  0.73691  0.26363  0.17172  1.0000
  S   S1036     1.0  0.78111  0.23970  0.12979  1.0000
  H   H4080     1.0  0.83163  0.21960  0.22463  1.0000
  H   H4081     1.0  0.71750  0.27855  0.16102  1.0000
  H   H4082     1.0  0.83302  0.27102  0.13139  1.0000
  C   C2549     1.0  0.94047  0.28131  0.16189  1.0000
  C   C2550     1.0  0.93471  0.29549  0.15954  1.0000
  C   C2551     1.0  0.94346  0.30497  0.15358  1.0000
  C   C2552     1.0  0.95790  0.30020  0.14976  1.0000
  C   C2553     1.0  0.96353  0.28605  0.15207  1.0000
  C   C2554     1.0  0.95487  0.27666  0.15823  1.0000
  H   H4083     1.0  0.92356  0.29915  0.16246  1.0000
  H   H4084     1.0  0.88932  0.31289  0.10941  1.0000
  H   H4085     1.0  0.97466  0.28231  0.14913  1.0000
  H   H4086     1.0  0.95937  0.26574  0.16003  1.0000
  N   N256      1.0  0.85282  0.21116  0.22679  1.0000
  H   H4087     1.0  0.75120  0.31847  0.23399  1.0000
  C   C2555     1.0  0.85315  0.31593  0.18601  1.0000
  H   H4088     1.0  0.83525  0.30861  0.19936  1.0000
  H   H4089     1.0  0.86049  0.30704  0.19002  1.0000
  C   C2556     1.0  0.83793  0.21609  0.23267  1.0000
  H   H4090     1.0  0.75360  0.25812  0.16104  1.0000
  H   H4091     1.0  0.75089  0.28387  0.13750  1.0000
  C   C2557     1.0  0.81878  0.30747  0.09772  1.0000
  C   C2558     1.0  0.83196  0.31040  0.09154  1.0000
  H   H4092     1.0  0.67682  0.18981  0.20054  1.0000
  C   C2559     1.0  0.80936  0.31553  0.10662  1.0000
  H   H4093     1.0  0.83932  0.30404  0.08479  1.0000
  C   C2560     1.0  0.92004  0.24794  0.20107  1.0000
  H   H4094     1.0  0.79904  0.31355  0.11112  1.0000
  H   H4095     1.0  0.91687  0.23795  0.20579  1.0000
  C   C2561     1.0  0.67838  0.18653  0.10765  1.0000
  H   H4096     1.0  0.94410  0.30836  0.09559  1.0000
  C   C2562     1.0  0.83472  0.26291  0.15255  1.0000
  H   H4097     1.0  0.74273  0.24901  0.14763  1.0000
  S   S1037     1.0  0.86767  0.26349  0.20886  1.0000
  C   C2563     1.0  0.86055  0.27067  0.14432  1.0000
  C   C2564     1.0  0.85578  0.26463  0.15806  1.0000
  C   C2565     1.0  0.84293  0.26065  0.16214  1.0000
  H   H4098     1.0  0.85597  0.27764  0.12409  1.0000
  H   H4099     1.0  0.86211  0.26279  0.16551  1.0000
  C   C2566     1.0  0.83888  0.31690  0.19144  1.0000
  H   H4100     1.0  0.72594  0.25416  0.15830  1.0000
  H   H4101     1.0  0.76127  0.25892  0.11394  1.0000
  C   C2567     1.0  0.75784  0.24932  0.11815  1.0000
  H   H4102     1.0  0.75754  0.26620  0.13603  1.0000
  H   H4103     1.0  0.72874  0.25983  0.13992  1.0000
  N   N257      1.0  0.73776  0.27004  0.14994  1.0000
  C   C2568     1.0  0.73358  0.25774  0.14894  1.0000
  H   H4104     1.0  0.72830  0.29081  0.15236  1.0000
  H   H4105     1.0  0.85720  0.31944  0.11368  1.0000
  S   S1038     1.0  0.67609  0.17287  0.06967  1.0000
  H   H4106     1.0  0.74780  0.27574  0.16278  1.0000
  C   C2569     1.0  0.85812  0.22234  0.21604  1.0000
  H   H4107     1.0  0.69717  0.15391  0.22399  1.0000
  H   H4108     1.0  0.91850  0.27496  0.19793  1.0000
  H   H4109     1.0  0.97275  0.30182  0.11420  1.0000
  H   H4110     1.0  0.72032  0.28425  0.14263  1.0000
  S   S1039     1.0  0.67840  0.19233  0.12226  1.0000
  C   C2570     1.0  0.74787  0.27434  0.13729  1.0000
  H   H4111     1.0  0.92589  0.23633  0.22597  1.0000
  H   H4112     1.0  0.70630  0.07436  0.15800  1.0000
  H   H4113     1.0  0.82483  0.30783  0.17247  1.0000
  C   C2571     1.0  0.74551  0.24779  0.11563  1.0000
  H   H4114     1.0  0.91270  0.25425  0.19439  1.0000
  H   H4115     1.0  0.68937  0.15200  0.98828  1.0000
  C   C2572     1.0  0.76517  0.31610  0.14801  1.0000
  H   H4116     1.0  0.93557  0.31864  0.11632  1.0000
  H   H4117     1.0  0.78797  0.31279  0.17067  1.0000
  H   H4118     1.0  0.68786  0.14455  0.21857  1.0000
  H   H4119     1.0  0.67630  0.09202  0.14126  1.0000
  H   H4120     1.0  0.92984  0.25117  0.22880  1.0000
  H   H4121     1.0  0.70195  0.05310  0.15495  1.0000
  C   C2573     1.0  0.83934  0.26920  0.13885  1.0000
  C   C2574     1.0  0.97091  0.31199  0.10701  1.0000
  C   C2575     1.0  0.88282  0.30786  0.11896  1.0000
  C   C2576     1.0  0.70076  0.07479  0.13359  1.0000
  H   H4122     1.0  0.67726  0.20400  0.02586  1.0000
  H   H4123     1.0  0.93593  0.26574  0.19827  1.0000
  N   N258      1.0  0.92017  0.25514  0.21164  1.0000
  C   C2577     1.0  0.74428  0.26672  0.16192  1.0000
  H   H4124     1.0  0.83935  0.25587  0.17275  1.0000
  H   H4125     1.0  0.79969  0.30997  0.18190  1.0000
  C   C2578     1.0  0.72540  0.28140  0.15157  1.0000
  H   H4126     1.0  0.87036  0.30495  0.14570  1.0000
  H   H4127     1.0  0.67594  0.17470  0.04152  1.0000
  H   H4128     1.0  0.67403  0.17948  0.17053  1.0000
  C   C2579     1.0  0.79784  0.31493  0.17138  1.0000
  H   H4129     1.0  0.67546  0.14492  0.98779  1.0000
  H   H4130     1.0  0.82331  0.31787  0.06544  1.0000
  H   H4131     1.0  0.66936  0.07991  0.15581  1.0000
  N   N259      1.0  0.95665  0.31582  0.10449  1.0000
  H   H4132     1.0  0.93904  0.31589  0.15188  1.0000
  S   S1040     1.0  0.67205  0.14573  0.05363  1.0000
  N   N260      1.0  0.87191  0.31815  0.12572  1.0000
  H   H4133     1.0  0.85542  0.31859  0.14382  1.0000
  H   H4134     1.0  0.87215  0.20368  0.23369  1.0000
  H   H4135     1.0  0.83990  0.32053  0.04280  1.0000
  C   C2580     1.0  0.67030  0.09035  0.19123  1.0000
  C   C2581     1.0  0.66935  0.08423  0.10774  1.0000
  C   C2582     1.0  0.66886  0.17850  0.10873  1.0000
  C   C2583     1.0  0.83575  0.32128  0.09440  1.0000
  C   C2584     1.0  0.67019  0.18376  0.16081  1.0000
  S   S1041     1.0  0.76554  0.13933  0.23548  1.0000
  H   H4136     1.0  0.67301  0.12995  0.23567  1.0000
  C   C2585     1.0  0.77174  0.32231  0.13498  1.0000
  H   H4137     1.0  0.94775  0.32280  0.12349  1.0000
  C   C2586     1.0  0.76243  0.32246  0.15917  1.0000
  H   H4138     1.0  0.88566  0.32177  0.13626  1.0000
  C   C2587     1.0  0.66818  0.15174  0.20207  1.0000
  C   C2588     1.0  0.66836  0.20217  0.03464  1.0000
  C   C2589     1.0  0.66826  0.17398  0.09722  1.0000
  Fe  Fe528     1.0  0.66808  0.12684  0.06952  1.0000
  H   H4139     1.0  0.84604  0.32332  0.08987  1.0000
  H   H4140     1.0  0.66745  0.17339  0.19517  1.0000
  C   C2590     1.0  0.75209  0.13109  0.23650  1.0000
  Fe  Fe529     1.0  0.77524  0.14060  0.25247  1.0000
  S   S1042     1.0  0.79639  0.12695  0.25333  1.0000
  H   H4141     1.0  0.78615  0.13526  0.43429  1.0000
  Fe  Fe530     1.0  0.77683  0.15493  0.27422  1.0000
  S   S1043     1.0  0.79800  0.14244  0.27661  1.0000
  S   S1044     1.0  0.76674  0.17200  0.28590  1.0000
  Fe  Fe531     1.0  0.80304  0.14577  0.25366  1.0000
  C   C2591     1.0  0.76283  0.31877  0.25421  1.0000
  Fe  Fe532     1.0  0.78952  0.12467  0.27621  1.0000
  S   S1045     1.0  0.79490  0.10334  0.28917  1.0000
  S   S1046     1.0  0.78252  0.15980  0.25107  1.0000
  S   S1047     1.0  0.76770  0.13692  0.27553  1.0000
  H   H4142     1.0  0.88243  0.15172  0.47919  1.0000
  H   H4143     1.0  0.90949  0.16084  0.33057  1.0000
  H   H4144     1.0  0.88921  0.16404  0.32009  1.0000
  H   H4145     1.0  0.88561  0.99606  0.37448  1.0000
  Fe  Fe533     1.0  0.88353  0.19864  0.26316  1.0000
  S   S1048     1.0  0.87697  0.17950  0.26314  1.0000
  H   H4146     1.0  0.78001  0.07209  0.26894  1.0000
  Fe  Fe534     1.0  0.86790  0.19916  0.29269  1.0000
  S   S1049     1.0  0.85979  0.18054  0.29473  1.0000
  S   S1050     1.0  0.86155  0.20697  0.31221  1.0000
  Fe  Fe535     1.0  0.88156  0.17202  0.28435  1.0000
  S   S1051     1.0  0.89082  0.15060  0.29471  1.0000
  Fe  Fe536     1.0  0.85599  0.18996  0.27358  1.0000
  S   S1052     1.0  0.83523  0.19336  0.26824  1.0000
  S   S1053     1.0  0.88998  0.19020  0.28354  1.0000
  S   S1054     1.0  0.86222  0.20951  0.27237  1.0000
  Fe  Fe537     1.0  0.78857  0.20049  0.34734  1.0000
  S   S1055     1.0  0.76670  0.19806  0.35061  1.0000
  S   S1056     1.0  0.79603  0.21575  0.32862  1.0000
  Fe  Fe538     1.0  0.79461  0.17807  0.37236  1.0000
  S   S1057     1.0  0.77303  0.17413  0.37795  1.0000
  S   S1058     1.0  0.81223  0.16330  0.38133  1.0000
  Fe  Fe539     1.0  0.77577  0.17537  0.35534  1.0000
  S   S1059     1.0  0.77328  0.15782  0.34770  1.0000
  Fe  Fe540     1.0  0.76596  0.19724  0.37276  1.0000
  H   H4147     1.0  0.88219  0.13405  0.38411  1.0000
  S   S1060     1.0  0.79772  0.17798  0.35004  1.0000
  S   S1061     1.0  0.78751  0.20107  0.36915  1.0000
  Fe  Fe541     1.0  0.93146  0.14765  0.36398  1.0000
  S   S1062     1.0  0.94255  0.12800  0.37561  1.0000
  S   S1063     1.0  0.91417  0.16360  0.37293  1.0000
  Fe  Fe542     1.0  0.94439  0.13976  0.33647  1.0000
  S   S1064     1.0  0.95649  0.11932  0.34565  1.0000
  S   S1065     1.0  0.94550  0.14822  0.31385  1.0000
  Fe  Fe543     1.0  0.93682  0.11795  0.36174  1.0000
  S   S1066     1.0  0.92694  0.09962  0.37137  1.0000
  Fe  Fe544     1.0  0.96138  0.13117  0.35862  1.0000
  S   S1067     1.0  0.98361  0.12487  0.36205  1.0000
  S   S1068     1.0  0.92437  0.13735  0.35142  1.0000
  S   S1069     1.0  0.95063  0.15181  0.34815  1.0000
  Fe  Fe545     1.0  0.84047  0.08925  0.34468  1.0000
  S   S1070     1.0  0.85823  0.07131  0.34055  1.0000
  S   S1071     1.0  0.82784  0.10661  0.33168  1.0000
  Fe  Fe546     1.0  0.84619  0.08880  0.37252  1.0000
  S   S1072     1.0  0.86436  0.07080  0.37097  1.0000
  S   S1073     1.0  0.83795  0.10466  0.38586  1.0000
  Fe  Fe547     1.0  0.87053  0.08112  0.34886  1.0000
  S   S1074     1.0  0.89112  0.08638  0.33698  1.0000
  Fe  Fe548     1.0  0.85077  0.06197  0.36296  1.0000
  S   S1075     1.0  0.85353  0.09959  0.35106  1.0000
  S   S1076     1.0  0.83201  0.07933  0.36642  1.0000
  Fe  Fe549     1.0  0.85676  0.12086  0.44559  1.0000
  S   S1077     1.0  0.86188  0.13939  0.42987  1.0000
  S   S1078     1.0  0.85801  0.10100  0.43965  1.0000
  N   N261      1.0  0.89208  0.17811  0.33065  1.0000
  S   S1079     1.0  0.85753  0.15424  0.45608  1.0000
  Fe  Fe550     1.0  0.84414  0.15113  0.44343  1.0000
  S   S1080     1.0  0.82706  0.16792  0.43545  1.0000
  Fe  Fe551     1.0  0.87468  0.14065  0.44380  1.0000
  S   S1081     1.0  0.89721  0.14191  0.43701  1.0000
  S   S1082     1.0  0.83813  0.13236  0.45843  1.0000
  S   S1083     1.0  0.87105  0.12109  0.45849  1.0000
  S   S1084     1.0  0.84984  0.03949  0.37242  1.0000
  C   C2592     1.0  0.84673  0.02755  0.36464  1.0000
  C   C2593     1.0  0.84317  0.00723  0.35285  1.0000
  C   C2594     1.0  0.84444  0.02036  0.34487  1.0000
  C   C2595     1.0  0.84627  0.03048  0.35072  1.0000
  H   H4148     1.0  0.84414  0.02271  0.33408  1.0000
  H   H4149     1.0  0.84740  0.04051  0.34445  1.0000
  C   C2596     1.0  0.84549  0.10341  0.39966  1.0000
  C   C2597     1.0  0.84470  0.11548  0.40388  1.0000
  C   C2598     1.0  0.84902  0.11485  0.41587  1.0000
  C   C2599     1.0  0.85398  0.10210  0.42381  1.0000
  C   C2600     1.0  0.85528  0.09002  0.41931  1.0000
  C   C2601     1.0  0.85112  0.09067  0.40719  1.0000
  H   H4150     1.0  0.84047  0.12535  0.39796  1.0000
  H   H4151     1.0  0.84808  0.12421  0.41919  1.0000
  H   H4152     1.0  0.85918  0.08012  0.42539  1.0000
  H   H4153     1.0  0.85173  0.08131  0.40399  1.0000
  H   H4154     1.0  0.97931  0.14316  0.33502  1.0000
  C   C2602     1.0  0.87872  0.99561  0.36798  1.0000
  H   H4155     1.0  0.84930  0.15207  0.24831  1.0000
  H   H4156     1.0  0.97996  0.15483  0.35668  1.0000
  C   C2603     1.0  0.71836  0.32006  0.31680  1.0000
  C   C2604     1.0  0.90962  0.15851  0.39087  1.0000
  C   C2605     1.0  0.91973  0.15069  0.39831  1.0000
  C   C2606     1.0  0.91588  0.14588  0.41255  1.0000
  C   C2607     1.0  0.90190  0.14873  0.41935  1.0000
  C   C2608     1.0  0.89180  0.15671  0.41197  1.0000
  C   C2609     1.0  0.89568  0.16172  0.39775  1.0000
  H   H4157     1.0  0.93053  0.14842  0.39309  1.0000
  H   H4158     1.0  0.92373  0.13977  0.41824  1.0000
  H   H4159     1.0  0.88102  0.15917  0.41722  1.0000
  H   H4160     1.0  0.88785  0.16786  0.39204  1.0000
  C   C2610     1.0  0.91681  0.09634  0.36173  1.0000
  C   C2611     1.0  0.91768  0.10254  0.34780  1.0000
  C   C2612     1.0  0.90974  0.09946  0.34025  1.0000
  C   C2613     1.0  0.90063  0.09048  0.34670  1.0000
  C   C2614     1.0  0.89953  0.08456  0.36070  1.0000
  C   C2615     1.0  0.90778  0.08730  0.36813  1.0000
  H   H4161     1.0  0.92473  0.10940  0.34276  1.0000
  H   H4162     1.0  0.91069  0.10402  0.32940  1.0000
  H   H4163     1.0  0.89269  0.07749  0.36570  1.0000
  H   H4164     1.0  0.90721  0.08231  0.37884  1.0000
  C   C2616     1.0  0.81662  0.16582  0.39569  1.0000
  C   C2617     1.0  0.80758  0.17465  0.40405  1.0000
  C   C2618     1.0  0.81104  0.17553  0.41606  1.0000
  C   C2619     1.0  0.82349  0.16755  0.41976  1.0000
  C   C2620     1.0  0.83260  0.15895  0.41123  1.0000
  C   C2621     1.0  0.82919  0.15811  0.39923  1.0000
  H   H4165     1.0  0.79785  0.18065  0.40137  1.0000
  H   H4166     1.0  0.80396  0.18225  0.42259  1.0000
  H   H4167     1.0  0.84226  0.15290  0.41384  1.0000
  H   H4168     1.0  0.83625  0.15134  0.39274  1.0000
  H   H4169     1.0  0.89163  0.10954  0.38265  1.0000
  C   C2622     1.0  0.73310  0.22217  0.36616  1.0000
  S   S1085     1.0  0.66996  0.27321  0.38305  1.0000
  H   H4170     1.0  0.73873  0.21374  0.36112  1.0000
  S   S1086     1.0  0.70447  0.25741  0.35806  1.0000
  C   C2623     1.0  0.93053  0.14843  0.30839  1.0000
  C   C2624     1.0  0.92187  0.13923  0.31559  1.0000
  C   C2625     1.0  0.90985  0.13972  0.31117  1.0000
  C   C2626     1.0  0.90633  0.14956  0.29965  1.0000
  C   C2627     1.0  0.91505  0.15869  0.29241  1.0000
  C   C2628     1.0  0.92717  0.15805  0.29671  1.0000
  H   H4171     1.0  0.92454  0.13158  0.32445  1.0000
  H   H4172     1.0  0.90323  0.13255  0.31677  1.0000
  H   H4173     1.0  0.91262  0.16606  0.28331  1.0000
  H   H4174     1.0  0.93390  0.16509  0.29101  1.0000
  C   C2629     1.0  0.84333  0.20957  0.31698  1.0000
  C   C2630     1.0  0.83540  0.21524  0.30691  1.0000
  C   C2631     1.0  0.82086  0.21729  0.31060  1.0000
  C   C2632     1.0  0.81423  0.21320  0.32431  1.0000
  C   C2633     1.0  0.82215  0.20717  0.33437  1.0000
  C   C2634     1.0  0.83670  0.20557  0.33073  1.0000
  H   H4175     1.0  0.84046  0.21835  0.29628  1.0000
  H   H4176     1.0  0.81477  0.22194  0.30280  1.0000
  H   H4177     1.0  0.81706  0.20398  0.34499  1.0000
  H   H4178     1.0  0.84280  0.20107  0.33854  1.0000
  H   H4179     1.0  0.87768  0.16467  0.33662  1.0000
  H   H4180     1.0  0.87495  0.17847  0.32211  1.0000
  H   H4181     1.0  0.90605  0.19171  0.32001  1.0000
  N   N262      1.0  0.80773  0.12898  0.43536  1.0000
  C   C2635     1.0  0.90905  0.13714  0.47585  1.0000
  H   H4182     1.0  0.69835  0.30544  0.40712  1.0000
  C   C2636     1.0  0.80336  0.10361  0.30188  1.0000
  C   C2637     1.0  0.81229  0.09173  0.30750  1.0000
  C   C2638     1.0  0.81969  0.09230  0.31700  1.0000
  C   C2639     1.0  0.81813  0.10476  0.32082  1.0000
  C   C2640     1.0  0.80891  0.11647  0.31550  1.0000
  C   C2641     1.0  0.80147  0.11585  0.30619  1.0000
  H   H4183     1.0  0.81371  0.08218  0.30430  1.0000
  H   H4184     1.0  0.82676  0.08321  0.32112  1.0000
  H   H4185     1.0  0.80749  0.12609  0.31856  1.0000
  H   H4186     1.0  0.79417  0.12486  0.30243  1.0000
  C   C2642     1.0  0.82782  0.16210  0.24852  1.0000
  C   C2643     1.0  0.84112  0.16081  0.25072  1.0000
  C   C2644     1.0  0.84362  0.17043  0.25668  1.0000
  C   C2645     1.0  0.83292  0.18155  0.26002  1.0000
  C   C2646     1.0  0.81989  0.18323  0.25706  1.0000
  C   C2647     1.0  0.81724  0.17334  0.25166  1.0000
  C   C2648     1.0  0.69225  0.14122  0.25088  1.0000
  H   H4187     1.0  0.85371  0.16909  0.25891  1.0000
  H   H4188     1.0  0.81166  0.19196  0.25933  1.0000
  H   H4189     1.0  0.80699  0.17442  0.24990  1.0000
  C   C2649     1.0  0.76774  0.16775  0.30335  1.0000
  C   C2650     1.0  0.76383  0.17820  0.31086  1.0000
  C   C2651     1.0  0.76528  0.17519  0.32457  1.0000
  C   C2652     1.0  0.77040  0.16167  0.33090  1.0000
  C   C2653     1.0  0.77389  0.15113  0.32354  1.0000
  C   C2654     1.0  0.77270  0.15419  0.30973  1.0000
  H   H4190     1.0  0.75985  0.18867  0.30600  1.0000
  H   H4191     1.0  0.76240  0.18334  0.33024  1.0000
  H   H4192     1.0  0.77780  0.14062  0.32839  1.0000
  H   H4193     1.0  0.77556  0.14605  0.30405  1.0000
  C   C2655     1.0  0.68551  0.29085  0.32017  1.0000
  C   C2656     1.0  0.74316  0.12681  0.24895  1.0000
  C   C2657     1.0  0.73270  0.12017  0.24914  1.0000
  H   H4194     1.0  0.82133  0.99740  0.32541  1.0000
  H   H4195     1.0  0.69658  0.15053  0.24896  1.0000
  H   H4196     1.0  0.82316  0.13456  0.41746  1.0000
  H   H4197     1.0  0.74419  0.12880  0.25836  1.0000
  H   H4198     1.0  0.72584  0.11686  0.25880  1.0000
  H   H4199     1.0  0.87537  0.19522  0.33524  1.0000
  H   H4200     1.0  0.90750  0.13048  0.39586  1.0000
  C   C2658     1.0  0.81737  0.11671  0.44130  1.0000
  H   H4201     1.0  0.80053  0.15037  0.43660  1.0000
  H   H4202     1.0  0.68566  0.13991  0.26147  1.0000
  H   H4203     1.0  0.78956  0.12370  0.45002  1.0000
  H   H4204     1.0  0.81854  0.10774  0.43667  1.0000
  H   H4205     1.0  0.81377  0.11360  0.45264  1.0000
  H   H4206     1.0  0.82797  0.11869  0.43948  1.0000
  N   N263      1.0  0.77551  0.09398  0.26131  1.0000
  H   H4207     1.0  0.70120  0.13220  0.25072  1.0000
  C   C2659     1.0  0.75065  0.25455  0.35116  1.0000
  C   C2660     1.0  0.99049  0.15013  0.35799  1.0000
  C   C2661     1.0  0.76866  0.10652  0.26687  1.0000
  H   H4208     1.0  0.69506  0.31292  0.30402  1.0000
  H   H4209     1.0  0.85738  0.19832  0.24579  1.0000
  H   H4210     1.0  0.97822  0.14426  0.30492  1.0000
  H   H4211     1.0  0.76357  0.30818  0.25298  1.0000
  H   H4212     1.0  0.89453  0.00371  0.34325  1.0000
  H   H4213     1.0  0.67944  0.31565  0.32658  1.0000
  C   C2662     1.0  0.71706  0.30797  0.32668  1.0000
  H   H4214     1.0  0.79584  0.08498  0.25072  1.0000
  H   H4215     1.0  0.77365  0.10721  0.27493  1.0000
  H   H4216     1.0  0.75747  0.10675  0.27163  1.0000
  H   H4217     1.0  0.73776  0.31289  0.25839  1.0000
  C   C2663     1.0  0.76900  0.23471  0.35575  1.0000
  H   H4218     1.0  0.79587  0.09545  0.26215  1.0000
  C   C2664     1.0  0.72325  0.23276  0.36011  1.0000
  N   N264      1.0  0.99291  0.13466  0.31805  1.0000
  H   H4219     1.0  0.67897  0.28558  0.32950  1.0000
  H   H4220     1.0  0.86973  0.99144  0.37499  1.0000
  H   H4221     1.0  0.74280  0.24884  0.35828  1.0000
  C   C2665     1.0  0.79522  0.19189  0.31048  1.0000
  H   H4222     1.0  0.81405  0.15947  0.30868  1.0000
  H   H4223     1.0  0.80619  0.16692  0.32366  1.0000
  H   H4224     1.0  0.79551  0.19121  0.32132  1.0000
  H   H4225     1.0  0.78478  0.19065  0.31044  1.0000
  H   H4226     1.0  0.79615  0.20250  0.30475  1.0000
  N   N265      1.0  0.80836  0.13122  0.36250  1.0000
  C   C2666     1.0  0.79585  0.13788  0.37148  1.0000
  C   C2667     1.0  0.82080  0.13495  0.36397  1.0000
  H   H4227     1.0  0.79459  0.14927  0.36887  1.0000
  H   H4228     1.0  0.79652  0.13444  0.38249  1.0000
  H   H4229     1.0  0.83052  0.12954  0.35788  1.0000
  H   H4230     1.0  0.82026  0.14622  0.36053  1.0000
  H   H4231     1.0  0.82187  0.13208  0.37489  1.0000
  H   H4232     1.0  0.81634  0.13159  0.34090  1.0000
  H   H4233     1.0  0.81935  0.11082  0.36000  1.0000
  N   N266      1.0  0.87317  0.11589  0.30786  1.0000
  C   C2668     1.0  0.88830  0.11206  0.30221  1.0000
  C   C2669     1.0  0.87086  0.12167  0.32016  1.0000
  C   C2670     1.0  0.86710  0.10356  0.31170  1.0000
  C   C2671     1.0  0.86641  0.12630  0.29739  1.0000
  H   H4234     1.0  0.89369  0.10424  0.30991  1.0000
  H   H4235     1.0  0.89321  0.12113  0.29926  1.0000
  H   H4236     1.0  0.89048  0.10766  0.29292  1.0000
  H   H4237     1.0  0.85958  0.12442  0.32488  1.0000
  H   H4238     1.0  0.87603  0.11414  0.32819  1.0000
  H   H4239     1.0  0.87519  0.13109  0.31756  1.0000
  H   H4240     1.0  0.85571  0.10607  0.31606  1.0000
  H   H4241     1.0  0.87192  0.09550  0.31960  1.0000
  H   H4242     1.0  0.86864  0.09892  0.30268  1.0000
  H   H4243     1.0  0.87068  0.13578  0.29428  1.0000
  H   H4244     1.0  0.85497  0.12934  0.30134  1.0000
  H   H4245     1.0  0.86801  0.12232  0.28792  1.0000
  H   H4246     1.0  0.88039  0.10418  0.39887  1.0000
  C   C2672     1.0  0.89905  0.18631  0.31787  1.0000
  C   C2673     1.0  0.88309  0.17099  0.32724  1.0000
  H   H4247     1.0  0.89131  0.19426  0.31258  1.0000
  N   N267      1.0  0.67726  0.30373  0.31338  1.0000
  H   H4248     1.0  0.90547  0.17967  0.31049  1.0000
  H   H4249     1.0  0.89787  0.16140  0.34708  1.0000
  C   C2674     1.0  0.80687  0.13596  0.34803  1.0000
  H   H4250     1.0  0.78620  0.13562  0.37034  1.0000
  C   C2675     1.0  0.80990  0.11612  0.36649  1.0000
  H   H4251     1.0  0.91455  0.11276  0.39490  1.0000
  H   H4252     1.0  0.78277  0.24596  0.33101  1.0000
  H   H4253     1.0  0.76932  0.11594  0.25864  1.0000
  H   H4254     1.0  0.79789  0.13283  0.34645  1.0000
  H   H4255     1.0  0.80082  0.11289  0.36530  1.0000
  C   C2676     1.0  0.80555  0.16758  0.31292  1.0000
  H   H4256     1.0  0.97227  0.13210  0.31976  1.0000
  H   H4257     1.0  0.76400  0.08121  0.27800  1.0000
  H   H4258     1.0  0.79360  0.11731  0.43446  1.0000
  C   C2677     1.0  0.90272  0.16785  0.33743  1.0000
  H   H4259     1.0  0.77707  0.25814  0.34207  1.0000
  H   H4260     1.0  0.68072  0.30693  0.40636  1.0000
  C   C2678     1.0  0.68736  0.31014  0.41137  1.0000
  H   H4261     1.0  0.82157  0.18409  0.31385  1.0000
  C   C2679     1.0  0.88350  0.18732  0.34005  1.0000
  Fe  Fe552     1.0  0.85299  0.13446  0.47004  1.0000
  H   H4262     1.0  0.76285  0.31809  0.26517  1.0000
  C   C2680     1.0  0.98797  0.14554  0.32618  1.0000
  H   H4263     1.0  0.90962  0.17286  0.34029  1.0000
  H   H4264     1.0  0.87807  0.18146  0.34979  1.0000
  H   H4265     1.0  0.89880  0.10549  0.41709  1.0000
  H   H4266     1.0  0.89892  0.09765  0.39629  1.0000
  H   H4267     1.0  0.84546  0.01217  0.38346  1.0000
  N   N268      1.0  0.80641  0.18140  0.30434  1.0000
  H   H4268     1.0  0.68052  0.32016  0.29584  1.0000
  H   H4269     1.0  0.77856  0.22771  0.35132  1.0000
  H   H4270     1.0  0.88996  0.19285  0.34284  1.0000
  C   C2681     1.0  0.80735  0.14078  0.44113  1.0000
  H   H4271     1.0  0.69018  0.28345  0.31318  1.0000
  H   H4272     1.0  0.80500  0.14736  0.34490  1.0000
  H   H4273     1.0  0.81100  0.11218  0.37737  1.0000
  C   C2682     1.0  0.89068  0.10699  0.39401  1.0000
  C   C2683     1.0  0.82006  0.18429  0.30350  1.0000
  H   H4274     1.0  0.82106  0.19466  0.29707  1.0000
  C   C2684     1.0  0.84351  0.00434  0.36678  1.0000
  H   H4275     1.0  0.85933  0.21564  0.24295  1.0000
  H   H4276     1.0  0.98409  0.15574  0.31988  1.0000
  H   H4277     1.0  0.81327  0.12359  0.41546  1.0000
  C   C2685     1.0  0.84523  0.01448  0.37265  1.0000
  H   H4278     1.0  0.90756  0.12454  0.38099  1.0000
  C   C2686     1.0  0.90604  0.12175  0.39240  1.0000
  H   H4279     1.0  0.80550  0.19212  0.28363  1.0000
  H   H4280     1.0  0.80355  0.13880  0.45250  1.0000
  H   H4281     1.0  0.87069  0.12875  0.40012  1.0000
  H   H4282     1.0  0.79454  0.17980  0.29067  1.0000
  C   C2687     1.0  0.88128  0.13082  0.39544  1.0000
  N   N269      1.0  0.89219  0.11858  0.39898  1.0000
  C   C2688     1.0  0.89079  0.11477  0.41408  1.0000
  H   H4283     1.0  0.99192  0.15513  0.40240  1.0000
  C   C2689     1.0  0.80479  0.18186  0.29043  1.0000
  H   H4284     1.0  0.82879  0.17671  0.29873  1.0000
  H   H4285     1.0  0.88042  0.11237  0.41940  1.0000
  H   H4286     1.0  0.89201  0.12324  0.41817  1.0000
  S   S1087     1.0  0.84168  0.99453  0.34496  1.0000
  S   S1088     1.0  0.74862  0.20994  0.38609  1.0000
  H   H4287     1.0  0.87415  0.23022  0.25133  1.0000
  H   H4288     1.0  0.79100  0.10339  0.24591  1.0000
  H   H4289     1.0  0.81301  0.17399  0.28553  1.0000
  H   H4290     1.0  0.79557  0.16497  0.31334  1.0000
  Fe  Fe553     1.0  0.67592  0.28522  0.39502  1.0000
  C   C2690     1.0  0.73556  0.22249  0.37875  1.0000
  H   H4291     1.0  0.88205  0.13971  0.39917  1.0000
  H   H4292     1.0  0.81790  0.14297  0.43896  1.0000
  C   C2691     1.0  0.77344  0.25290  0.33599  1.0000
  H   H4293     1.0  0.88764  0.14563  0.46352  1.0000
  H   H4294     1.0  0.75386  0.24557  0.32808  1.0000
  C   C2692     1.0  0.99690  0.12121  0.32719  1.0000
  C   C2693     1.0  0.79362  0.12618  0.43869  1.0000
  H   H4295     1.0  0.99646  0.16952  0.35443  1.0000
  H   H4296     1.0  0.72149  0.23250  0.35031  1.0000
  H   H4297     1.0  0.77241  0.32222  0.24772  1.0000
  C   C2694     1.0  0.81262  0.13229  0.42025  1.0000
  H   H4298     1.0  0.71213  0.25220  0.38454  1.0000
  C   C2695     1.0  0.88486  0.14233  0.47488  1.0000
  H   H4299     1.0  0.69115  0.30365  0.29354  1.0000
  N   N270      1.0  0.68427  0.14228  0.24051  1.0000
  H   H4300     1.0  0.75705  0.09310  0.25557  1.0000
  C   C2696     1.0  0.79020  0.09444  0.25473  1.0000
  H   H4301     1.0  0.77189  0.23958  0.36269  1.0000
  C   C2697     1.0  0.89811  0.99294  0.34867  1.0000
  H   H4302     1.0  0.66958  0.27410  0.44684  1.0000
  H   H4303     1.0  0.69416  0.29285  0.32349  1.0000
  H   H4304     1.0  0.80567  0.14155  0.41537  1.0000
  C   C2698     1.0  0.72780  0.23326  0.38543  1.0000
  C   C2699     1.0  0.98166  0.13425  0.31178  1.0000
  C   C2700     1.0  0.67909  0.12953  0.24329  1.0000
  H   H4305     1.0  0.98492  0.12611  0.30562  1.0000
  H   H4306     1.0  0.76158  0.22821  0.36228  1.0000
  H   H4307     1.0  0.72955  0.23350  0.39524  1.0000
  H   H4308     1.0  0.68488  0.30539  0.42254  1.0000
  C   C2701     1.0  0.71574  0.24370  0.36663  1.0000
  H   H4309     1.0  0.98780  0.11843  0.33529  1.0000
  S   S1089     1.0  0.89676  0.20793  0.24327  1.0000
  H   H4310     1.0  0.84237  0.99434  0.37309  1.0000
  C   C2702     1.0  0.71792  0.24385  0.37939  1.0000
  H   H4311     1.0  0.87454  0.00640  0.36301  1.0000
  H   H4312     1.0  0.75083  0.23193  0.34270  1.0000
  H   H4313     1.0  0.87518  0.13836  0.47740  1.0000
  C   C2703     1.0  0.77494  0.08179  0.27270  1.0000
  C   C2704     1.0  0.89849  0.11927  0.47478  1.0000
  H   H4314     1.0  0.67219  0.12773  0.25369  1.0000
  C   C2705     1.0  0.75862  0.23808  0.33636  1.0000
  H   H4315     1.0  0.74537  0.26219  0.34330  1.0000
  H   H4316     1.0  0.76918  0.26088  0.32767  1.0000
  S   S1090     1.0  0.69768  0.28448  0.38218  1.0000
  Fe  Fe554     1.0  0.68794  0.30423  0.36971  1.0000
  H   H4317     1.0  0.86271  0.25176  0.23761  1.0000
  Fe  Fe555     1.0  0.69100  0.27421  0.36916  1.0000
  H   H4318     1.0  0.90554  0.99315  0.35472  1.0000
  H   H4319     1.0  0.78039  0.08216  0.28059  1.0000
  S   S1091     1.0  0.68300  0.29409  0.35551  1.0000
  H   H4320     1.0  0.76764  0.23085  0.33142  1.0000
  C   C2706     1.0  0.73099  0.11792  0.23690  1.0000
  C   C2707     1.0  0.71141  0.30862  0.34055  1.0000
  H   H4321     1.0  0.91786  0.12946  0.47972  1.0000
  H   H4322     1.0  0.71029  0.29927  0.34814  1.0000
  H   H4323     1.0  0.71995  0.29817  0.32358  1.0000
  H   H4324     1.0  0.76851  0.10241  0.24232  1.0000
  H   H4325     1.0  0.82355  0.99488  0.30149  1.0000
  H   H4326     1.0  0.68782  0.12034  0.24279  1.0000
  C   C2708     1.0  0.68641  0.31039  0.30116  1.0000
  N   N271      1.0  0.76291  0.24507  0.34482  1.0000
  H   H4327     1.0  0.75354  0.26029  0.35732  1.0000
  C   C2709     1.0  0.87764  0.23250  0.24028  1.0000
  H   H4328     1.0  0.87262  0.99758  0.34362  1.0000
  H   H4329     1.0  0.91221  0.13979  0.46439  1.0000
  H   H4330     1.0  0.67166  0.31727  0.25675  1.0000
  S   S1092     1.0  0.82425  0.14952  0.24226  1.0000
  C   C2710     1.0  0.76823  0.09328  0.25100  1.0000
  C   C2711     1.0  0.70714  0.32134  0.34453  1.0000
  H   H4331     1.0  0.90091  0.12162  0.46330  1.0000
  S   S1093     1.0  0.72312  0.31961  0.29927  1.0000
  C   C2712     1.0  0.99479  0.13580  0.36089  1.0000
  H   H4332     1.0  0.80481  0.99232  0.33037  1.0000
  C   C2713     1.0  0.86078  0.20703  0.23776  1.0000
  H   H4333     1.0  0.99639  0.14657  0.33055  1.0000
  N   N272      1.0  0.89617  0.13176  0.48026  1.0000
  S   S1094     1.0  0.69781  0.32256  0.36130  1.0000
  H   H4334     1.0  0.77307  0.08393  0.24656  1.0000
  H   H4335     1.0  0.67582  0.16396  0.23942  1.0000
  H   H4336     1.0  0.88906  0.11473  0.47828  1.0000
  H   H4337     1.0  0.83636  0.22483  0.23775  1.0000
  S   S1095     1.0  0.71761  0.10980  0.23740  1.0000
  H   H4338     1.0  0.90759  0.14665  0.47972  1.0000
  H   H4339     1.0  0.90727  0.11120  0.47823  1.0000
  H   H4340     1.0  0.67015  0.29343  0.30180  1.0000
  S   S1096     1.0  0.67345  0.27882  0.41795  1.0000
  H   H4341     1.0  0.83352  0.20783  0.24062  1.0000
  C   C2714     1.0  0.67234  0.15418  0.24122  1.0000
  C   C2715     1.0  0.67117  0.31314  0.32309  1.0000
  C   C2716     1.0  0.73769  0.32344  0.25923  1.0000
  H   H4342     1.0  0.73692  0.32324  0.27025  1.0000
  C   C2717     1.0  0.99987  0.15843  0.35671  1.0000
  H   H4343     1.0  0.85383  0.21498  0.54418  1.0000
  H   H4344     1.0  0.88665  0.13920  0.68303  1.0000
  C   C2718     1.0  0.74489  0.31771  0.69560  1.0000
  Fe  Fe556     1.0  0.84154  0.12819  0.70896  1.0000
  S   S1097     1.0  0.81847  0.13146  0.71725  1.0000
  S   S1098     1.0  0.85361  0.12296  0.68862  1.0000
  Fe  Fe557     1.0  0.82047  0.15081  0.72176  1.0000
  S   S1099     1.0  0.80537  0.17101  0.71853  1.0000
  H   H4345     1.0  0.82959  0.18110  0.69962  1.0000
  S   S1100     1.0  0.84298  0.14856  0.71161  1.0000
  H   H4346     1.0  0.86356  0.22080  0.52724  1.0000
  N   N273      1.0  0.89249  0.12261  0.69947  1.0000
  H   H4347     1.0  0.85507  0.19918  0.70320  1.0000
  Fe  Fe558     1.0  0.89255  0.21471  0.72348  1.0000
  H   H4348     1.0  0.97171  0.15029  0.66806  1.0000
  S   S1101     1.0  0.91340  0.20053  0.71759  1.0000
  H   H4349     1.0  0.87983  0.11022  0.69691  1.0000
  Fe  Fe559     1.0  0.95286  0.14116  0.65005  1.0000
  C   C2719     1.0  0.88362  0.13593  0.69441  1.0000
  H   H4350     1.0  0.88253  0.12418  0.49900  1.0000
  S   S1102     1.0  0.81522  0.21691  0.62900  1.0000
  S   S1103     1.0  0.87491  0.21256  0.71583  1.0000
  H   H4351     1.0  0.91430  0.11387  0.69870  1.0000
  S   S1104     1.0  0.82404  0.20917  0.65902  1.0000
  S   S1105     1.0  0.79945  0.18855  0.65680  1.0000
  H   H4352     1.0  0.86766  0.11838  0.64500  1.0000
  S   S1106     1.0  0.82268  0.24062  0.64028  1.0000
  S   S1107     1.0  0.97647  0.13806  0.64401  1.0000
  H   H4353     1.0  0.90051  0.12047  0.49994  1.0000
  C   C2720     1.0  0.88388  0.21154  0.67522  1.0000
  S   S1108     1.0  0.94021  0.13223  0.67045  1.0000
  Fe  Fe560     1.0  0.92804  0.15182  0.63648  1.0000
  S   S1109     1.0  0.91358  0.14385  0.65552  1.0000
  S   S1110     1.0  0.91768  0.16441  0.61913  1.0000
  Fe  Fe561     1.0  0.92437  0.15196  0.66680  1.0000
  S   S1111     1.0  0.90745  0.16078  0.68321  1.0000
  Fe  Fe562     1.0  0.93012  0.12478  0.65781  1.0000
  S   S1112     1.0  0.92181  0.10540  0.66682  1.0000
  S   S1113     1.0  0.93769  0.16169  0.64744  1.0000
  S   S1114     1.0  0.94393  0.13195  0.63762  1.0000
  Fe  Fe563     1.0  0.85085  0.14568  0.58197  1.0000
  S   S1115     1.0  0.86901  0.13414  0.56857  1.0000
  S   S1116     1.0  0.83213  0.13847  0.59596  1.0000
  Fe  Fe564     1.0  0.86165  0.17190  0.57305  1.0000
  S   S1117     1.0  0.88097  0.16264  0.55930  1.0000
  S   S1118     1.0  0.85497  0.19440  0.57343  1.0000
  Fe  Fe565     1.0  0.86685  0.15372  0.55233  1.0000
  S   S1119     1.0  0.86912  0.15885  0.52906  1.0000
  Fe  Fe566     1.0  0.88139  0.14415  0.57658  1.0000
  S   S1120     1.0  0.90049  0.13199  0.58449  1.0000
  S   S1121     1.0  0.84749  0.16423  0.56515  1.0000
  S   S1122     1.0  0.86330  0.15426  0.59107  1.0000
  Fe  Fe567     1.0  0.86746  0.05962  0.66134  1.0000
  S   S1123     1.0  0.88961  0.04920  0.65386  1.0000
  S   S1124     1.0  0.85664  0.06279  0.68277  1.0000
  Fe  Fe568     1.0  0.86035  0.06585  0.63349  1.0000
  S   S1125     1.0  0.88178  0.05629  0.62322  1.0000
  S   S1126     1.0  0.84158  0.07541  0.62431  1.0000
  Fe  Fe569     1.0  0.88058  0.03933  0.64216  1.0000
  S   S1127     1.0  0.88886  0.01692  0.64063  1.0000
  Fe  Fe570     1.0  0.88907  0.06684  0.63563  1.0000
  S   S1128     1.0  0.90533  0.07960  0.62583  1.0000
  S   S1129     1.0  0.85851  0.04812  0.65144  1.0000
  S   S1130     1.0  0.86767  0.07800  0.64395  1.0000
  H   H4354     1.0  0.74830  0.30155  0.67776  1.0000
  C   C2721     1.0  0.87831  0.00757  0.63749  1.0000
  C   C2722     1.0  0.86404  0.01274  0.63817  1.0000
  C   C2723     1.0  0.85577  0.00453  0.63667  1.0000
  S   S1131     1.0  0.84974  0.12879  0.49340  1.0000
  C   C2724     1.0  0.85681  0.15096  0.49823  1.0000
  C   C2725     1.0  0.87794  0.21318  0.65359  1.0000
  H   H4355     1.0  0.85935  0.02300  0.64001  1.0000
  H   H4356     1.0  0.84473  0.00857  0.63729  1.0000
  C   C2726     1.0  0.98749  0.14313  0.65138  1.0000
  N   N274      1.0  0.85883  0.20092  0.53060  1.0000
  C   C2727     1.0  0.83525  0.12097  0.60387  1.0000
  C   C2728     1.0  0.82429  0.11410  0.60770  1.0000
  C   C2729     1.0  0.82643  0.10010  0.61386  1.0000
  C   C2730     1.0  0.83943  0.09296  0.61661  1.0000
  C   C2731     1.0  0.85036  0.09989  0.61321  1.0000
  C   C2732     1.0  0.84833  0.11388  0.60661  1.0000
  H   H4357     1.0  0.81418  0.11955  0.60558  1.0000
  H   H4358     1.0  0.81798  0.09478  0.61643  1.0000
  H   H4359     1.0  0.86034  0.09440  0.61553  1.0000
  H   H4360     1.0  0.85676  0.11924  0.60380  1.0000
  C   C2733     1.0  0.91793  0.09781  0.65533  1.0000
  C   C2734     1.0  0.92268  0.10166  0.64110  1.0000
  C   C2735     1.0  0.91902  0.09578  0.63213  1.0000
  C   C2736     1.0  0.91035  0.08627  0.63732  1.0000
  C   C2737     1.0  0.90548  0.08254  0.65153  1.0000
  C   C2738     1.0  0.90939  0.08819  0.66052  1.0000
  H   H4361     1.0  0.92927  0.10908  0.63702  1.0000
  H   H4362     1.0  0.92282  0.09870  0.62113  1.0000
  H   H4363     1.0  0.89881  0.07520  0.65561  1.0000
  H   H4364     1.0  0.90563  0.08520  0.67151  1.0000
  C   C2739     1.0  0.91384  0.15549  0.60876  1.0000
  C   C2740     1.0  0.92036  0.14173  0.60849  1.0000
  C   C2741     1.0  0.91663  0.13470  0.60054  1.0000
  C   C2742     1.0  0.90610  0.14128  0.59321  1.0000
  C   C2743     1.0  0.89965  0.15504  0.59344  1.0000
  C   C2744     1.0  0.90359  0.16216  0.60111  1.0000
  H   H4365     1.0  0.92831  0.13653  0.61434  1.0000
  H   H4366     1.0  0.92170  0.12406  0.60035  1.0000
  H   H4367     1.0  0.89167  0.16026  0.58765  1.0000
  H   H4368     1.0  0.89855  0.17281  0.60126  1.0000
  C   C2745     1.0  0.85374  0.13792  0.50362  1.0000
  C   C2746     1.0  0.85450  0.13164  0.51735  1.0000
  C   C2747     1.0  0.85875  0.13811  0.52546  1.0000
  C   C2748     1.0  0.86237  0.15089  0.51985  1.0000
  C   C2749     1.0  0.86131  0.15732  0.50624  1.0000
  S   S1132     1.0  0.85592  0.23817  0.72980  1.0000
  H   H4369     1.0  0.85200  0.12161  0.52165  1.0000
  H   H4370     1.0  0.85950  0.13307  0.53594  1.0000
  H   H4371     1.0  0.84990  0.18301  0.53703  1.0000
  H   H4372     1.0  0.90062  0.12491  0.64842  1.0000
  H   H4373     1.0  0.89480  0.10889  0.71882  1.0000
  C   C2750     1.0  0.86434  0.19327  0.60957  1.0000
  C   C2751     1.0  0.86422  0.18976  0.59734  1.0000
  C   C2752     1.0  0.85573  0.19860  0.58859  1.0000
  C   C2753     1.0  0.84735  0.21089  0.59209  1.0000
  H   H4374     1.0  0.88451  0.14423  0.69896  1.0000
  H   H4375     1.0  0.87097  0.18649  0.61629  1.0000
  H   H4376     1.0  0.87086  0.18034  0.59459  1.0000
  H   H4377     1.0  0.84080  0.21778  0.58534  1.0000
  H   H4378     1.0  0.83015  0.06782  0.65321  1.0000
  C   C2754     1.0  0.91005  0.17135  0.69265  1.0000
  C   C2755     1.0  0.89898  0.17557  0.70309  1.0000
  C   C2756     1.0  0.90021  0.18433  0.71073  1.0000
  C   C2757     1.0  0.91237  0.18917  0.70797  1.0000
  C   C2758     1.0  0.92366  0.18469  0.69772  1.0000
  C   C2759     1.0  0.92249  0.17581  0.68998  1.0000
  H   H4379     1.0  0.88940  0.17202  0.70531  1.0000
  H   H4380     1.0  0.89177  0.18713  0.71895  1.0000
  H   H4381     1.0  0.93321  0.18828  0.69561  1.0000
  H   H4382     1.0  0.93111  0.17254  0.68193  1.0000
  H   H4383     1.0  0.88742  0.12786  0.61738  1.0000
  C   C2760     1.0  0.86873  0.12930  0.64176  1.0000
  H   H4384     1.0  0.87955  0.16347  0.73058  1.0000
  H   H4385     1.0  0.86377  0.13416  0.63276  1.0000
  C   C2761     1.0  0.87898  0.19185  0.67046  1.0000
  N   N275      1.0  0.88350  0.13026  0.63831  1.0000
  H   H4386     1.0  0.86664  0.21670  0.65785  1.0000
  C   C2762     1.0  0.85477  0.10594  0.68772  1.0000
  C   C2763     1.0  0.86424  0.10062  0.67683  1.0000
  C   C2764     1.0  0.86525  0.08718  0.67561  1.0000
  C   C2765     1.0  0.85657  0.07905  0.68516  1.0000
  C   C2766     1.0  0.84726  0.08425  0.69628  1.0000
  C   C2767     1.0  0.84638  0.09770  0.69759  1.0000
  H   H4387     1.0  0.87089  0.10686  0.66941  1.0000
  H   H4388     1.0  0.87287  0.08306  0.66736  1.0000
  H   H4389     1.0  0.84063  0.07793  0.70380  1.0000
  H   H4390     1.0  0.83911  0.10172  0.70612  1.0000
  C   C2768     1.0  0.80277  0.17547  0.70167  1.0000
  C   C2769     1.0  0.79621  0.18891  0.69651  1.0000
  C   C2770     1.0  0.79498  0.19284  0.68274  1.0000
  C   C2771     1.0  0.79981  0.18320  0.67427  1.0000
  C   C2772     1.0  0.80601  0.16966  0.67953  1.0000
  C   C2773     1.0  0.80771  0.16586  0.69317  1.0000
  H   H4391     1.0  0.79235  0.19640  0.70301  1.0000
  H   H4392     1.0  0.79029  0.20336  0.67867  1.0000
  H   H4393     1.0  0.80999  0.16226  0.67293  1.0000
  H   H4394     1.0  0.81296  0.15553  0.69698  1.0000
  H   H4395     1.0  0.89314  0.11450  0.68208  1.0000
  H   H4396     1.0  0.90900  0.13183  0.69959  1.0000
  H   H4397     1.0  0.87730  0.11822  0.71813  1.0000
  C   C2774     1.0  0.80779  0.18608  0.61830  1.0000
  H   H4398     1.0  0.84535  0.22101  0.52986  1.0000
  H   H4399     1.0  0.88827  0.22098  0.67097  1.0000
  H   H4400     1.0  0.68294  0.26739  0.66371  1.0000
  H   H4401     1.0  0.85914  0.24058  0.66475  1.0000
  S   S1133     1.0  0.70403  0.28328  0.65354  1.0000
  H   H4402     1.0  0.77981  0.30857  0.68355  1.0000
  C   C2775     1.0  0.85523  0.21507  0.53303  1.0000
  C   C2776     1.0  0.90014  0.19954  0.65820  1.0000
  H   H4403     1.0  0.81879  0.21123  0.69678  1.0000
  H   H4404     1.0  0.88415  0.18480  0.67871  1.0000
  H   H4405     1.0  0.81182  0.19907  0.71110  1.0000
  H   H4406     1.0  0.88007  0.18584  0.66256  1.0000
  H   H4407     1.0  0.85101  0.20682  0.51203  1.0000
  C   C2777     1.0  0.84749  0.19377  0.53852  1.0000
  C   C2778     1.0  0.81991  0.20535  0.70727  1.0000
  H   H4408     1.0  0.74424  0.27632  0.63964  1.0000
  S   S1134     1.0  0.79360  0.22894  0.65540  1.0000
  H   H4409     1.0  0.84575  0.19333  0.54974  1.0000
  H   H4410     1.0  0.84120  0.24253  0.70712  1.0000
  C   C2779     1.0  0.69174  0.28778  0.67957  1.0000
  C   C2780     1.0  0.83456  0.18796  0.72096  1.0000
  H   H4411     1.0  0.83185  0.19262  0.61789  1.0000
  C   C2781     1.0  0.88844  0.11896  0.71464  1.0000
  N   N276      1.0  0.83402  0.19662  0.70713  1.0000
  H   H4412     1.0  0.84227  0.17559  0.61859  1.0000
  H   H4413     1.0  0.86338  0.19067  0.51378  1.0000
  C   C2782     1.0  0.77001  0.31171  0.69102  1.0000
  H   H4414     1.0  0.82702  0.18108  0.72422  1.0000
  S   S1135     1.0  0.85470  0.20923  0.62909  1.0000
  C   C2783     1.0  0.87192  0.19347  0.53509  1.0000
  C   C2784     1.0  0.90723  0.12378  0.69530  1.0000
  H   H4415     1.0  0.92063  0.17398  0.73395  1.0000
  H   H4416     1.0  0.69911  0.29413  0.67800  1.0000
  H   H4417     1.0  0.90072  0.31167  0.72313  1.0000
  H   H4418     1.0  0.89005  0.13759  0.49996  1.0000
  H   H4419     1.0  0.74550  0.23898  0.67006  1.0000
  H   H4420     1.0  0.88971  0.12688  0.71946  1.0000
  H   H4421     1.0  0.75686  0.29207  0.69161  1.0000
  H   H4422     1.0  0.87246  0.13531  0.69708  1.0000
  C   C2785     1.0  0.83140  0.18155  0.62114  1.0000
  H   H4423     1.0  0.75177  0.27416  0.65409  1.0000
  H   H4424     1.0  0.86922  0.20654  0.50946  1.0000
  H   H4425     1.0  0.79172  0.14862  0.73411  1.0000
  H   H4426     1.0  0.88984  0.11267  0.65360  1.0000
  C   C2786     1.0  0.88963  0.12387  0.65053  1.0000
  Fe  Fe571     1.0  0.83249  0.21897  0.63736  1.0000
  H   H4427     1.0  0.82771  0.17935  0.63255  1.0000
  H   H4428     1.0  0.90526  0.20845  0.65362  1.0000
  C   C2787     1.0  0.84431  0.20542  0.70330  1.0000
  C   C2788     1.0  0.82240  0.16335  0.61826  1.0000
  H   H4429     1.0  0.84776  0.18086  0.69679  1.0000
  C   C2789     1.0  0.82700  0.18210  0.59913  1.0000
  H   H4430     1.0  0.81885  0.16009  0.62960  1.0000
  C   C2790     1.0  0.74356  0.27143  0.65073  1.0000
  H   H4431     1.0  0.81552  0.16051  0.61322  1.0000
  C   C2791     1.0  0.84721  0.21422  0.60444  1.0000
  H   H4432     1.0  0.66814  0.31296  0.68058  1.0000
  H   H4433     1.0  0.80376  0.18339  0.62963  1.0000
  H   H4434     1.0  0.82673  0.19334  0.59565  1.0000
  H   H4435     1.0  0.82050  0.17944  0.59355  1.0000
  H   H4436     1.0  0.83792  0.17667  0.59574  1.0000
  Fe  Fe572     1.0  0.80611  0.20859  0.65087  1.0000
  H   H4437     1.0  0.80727  0.19738  0.61555  1.0000
  H   H4438     1.0  0.83306  0.15715  0.61515  1.0000
  H   H4439     1.0  0.91054  0.12664  0.68392  1.0000
  Fe  Fe573     1.0  0.67233  0.31150  0.72779  1.0000
  C   C2792     1.0  0.68264  0.27266  0.67160  1.0000
  C   C2793     1.0  0.83727  0.18775  0.69703  1.0000
  H   H4440     1.0  0.75262  0.25247  0.67165  1.0000
  H   H4441     1.0  0.80052  0.18396  0.61320  1.0000
  C   C2794     1.0  0.85568  0.20544  0.61321  1.0000
  H   H4442     1.0  0.84410  0.21222  0.69295  1.0000
  H   H4443     1.0  0.98839  0.15621  0.67814  1.0000
  H   H4444     1.0  0.81745  0.21293  0.71398  1.0000
  Fe  Fe574     1.0  0.80443  0.23755  0.63408  1.0000
  C   C2795     1.0  0.89070  0.11180  0.69352  1.0000
  H   H4445     1.0  0.84213  0.21221  0.71077  1.0000
  H   H4446     1.0  0.84063  0.22370  0.60712  1.0000
  H   H4447     1.0  0.73534  0.31987  0.69144  1.0000
  H   H4448     1.0  0.83477  0.06427  0.66958  1.0000
  H   H4449     1.0  0.81761  0.06374  0.66878  1.0000
  H   H4450     1.0  0.86397  0.16726  0.50185  1.0000
  H   H4451     1.0  0.86265  0.13449  0.65042  1.0000
  N   N277      1.0  0.82215  0.17827  0.61421  1.0000
  S   S1136     1.0  0.84705  0.11638  0.72907  1.0000
  C   C2796     1.0  0.88454  0.14487  0.63391  1.0000
  C   C2797     1.0  0.89119  0.12293  0.62707  1.0000
  H   H4452     1.0  0.89553  0.14591  0.63184  1.0000
  H   H4453     1.0  0.87848  0.15083  0.64195  1.0000
  H   H4454     1.0  0.88072  0.14992  0.62426  1.0000
  H   H4455     1.0  0.88374  0.12864  0.65949  1.0000
  H   H4456     1.0  0.89021  0.11199  0.62983  1.0000
  H   H4457     1.0  0.90248  0.12282  0.62480  1.0000
  N   N278      1.0  0.89425  0.09321  0.58870  1.0000
  C   C2798     1.0  0.90103  0.10144  0.57584  1.0000
  C   C2799     1.0  0.88167  0.09023  0.58663  1.0000
  C   C2800     1.0  0.89024  0.10102  0.59979  1.0000
  C   C2801     1.0  0.90411  0.08015  0.59256  1.0000
  H   H4458     1.0  0.91044  0.10401  0.57718  1.0000
  H   H4459     1.0  0.89393  0.11140  0.57263  1.0000
  H   H4460     1.0  0.90429  0.09588  0.56723  1.0000
  H   H4461     1.0  0.87387  0.09987  0.58402  1.0000
  H   H4462     1.0  0.88425  0.08456  0.57817  1.0000
  H   H4463     1.0  0.87649  0.08377  0.59609  1.0000
  H   H4464     1.0  0.88505  0.09514  0.60965  1.0000
  H   H4465     1.0  0.88300  0.11104  0.59712  1.0000
  H   H4466     1.0  0.89952  0.10329  0.60174  1.0000
  H   H4467     1.0  0.91357  0.08205  0.59453  1.0000
  H   H4468     1.0  0.90752  0.07402  0.58439  1.0000
  H   H4469     1.0  0.89936  0.07363  0.60219  1.0000
  N   N279      1.0  0.82150  0.08412  0.66443  1.0000
  C   C2802     1.0  0.81022  0.09041  0.65680  1.0000
  C   C2803     1.0  0.81644  0.08560  0.67892  1.0000
  C   C2804     1.0  0.83326  0.09108  0.65797  1.0000
  C   C2805     1.0  0.82620  0.06935  0.66398  1.0000
  H   H4470     1.0  0.80646  0.10158  0.65685  1.0000
  H   H4471     1.0  0.80117  0.08538  0.66133  1.0000
  H   H4472     1.0  0.81388  0.08937  0.64583  1.0000
  H   H4473     1.0  0.82481  0.08078  0.68486  1.0000
  H   H4474     1.0  0.81304  0.09662  0.67971  1.0000
  H   H4475     1.0  0.80751  0.08054  0.68415  1.0000
  H   H4476     1.0  0.84197  0.08653  0.66344  1.0000
  H   H4477     1.0  0.83014  0.10223  0.65819  1.0000
  H   H4478     1.0  0.83735  0.09016  0.64702  1.0000
  S   S1137     1.0  0.88913  0.23768  0.71600  1.0000
  H   H4479     1.0  0.86769  0.19486  0.67499  1.0000
  C   C2806     1.0  0.82746  0.24033  0.69561  1.0000
  C   C2807     1.0  0.88427  0.99428  0.63495  1.0000
  Fe  Fe575     1.0  0.81259  0.23046  0.66136  1.0000
  N   N280      1.0  0.88523  0.20404  0.66436  1.0000
  H   H4480     1.0  0.83680  0.23770  0.66202  1.0000
  H   H4481     1.0  0.89774  0.10174  0.69657  1.0000
  C   C2808     1.0  0.98268  0.14867  0.66323  1.0000
  H   H4482     1.0  0.87280  0.21499  0.68023  1.0000
  S   S1138     1.0  0.86778  0.24291  0.68799  1.0000
  N   N281      1.0  0.74524  0.25637  0.65307  1.0000
  H   H4483     1.0  0.76989  0.30370  0.70068  1.0000
  S   S1139     1.0  0.69412  0.31445  0.72384  1.0000
  H   H4484     1.0  0.74372  0.30959  0.70514  1.0000
  H   H4485     1.0  0.87089  0.19288  0.54624  1.0000
  H   H4486     1.0  0.83691  0.19400  0.68647  1.0000
  H   H4487     1.0  0.87875  0.20788  0.64520  1.0000
  H   H4488     1.0  0.87498  0.18274  0.53341  1.0000
  C   C2809     1.0  0.74431  0.25035  0.66790  1.0000
  H   H4489     1.0  0.88070  0.19860  0.52937  1.0000
  H   H4490     1.0  0.83747  0.19906  0.53534  1.0000
  C   C2810     1.0  0.86069  0.20130  0.51579  1.0000
  S   S1140     1.0  0.81030  0.23698  0.68107  1.0000
  H   H4491     1.0  0.73408  0.25470  0.67414  1.0000
  H   H4492     1.0  0.88945  0.20505  0.68341  1.0000
  H   H4493     1.0  0.90157  0.19390  0.64990  1.0000
  H   H4494     1.0  0.88233  0.22255  0.64879  1.0000
  C   C2811     1.0  0.67249  0.27145  0.68386  1.0000
  H   H4495     1.0  0.90589  0.19246  0.66603  1.0000
  C   C2812     1.0  0.69211  0.28104  0.66934  1.0000
  H   H4496     1.0  0.76013  0.25479  0.63396  1.0000
  C   C2813     1.0  0.73410  0.25330  0.64847  1.0000
  C   C2814     1.0  0.83770  0.23877  0.67185  1.0000
  Fe  Fe576     1.0  0.87062  0.23539  0.70975  1.0000
  H   H4497     1.0  0.73522  0.24204  0.64974  1.0000
  C   C2815     1.0  0.86165  0.99104  0.63471  1.0000
  H   H4498     1.0  0.73423  0.25812  0.63743  1.0000
  H   H4499     1.0  0.83198  0.19440  0.72881  1.0000
  C   C2816     1.0  0.84026  0.24145  0.69729  1.0000
  S   S1141     1.0  0.79147  0.25335  0.62036  1.0000
  H   H4500     1.0  0.73328  0.27627  0.65646  1.0000
  C   C2817     1.0  0.68177  0.28635  0.69195  1.0000
  S   S1142     1.0  0.72871  0.30714  0.63042  1.0000
  S   S1143     1.0  0.72365  0.30563  0.66396  1.0000
  Fe  Fe577     1.0  0.73893  0.31215  0.64469  1.0000
  S   S1144     1.0  0.76121  0.30523  0.64666  1.0000
  Fe  Fe578     1.0  0.71263  0.30212  0.64960  1.0000
  C   C2818     1.0  0.78408  0.26840  0.62688  1.0000
  C   C2819     1.0  0.77386  0.27849  0.62100  1.0000
  C   C2820     1.0  0.76699  0.29000  0.62687  1.0000
  C   C2821     1.0  0.77043  0.29150  0.63854  1.0000
  C   C2822     1.0  0.78088  0.28158  0.64422  1.0000
  C   C2823     1.0  0.78760  0.26997  0.63848  1.0000
  H   H4501     1.0  0.77114  0.27731  0.61201  1.0000
  H   H4502     1.0  0.75911  0.29775  0.62230  1.0000
  H   H4503     1.0  0.78360  0.28270  0.65323  1.0000
  H   H4504     1.0  0.79545  0.26220  0.64310  1.0000
  C   C2824     1.0  0.89220  0.12834  0.49546  1.0000
  C   C2825     1.0  0.85036  0.24033  0.67341  1.0000
  H   H4505     1.0  0.76761  0.25250  0.64845  1.0000
  H   H4506     1.0  0.81856  0.24049  0.70418  1.0000
  C   C2826     1.0  0.75897  0.25041  0.64521  1.0000
  C   C2827     1.0  0.82618  0.23895  0.68289  1.0000
  H   H4507     1.0  0.76691  0.29697  0.67456  1.0000
  H   H4508     1.0  0.68173  0.29138  0.69989  1.0000
  H   H4509     1.0  0.72361  0.25738  0.65444  1.0000
  C   C2828     1.0  0.90630  0.30640  0.73163  1.0000
  C   C2829     1.0  0.85168  0.24158  0.68615  1.0000
  H   H4510     1.0  0.76065  0.23904  0.64666  1.0000
  H   H4511     1.0  0.91181  0.29593  0.72979  1.0000
  C   C2830     1.0  0.75741  0.30043  0.68224  1.0000
  H   H4512     1.0  0.69959  0.32013  0.61655  1.0000
  H   H4513     1.0  0.87249  0.18714  0.73529  1.0000
  N   N282      1.0  0.75763  0.31352  0.68538  1.0000
  H   H4514     1.0  0.84508  0.18130  0.72129  1.0000
  H   H4515     1.0  0.85583  0.15609  0.48783  1.0000
  H   H4516     1.0  0.77047  0.32148  0.69344  1.0000
  H   H4517     1.0  0.67438  0.31032  0.66332  1.0000
  C   C2831     1.0  0.99215  0.15200  0.66893  1.0000
  H   H4518     1.0  0.76755  0.32131  0.66455  1.0000
  H   H4519     1.0  0.90201  0.16282  0.73516  1.0000
  Fe  Fe579     1.0  0.84689  0.13711  0.73231  1.0000
  H   H4520     1.0  0.77786  0.17212  0.73518  1.0000
  C   C2832     1.0  0.67190  0.27849  0.69395  1.0000
  H   H4521     1.0  0.67980  0.31577  0.60987  1.0000
  S   S1145     1.0  0.69913  0.32328  0.64730  1.0000
  H   H4522     1.0  0.91436  0.31218  0.73082  1.0000
  H   H4523     1.0  0.89536  0.99037  0.63409  1.0000
  H   H4524     1.0  0.69454  0.21215  0.91804  1.0000
  H   H4525     1.0  0.71001  0.16841  0.92751  1.0000
  C   C2833     1.0  0.69940  0.10267  0.89302  1.0000
  C   C2834     1.0  0.69129  0.23043  0.84574  1.0000
  H   H4526     1.0  0.66917  0.18341  0.80421  1.0000
  H   H4527     1.0  0.69589  0.19063  0.80691  1.0000
  C   C2835     1.0  0.86536  0.18033  0.73910  1.0000
  Fe  Fe580     1.0  0.75645  0.12801  0.81597  1.0000
  S   S1146     1.0  0.74911  0.11892  0.83828  1.0000
  S   S1147     1.0  0.77942  0.12684  0.80786  1.0000
  Fe  Fe581     1.0  0.72723  0.13941  0.81129  1.0000
  S   S1148     1.0  0.71747  0.13128  0.83316  1.0000
  S   S1149     1.0  0.71474  0.15266  0.79585  1.0000
  Fe  Fe582     1.0  0.73334  0.13873  0.83873  1.0000
  S   S1150     1.0  0.72498  0.14792  0.85759  1.0000
  Fe  Fe583     1.0  0.73393  0.11225  0.83073  1.0000
  S   S1151     1.0  0.73003  0.09107  0.84021  1.0000
  S   S1152     1.0  0.74193  0.14852  0.81699  1.0000
  S   S1153     1.0  0.74250  0.11967  0.80829  1.0000
  Fe  Fe584     1.0  0.73084  0.21525  0.87025  1.0000
  S   S1154     1.0  0.71146  0.21132  0.88544  1.0000
  S   S1155     1.0  0.73917  0.20537  0.85182  1.0000
  C   C2836     1.0  0.67047  0.16471  0.81969  1.0000
  H   H4528     1.0  0.70046  0.22751  0.83804  1.0000
  H   H4529     1.0  0.67969  0.27145  0.81164  1.0000
  Fe  Fe585     1.0  0.72262  0.21089  0.90141  1.0000
  S   S1156     1.0  0.72072  0.19334  0.91968  1.0000
  H   H4530     1.0  0.88513  0.17979  0.75667  1.0000
  C   C2837     1.0  0.68916  0.18491  0.83449  1.0000
  S   S1157     1.0  0.74278  0.21288  0.88629  1.0000
  H   H4531     1.0  0.73258  0.30145  0.89932  1.0000
  H   H4532     1.0  0.76857  0.10218  0.81468  1.0000
  H   H4533     1.0  0.84101  0.31942  0.85107  1.0000
  C   C2838     1.0  0.90208  0.15839  0.74624  1.0000
  S   S1158     1.0  0.68324  0.24232  0.88187  1.0000
  C   C2839     1.0  0.70070  0.19571  0.81212  1.0000
  H   H4534     1.0  0.74926  0.22699  0.90531  1.0000
  C   C2840     1.0  0.85993  0.15820  0.74148  1.0000
  C   C2841     1.0  0.72978  0.16341  0.85623  1.0000
  C   C2842     1.0  0.72494  0.17007  0.86734  1.0000
  C   C2843     1.0  0.72803  0.18283  0.86620  1.0000
  C   C2844     1.0  0.73586  0.18903  0.85389  1.0000
  C   C2845     1.0  0.74089  0.18223  0.84286  1.0000
  C   C2846     1.0  0.73792  0.16942  0.84405  1.0000
  H   H4535     1.0  0.71897  0.16527  0.87690  1.0000
  H   H4536     1.0  0.72452  0.18774  0.87490  1.0000
  H   H4537     1.0  0.74714  0.18690  0.83339  1.0000
  H   H4538     1.0  0.74198  0.16422  0.83555  1.0000
  H   H4539     1.0  0.70450  0.09155  0.89503  1.0000
  H   H4540     1.0  0.77210  0.31140  0.87917  1.0000
  N   N283      1.0  0.78128  0.08420  0.82453  1.0000
  H   H4541     1.0  0.71385  0.16713  0.83395  1.0000
  C   C2847     1.0  0.80173  0.11275  0.76761  1.0000
  C   C2848     1.0  0.78841  0.11032  0.77407  1.0000
  C   C2849     1.0  0.78127  0.11489  0.78628  1.0000
  C   C2850     1.0  0.78759  0.12164  0.79220  1.0000
  C   C2851     1.0  0.80100  0.12384  0.78585  1.0000
  C   C2852     1.0  0.80801  0.11953  0.77351  1.0000
  H   H4542     1.0  0.78352  0.10510  0.76949  1.0000
  H   H4543     1.0  0.77090  0.11322  0.79101  1.0000
  H   H4544     1.0  0.80601  0.12891  0.79047  1.0000
  H   H4545     1.0  0.81841  0.12118  0.76873  1.0000
  H   H4546     1.0  0.76215  0.16574  0.74019  1.0000
  H   H4547     1.0  0.76968  0.23045  0.92021  1.0000
  H   H4548     1.0  0.70224  0.20453  0.83388  1.0000
  C   C2853     1.0  0.68880  0.16935  0.79959  1.0000
  C   C2854     1.0  0.69707  0.15647  0.80384  1.0000
  C   C2855     1.0  0.69155  0.14731  0.81536  1.0000
  N   N284      1.0  0.70273  0.18723  0.82572  1.0000
  H   H4549     1.0  0.69289  0.17633  0.79045  1.0000
  H   H4550     1.0  0.69751  0.13702  0.81811  1.0000
  H   H4551     1.0  0.77960  0.19856  0.92623  1.0000
  C   C2856     1.0  0.68479  0.09016  0.84342  1.0000
  C   C2857     1.0  0.69035  0.10132  0.83496  1.0000
  C   C2858     1.0  0.70436  0.10145  0.83362  1.0000
  C   C2859     1.0  0.71286  0.09045  0.84077  1.0000
  C   C2860     1.0  0.70742  0.07913  0.84893  1.0000
  C   C2861     1.0  0.69340  0.07900  0.85027  1.0000
  H   H4552     1.0  0.68381  0.10990  0.82945  1.0000
  H   H4553     1.0  0.70858  0.11002  0.82692  1.0000
  H   H4554     1.0  0.71398  0.07051  0.85437  1.0000
  H   H4555     1.0  0.68932  0.07021  0.85654  1.0000
  C   C2862     1.0  0.78059  0.09065  0.83596  1.0000
  H   H4556     1.0  0.74515  0.21150  0.91671  1.0000
  C   C2863     1.0  0.78124  0.06942  0.82980  1.0000
  C   C2864     1.0  0.85366  0.29670  0.93676  1.0000
  C   C2865     1.0  0.68789  0.17508  0.92814  1.0000
  C   C2866     1.0  0.70139  0.17715  0.92646  1.0000
  C   C2867     1.0  0.70382  0.19054  0.92277  1.0000
  C   C2868     1.0  0.69274  0.20179  0.92098  1.0000
  C   C2869     1.0  0.76904  0.09097  0.81834  1.0000
  H   H4557     1.0  0.90907  0.16821  0.77216  1.0000
  C   C2870     1.0  0.88615  0.29787  0.74586  1.0000
  H   H4558     1.0  0.67440  0.14450  0.83259  1.0000
  C   C2871     1.0  0.66875  0.18728  0.88218  1.0000
  H   H4559     1.0  0.77021  0.21408  0.89220  1.0000
  C   C2872     1.0  0.77383  0.22453  0.91183  1.0000
  H   H4560     1.0  0.84749  0.31359  0.90520  1.0000
  H   H4561     1.0  0.90882  0.31856  0.85293  1.0000
  H   H4562     1.0  0.67153  0.00270  0.85154  1.0000
  C   C2873     1.0  0.76837  0.20340  0.92667  1.0000
  H   H4563     1.0  0.75896  0.14658  0.76054  1.0000
  C   C2874     1.0  0.84268  0.17618  0.75161  1.0000
  H   H4564     1.0  0.74695  0.25803  0.92645  1.0000
  H   H4565     1.0  0.98241  0.31760  0.84497  1.0000
  H   H4566     1.0  0.70304  0.23378  0.85839  1.0000
  C   C2875     1.0  0.99117  0.31348  0.83699  1.0000
  Fe  Fe586     1.0  0.88507  0.32012  0.78930  1.0000
  C   C2876     1.0  0.91735  0.31838  0.84401  1.0000
  H   H4567     1.0  0.71085  0.18825  0.84251  1.0000
  H   H4568     1.0  0.91347  0.15131  0.76839  1.0000
  H   H4569     1.0  0.78177  0.06429  0.82138  1.0000
  H   H4570     1.0  0.77089  0.08979  0.84401  1.0000
  C   C2877     1.0  0.69263  0.10050  0.87314  1.0000
  H   H4571     1.0  0.77295  0.23201  0.90195  1.0000
  H   H4572     1.0  0.85701  0.28605  0.93485  1.0000
  H   H4573     1.0  0.70032  0.14485  0.96553  1.0000
  H   H4574     1.0  0.85718  0.32207  0.93388  1.0000
  H   H4575     1.0  0.70472  0.10826  0.89717  1.0000
  H   H4576     1.0  0.78962  0.08580  0.84095  1.0000
  H   H4577     1.0  0.85695  0.32149  0.83894  1.0000
  H   H4578     1.0  0.75913  0.08971  0.82591  1.0000
  C   C2878     1.0  0.66772  0.16464  0.96583  1.0000
  S   S1159     1.0  0.90122  0.30812  0.83372  1.0000
  C   C2879     1.0  0.76728  0.14904  0.76397  1.0000
  H   H4579     1.0  0.92815  0.16017  0.74623  1.0000
  H   H4580     1.0  0.80363  0.08050  0.81816  1.0000
  C   C2880     1.0  0.79415  0.08584  0.81399  1.0000
  H   H4581     1.0  0.76181  0.30799  0.86939  1.0000
  H   H4582     1.0  0.87919  0.26326  0.80766  1.0000
  H   H4583     1.0  0.69263  0.12740  0.86502  1.0000
  H   H4584     1.0  0.79027  0.06395  0.83465  1.0000
  H   H4585     1.0  0.71077  0.19754  0.80519  1.0000
  H   H4586     1.0  0.68409  0.17965  0.82970  1.0000
  H   H4587     1.0  0.78064  0.10184  0.83225  1.0000
  C   C2881     1.0  0.70902  0.19441  0.83231  1.0000
  H   H4588     1.0  0.68849  0.10368  0.89915  1.0000
  H   H4589     1.0  0.89108  0.28700  0.74496  1.0000
  H   H4590     1.0  0.72011  0.09585  0.87184  1.0000
  H   H4591     1.0  0.76933  0.08674  0.80939  1.0000
  H   H4592     1.0  0.77156  0.06789  0.83767  1.0000
  H   H4593     1.0  0.71503  0.11068  0.85923  1.0000
  N   N285      1.0  0.76627  0.21353  0.91387  1.0000
  H   H4594     1.0  0.69374  0.20592  0.81306  1.0000
  H   H4595     1.0  0.72016  0.11273  0.87375  1.0000
  H   H4596     1.0  0.72244  0.17524  0.81735  1.0000
  H   H4597     1.0  0.71928  0.19637  0.82594  1.0000
  H   H4598     1.0  0.68185  0.19479  0.83615  1.0000
  C   C2882     1.0  0.71442  0.10681  0.87047  1.0000
  S   S1160     1.0  0.66975  0.05713  0.87658  1.0000
  H   H4599     1.0  0.70774  0.16816  0.81892  1.0000
  H   H4600     1.0  0.79475  0.08169  0.80487  1.0000
  S   S1161     1.0  0.81020  0.10764  0.75197  1.0000
  H   H4601     1.0  0.69789  0.08942  0.87426  1.0000
  C   C2883     1.0  0.69276  0.12294  0.87608  1.0000
  H   H4602     1.0  0.69372  0.18901  0.86467  1.0000
  N   N286      1.0  0.69980  0.10823  0.87819  1.0000
  C   C2884     1.0  0.71210  0.17386  0.82391  1.0000
  H   H4603     1.0  0.89552  0.15977  0.77299  1.0000
  C   C2885     1.0  0.68880  0.18310  0.89198  1.0000
  H   H4604     1.0  0.68153  0.20530  0.86275  1.0000
  S   S1162     1.0  0.86987  0.25565  0.74886  1.0000
  H   H4605     1.0  0.69036  0.17831  0.84472  1.0000
  H   H4606     1.0  0.79469  0.09689  0.81019  1.0000
  N   N287      1.0  0.77753  0.15472  0.75215  1.0000
  N   N288      1.0  0.89660  0.30566  0.74521  1.0000
  H   H4607     1.0  0.79414  0.14808  0.76311  1.0000
  Fe  Fe587     1.0  0.70550  0.23400  0.88400  1.0000
  H   H4608     1.0  0.69815  0.12910  0.87947  1.0000
  H   H4609     1.0  0.92693  0.30955  0.81273  1.0000
  C   C2886     1.0  0.67942  0.15456  0.98478  1.0000
  H   H4610     1.0  0.69243  0.10464  0.86207  1.0000
  H   H4611     1.0  0.68168  0.10097  0.87889  1.0000
  C   C2887     1.0  0.91642  0.31362  0.83281  1.0000
  C   C2888     1.0  0.77162  0.20663  0.90203  1.0000
  C   C2889     1.0  0.75123  0.21955  0.91493  1.0000
  H   H4612     1.0  0.91239  0.30428  0.75606  1.0000
  H   H4613     1.0  0.69458  0.17429  0.88696  1.0000
  H   H4614     1.0  0.78965  0.13483  0.74877  1.0000
  H   H4615     1.0  0.89147  0.15653  0.75147  1.0000
  C   C2890     1.0  0.77042  0.16758  0.74421  1.0000
  H   H4616     1.0  0.68479  0.26422  0.79650  1.0000
  C   C2891     1.0  0.67811  0.23035  0.84428  1.0000
  C   C2892     1.0  0.69006  0.14890  0.96255  1.0000
  H   H4617     1.0  0.76449  0.20834  0.93577  1.0000
  C   C2893     1.0  0.81973  0.31423  0.95603  1.0000
  H   H4618     1.0  0.83232  0.17977  0.75734  1.0000
  H   H4619     1.0  0.78513  0.22031  0.91150  1.0000
  S   S1163     1.0  0.71511  0.23348  0.90147  1.0000
  C   C2894     1.0  0.67836  0.26330  0.80717  1.0000
  C   C2895     1.0  0.76444  0.30528  0.87969  1.0000
  C   C2896     1.0  0.92012  0.16990  0.74517  1.0000
  C   C2897     1.0  0.67549  0.17346  0.80751  1.0000
  C   C2898     1.0  0.93963  0.31739  0.82132  1.0000
  C   C2899     1.0  0.75603  0.30464  0.90404  1.0000
  H   H4620     1.0  0.68108  0.21042  0.89116  1.0000
  Fe  Fe588     1.0  0.73458  0.23567  0.88499  1.0000
  H   H4621     1.0  0.76305  0.31116  0.90415  1.0000
  C   C2900     1.0  0.69278  0.23405  0.85729  1.0000
  H   H4622     1.0  0.86281  0.27199  0.82777  1.0000
  H   H4623     1.0  0.78293  0.20192  0.90091  1.0000
  C   C2901     1.0  0.90449  0.29864  0.75611  1.0000
  H   H4624     1.0  0.77259  0.26176  0.87787  1.0000
  H   H4625     1.0  0.76272  0.19501  0.92855  1.0000
  H   H4626     1.0  0.80467  0.32101  0.84716  1.0000
  H   H4627     1.0  0.74687  0.22517  0.92351  1.0000
  H   H4628     1.0  0.69206  0.15259  0.95121  1.0000
  C   C2902     1.0  0.92754  0.31327  0.82138  1.0000
  S   S1164     1.0  0.72425  0.23817  0.86755  1.0000
  S   S1165     1.0  0.86478  0.14177  0.73762  1.0000
  C   C2903     1.0  0.67680  0.18641  0.92653  1.0000
  Fe  Fe589     1.0  0.89502  0.30494  0.81553  1.0000
  S   S1166     1.0  0.90510  0.30565  0.79312  1.0000
  H   H4629     1.0  0.69659  0.18762  0.89404  1.0000
  Fe  Fe590     1.0  0.86731  0.30277  0.81180  1.0000
  S   S1167     1.0  0.87454  0.30384  0.78913  1.0000
  S   S1168     1.0  0.84530  0.30109  0.82205  1.0000
  Fe  Fe591     1.0  0.89379  0.28912  0.79454  1.0000
  S   S1169     1.0  0.90345  0.27066  0.78447  1.0000
  S   S1170     1.0  0.84648  0.20225  0.74813  1.0000
  S   S1171     1.0  0.88578  0.28684  0.81737  1.0000
  H   H4630     1.0  0.68277  0.25317  0.81331  1.0000
  Fe  Fe592     1.0  0.78729  0.28183  0.91625  1.0000
  S   S1172     1.0  0.80880  0.27562  0.92059  1.0000
  S   S1173     1.0  0.77110  0.26857  0.92362  1.0000
  Fe  Fe593     1.0  0.79073  0.31075  0.90203  1.0000
  S   S1174     1.0  0.81242  0.30728  0.90498  1.0000
  Fe  Fe594     1.0  0.81545  0.28714  0.89906  1.0000
  S   S1175     1.0  0.83643  0.27957  0.88637  1.0000
  Fe  Fe595     1.0  0.80434  0.29620  0.92625  1.0000
  S   S1176     1.0  0.81226  0.29729  0.94426  1.0000
  S   S1177     1.0  0.79439  0.29153  0.89409  1.0000
  S   S1178     1.0  0.78217  0.30147  0.92395  1.0000
  H   H4631     1.0  0.87835  0.29758  0.75579  1.0000
  N   N289      1.0  0.85540  0.30706  0.92376  1.0000
  C   C2904     1.0  0.74218  0.29956  0.89120  1.0000
  C   C2905     1.0  0.74753  0.25473  0.90646  1.0000
  C   C2906     1.0  0.75254  0.25886  0.91583  1.0000
  C   C2907     1.0  0.87285  0.25542  0.80960  1.0000
  H   H4632     1.0  0.82047  0.29892  0.84304  1.0000
  H   H4633     1.0  0.89585  0.18613  0.74056  1.0000
  H   H4634     1.0  0.85848  0.28133  0.80409  1.0000
  N   N290      1.0  0.85804  0.26071  0.81551  1.0000
  N   N291      1.0  0.90605  0.16768  0.75251  1.0000
  C   C2908     1.0  0.84998  0.25014  0.81750  1.0000
  H   H4635     1.0  0.85389  0.24054  0.82462  1.0000
  H   H4636     1.0  0.87376  0.29426  0.91393  1.0000
  H   H4637     1.0  0.89844  0.24436  0.75326  1.0000
  C   C2909     1.0  0.75485  0.25560  0.89278  1.0000
  H   H4638     1.0  0.87704  0.30552  0.92282  1.0000
  C   C2910     1.0  0.81341  0.31350  0.94583  1.0000
  C   C2911     1.0  0.67927  0.19973  0.92303  1.0000
  H   H4639     1.0  0.82320  0.30495  0.96320  1.0000
  C   C2912     1.0  0.76477  0.26401  0.91154  1.0000
  C   C2913     1.0  0.77184  0.26523  0.89778  1.0000
  C   C2914     1.0  0.76686  0.26109  0.88844  1.0000
  H   H4640     1.0  0.78137  0.26899  0.89441  1.0000
  C   C2915     1.0  0.67832  0.15145  0.82336  1.0000
  H   H4641     1.0  0.92316  0.17753  0.74903  1.0000
  H   H4642     1.0  0.68482  0.14007  0.96502  1.0000
  C   C2916     1.0  0.94052  0.32213  0.83256  1.0000
  H   H4643     1.0  0.78392  0.16505  0.76423  1.0000
  H   H4644     1.0  0.87190  0.31238  0.90668  1.0000
  H   H4645     1.0  0.90999  0.28795  0.75499  1.0000
  S   S1179     1.0  0.87583  0.32068  0.81139  1.0000
  C   C2917     1.0  0.84273  0.29577  0.84000  1.0000
  C   C2918     1.0  0.82926  0.29559  0.84796  1.0000
  C   C2919     1.0  0.82715  0.29102  0.86231  1.0000
  C   C2920     1.0  0.83856  0.28627  0.86863  1.0000
  C   C2921     1.0  0.85200  0.28652  0.86065  1.0000
  C   C2922     1.0  0.85406  0.29146  0.84639  1.0000
  H   H4646     1.0  0.86084  0.28293  0.86553  1.0000
  H   H4647     1.0  0.86444  0.29182  0.84042  1.0000
  C   C2923     1.0  0.89409  0.26602  0.77490  1.0000
  C   C2924     1.0  0.88023  0.27254  0.77477  1.0000
  H   H4648     1.0  0.87504  0.28032  0.78071  1.0000
  H   H4649     1.0  0.76977  0.29422  0.88151  1.0000
  C   C2925     1.0  0.85680  0.26409  0.82891  1.0000
  H   H4650     1.0  0.85980  0.29755  0.94380  1.0000
  S   S1180     1.0  0.88004  0.21587  0.74499  1.0000
  H   H4651     1.0  0.79728  0.31510  0.87249  1.0000
  H   H4652     1.0  0.86077  0.25491  0.83644  1.0000
  H   H4653     1.0  0.73808  0.25081  0.90983  1.0000
  C   C2926     1.0  0.89332  0.25217  0.75929  1.0000
  N   N292      1.0  0.75194  0.30808  0.89065  1.0000
  H   H4654     1.0  0.68965  0.17626  0.95470  1.0000
  C   C2927     1.0  0.67317  0.20545  0.88996  1.0000
  H   H4655     1.0  0.99702  0.30358  0.84214  1.0000
  C   C2928     1.0  0.84661  0.16280  0.74904  1.0000
  C   C2929     1.0  0.85198  0.18504  0.74639  1.0000
  C   C2930     1.0  0.68814  0.19790  0.86962  1.0000
  H   H4656     1.0  0.76606  0.19835  0.90312  1.0000
  H   H4657     1.0  0.74700  0.28837  0.89359  1.0000
  C   C2931     1.0  0.85249  0.27323  0.80600  1.0000
  S   S1181     1.0  0.67702  0.22493  0.82997  1.0000
  H   H4658     1.0  0.83876  0.25385  0.82193  1.0000
  H   H4659     1.0  0.73900  0.30172  0.88121  1.0000
  C   C2932     1.0  0.78842  0.15763  0.75725  1.0000
  N   N293      1.0  0.67973  0.19345  0.88343  1.0000
  H   H4660     1.0  0.98633  0.31121  0.82959  1.0000
  H   H4661     1.0  0.87416  0.25253  0.79959  1.0000
  H   H4662     1.0  0.84145  0.27779  0.81032  1.0000
  H   H4663     1.0  0.85067  0.24738  0.80756  1.0000
  C   C2933     1.0  0.68109  0.23815  0.86724  1.0000
  H   H4664     1.0  0.85296  0.27104  0.79587  1.0000
  H   H4665     1.0  0.91133  0.25058  0.76729  1.0000
  S   S1182     1.0  0.75001  0.24929  0.88088  1.0000
  Fe  Fe596     1.0  0.82397  0.12163  0.73780  1.0000
  C   C2934     1.0  0.87299  0.26904  0.76688  1.0000
  H   H4666     1.0  0.87751  0.24615  0.81662  1.0000
  H   H4667     1.0  0.81676  0.29081  0.86841  1.0000
  C   C2935     1.0  0.87017  0.30466  0.91646  1.0000
  H   H4668     1.0  0.83935  0.15604  0.75301  1.0000
  H   H4669     1.0  0.84579  0.26839  0.83355  1.0000
  H   H4670     1.0  0.77235  0.13941  0.77021  1.0000
  C   C2936     1.0  0.89594  0.18102  0.75147  1.0000
  H   H4671     1.0  0.86229  0.27430  0.76672  1.0000
  H   H4672     1.0  0.68260  0.17878  0.90207  1.0000
  C   C2937     1.0  0.87949  0.25892  0.75905  1.0000
  C   C2938     1.0  0.90060  0.25574  0.76722  1.0000
  H   H4673     1.0  0.69891  0.16850  0.96828  1.0000
  H   H4674     1.0  0.76549  0.17547  0.75062  1.0000
  C   C2939     1.0  0.90604  0.16145  0.76717  1.0000
  H   H4675     1.0  0.90948  0.14822  0.74682  1.0000
  C   C2940     1.0  0.78402  0.14461  0.74319  1.0000
  H   H4676     1.0  0.68613  0.16479  0.93023  1.0000
  H   H4677     1.0  0.74685  0.30617  0.91266  1.0000
  H   H4678     1.0  0.69615  0.20314  0.87013  1.0000
  H   H4679     1.0  0.83537  0.30756  0.92039  1.0000
  N   N294      1.0  0.68139  0.15996  0.96976  1.0000
  S   S1183     1.0  0.82435  0.14134  0.74287  1.0000
  H   H4680     1.0  0.89857  0.18829  0.75615  1.0000
  H   H4681     1.0  0.68180  0.12443  0.88207  1.0000
  H   H4682     1.0  0.68218  0.18004  0.97144  1.0000
  H   H4683     1.0  0.67077  0.20855  0.92164  1.0000
  C   C2941     1.0  0.84658  0.30588  0.91506  1.0000
  H   H4684     1.0  0.84257  0.29797  0.94233  1.0000
  C   C2942     1.0  0.85118  0.32100  0.92682  1.0000
  H   H4685     1.0  0.94830  0.31688  0.81256  1.0000
  H   H4686     1.0  0.76166  0.29375  0.90638  1.0000
  H   H4687     1.0  0.79623  0.16211  0.74861  1.0000
  H   H4688     1.0  0.84942  0.29548  0.91255  1.0000
  C   C2943     1.0  0.68836  0.17169  0.96590  1.0000
  H   H4689     1.0  0.76217  0.15639  0.77096  1.0000
  H   H4690     1.0  0.89751  0.29783  0.76648  1.0000
  H   H4691     1.0  0.67330  0.17810  0.87744  1.0000
  H   H4692     1.0  0.77613  0.14201  0.73925  1.0000
  C   C2944     1.0  0.88946  0.31972  0.74725  1.0000
  H   H4693     1.0  0.66774  0.25457  0.79029  1.0000
  H   H4694     1.0  0.66878  0.16897  0.95460  1.0000
  C   C2945     1.0  0.66780  0.23844  0.86561  1.0000
  H   H4695     1.0  0.88200  0.31952  0.75740  1.0000
  S   S1184     1.0  0.66761  0.29062  0.73723  1.0000
  C   C2946     1.0  0.86934  0.16694  0.73662  1.0000
  H   H4696     1.0  0.88032  0.30257  0.73748  1.0000
  C   C2947     1.0  0.92930  0.32272  0.84384  1.0000
  Fe  Fe597     1.0  0.86215  0.21531  0.73659  1.0000
  C   C2948     1.0  0.74518  0.32283  0.88768  1.0000
  Fe  Fe598     1.0  0.87482  0.23876  0.73679  1.0000
  H   H4697     1.0  0.83998  0.32340  0.93178  1.0000
  S   S1185     1.0  0.66701  0.09060  0.84549  1.0000
  H   H4698     1.0  0.66694  0.24310  0.80683  1.0000
  S   S1186     1.0  0.66700  0.14318  0.94151  1.0000
  C   C2949     1.0  0.85334  0.35833  0.00574  1.0000
  H   H4699     1.0  0.80902  0.41716  0.17890  1.0000
  C   C2950     1.0  0.78775  0.40786  0.17691  1.0000
  Fe  Fe599     1.0  0.78241  0.36097  0.15984  1.0000
  S   S1187     1.0  0.80533  0.35503  0.15852  1.0000
  S   S1188     1.0  0.77730  0.35718  0.14153  1.0000
  Fe  Fe600     1.0  0.77693  0.37323  0.18503  1.0000
  S   S1189     1.0  0.79959  0.36855  0.18553  1.0000
  S   S1190     1.0  0.76289  0.38474  0.20120  1.0000
  Fe  Fe601     1.0  0.80307  0.37575  0.16269  1.0000
  S   S1191     1.0  0.81766  0.38876  0.14854  1.0000
  Fe  Fe602     1.0  0.79977  0.34833  0.18136  1.0000
  C   C2951     1.0  0.82117  0.35160  0.04958  1.0000
  S   S1192     1.0  0.78039  0.38241  0.16235  1.0000
  S   S1193     1.0  0.77687  0.35220  0.18255  1.0000
  Fe  Fe603     1.0  0.96171  0.33423  0.13918  1.0000
  S   S1194     1.0  0.97067  0.34675  0.11897  1.0000
  Fe  Fe604     1.0  0.94511  0.35936  0.15023  1.0000
  S   S1195     1.0  0.95292  0.37386  0.13102  1.0000
  S   S1196     1.0  0.92770  0.36706  0.16686  1.0000
  Fe  Fe605     1.0  0.94904  0.35960  0.12014  1.0000
  S   S1197     1.0  0.93873  0.36893  0.10201  1.0000
  Fe  Fe606     1.0  0.97388  0.35971  0.13178  1.0000
  C   C2952     1.0  0.83972  0.33618  0.05985  1.0000
  S   S1198     1.0  0.93979  0.34602  0.13926  1.0000
  S   S1199     1.0  0.96637  0.34623  0.15203  1.0000
  Fe  Fe607     1.0  0.85460  0.38043  0.08395  1.0000
  S   S1200     1.0  0.87317  0.37443  0.06738  1.0000
  S   S1201     1.0  0.84430  0.39970  0.09221  1.0000
  Fe  Fe608     1.0  0.84696  0.35244  0.09131  1.0000
  S   S1202     1.0  0.86444  0.34388  0.07531  1.0000
  S   S1203     1.0  0.83075  0.34273  0.10734  1.0000
  Fe  Fe609     1.0  0.87715  0.35425  0.08260  1.0000
  S   S1204     1.0  0.89593  0.34109  0.09081  1.0000
  Fe  Fe610     1.0  0.85908  0.36452  0.06129  1.0000
  S   S1205     1.0  0.85988  0.36132  0.09947  1.0000
  S   S1206     1.0  0.84034  0.37201  0.07693  1.0000
  Fe  Fe611     1.0  0.87615  0.43625  0.12711  1.0000
  S   S1207     1.0  0.88214  0.42057  0.14528  1.0000
  S   S1208     1.0  0.88219  0.43137  0.10603  1.0000
  Fe  Fe612     1.0  0.86637  0.45972  0.14254  1.0000
  S   S1209     1.0  0.87145  0.44612  0.16233  1.0000
  Fe  Fe613     1.0  0.89094  0.43665  0.14885  1.0000
  S   S1210     1.0  0.91260  0.43179  0.15226  1.0000
  Fe  Fe614     1.0  0.86218  0.43097  0.15735  1.0000
  S   S1211     1.0  0.85000  0.41675  0.17360  1.0000
  S   S1212     1.0  0.88680  0.45142  0.12959  1.0000
  S   S1213     1.0  0.85523  0.44543  0.13874  1.0000
  C   C2953     1.0  0.87546  0.61673  0.20087  1.0000
  C   C2954     1.0  0.85519  0.40769  0.09661  1.0000
  C   C2955     1.0  0.86931  0.40618  0.09024  1.0000
  C   C2956     1.0  0.87756  0.41347  0.09321  1.0000
  C   C2957     1.0  0.87184  0.42186  0.10294  1.0000
  C   C2958     1.0  0.85784  0.42301  0.10965  1.0000
  C   C2959     1.0  0.84947  0.41614  0.10628  1.0000
  H   H4700     1.0  0.87375  0.39975  0.08270  1.0000
  H   H4701     1.0  0.88836  0.41261  0.08792  1.0000
  H   H4702     1.0  0.85333  0.42946  0.11715  1.0000
  H   H4703     1.0  0.83853  0.41737  0.11116  1.0000
  H   H4704     1.0  0.88223  0.47874  0.09168  1.0000
  H   H4705     1.0  0.88972  0.46925  0.15471  1.0000
  C   C2960     1.0  0.92402  0.38505  0.16422  1.0000
  C   C2961     1.0  0.93443  0.39246  0.15736  1.0000
  C   C2962     1.0  0.93104  0.40690  0.15421  1.0000
  C   C2963     1.0  0.91723  0.41391  0.15783  1.0000
  C   C2964     1.0  0.90693  0.40651  0.16510  1.0000
  C   C2965     1.0  0.91034  0.39210  0.16838  1.0000
  H   H4706     1.0  0.94509  0.38706  0.15452  1.0000
  H   H4707     1.0  0.93906  0.41260  0.14871  1.0000
  H   H4708     1.0  0.89632  0.41189  0.16829  1.0000
  H   H4709     1.0  0.90233  0.38642  0.17395  1.0000
  C   C2966     1.0  0.92565  0.36185  0.10009  1.0000
  C   C2967     1.0  0.92282  0.34941  0.10844  1.0000
  C   C2968     1.0  0.91347  0.34321  0.10568  1.0000
  C   C2969     1.0  0.90648  0.34972  0.09491  1.0000
  C   C2970     1.0  0.90870  0.36255  0.08707  1.0000
  C   C2971     1.0  0.91841  0.36851  0.08954  1.0000
  H   H4710     1.0  0.92817  0.34434  0.11672  1.0000
  H   H4711     1.0  0.88092  0.61840  0.18985  1.0000
  H   H4712     1.0  0.90338  0.36761  0.07873  1.0000
  H   H4713     1.0  0.92052  0.37816  0.08305  1.0000
  C   C2972     1.0  0.82761  0.39536  0.15562  1.0000
  C   C2973     1.0  0.82761  0.39165  0.16967  1.0000
  C   C2974     1.0  0.83474  0.39807  0.17517  1.0000
  C   C2975     1.0  0.84195  0.40807  0.16658  1.0000
  C   C2976     1.0  0.84252  0.41121  0.15244  1.0000
  C   C2977     1.0  0.83531  0.40490  0.14699  1.0000
  H   H4714     1.0  0.82206  0.38396  0.17628  1.0000
  H   H4715     1.0  0.83452  0.39544  0.18609  1.0000
  H   H4716     1.0  0.84829  0.41867  0.14570  1.0000
  H   H4717     1.0  0.83550  0.40762  0.13608  1.0000
  C   C2978     1.0  0.74473  0.36765  0.20673  1.0000
  C   C2979     1.0  0.73381  0.36142  0.21497  1.0000
  H   H4718     1.0  0.74963  0.36537  0.19668  1.0000
  H   H4719     1.0  0.73051  0.35418  0.21128  1.0000
  S   S1214     1.0  0.94466  0.64565  0.11111  1.0000
  C   C2980     1.0  0.84840  0.33811  0.17074  1.0000
  C   C2981     1.0  0.83412  0.33923  0.17641  1.0000
  H   H4720     1.0  0.86662  0.61249  0.13336  1.0000
  H   H4721     1.0  0.85201  0.34618  0.16253  1.0000
  H   H4722     1.0  0.82685  0.34834  0.17281  1.0000
  H   H4723     1.0  0.79455  0.43136  0.17691  1.0000
  H   H4724     1.0  0.78042  0.40079  0.18004  1.0000
  H   H4725     1.0  0.92580  0.47430  0.14142  1.0000
  H   H4726     1.0  0.87238  0.34358  0.03618  1.0000
  H   H4727     1.0  0.86434  0.35492  0.17763  1.0000
  H   H4728     1.0  0.82969  0.63127  0.13755  1.0000
  H   H4729     1.0  0.86026  0.60317  0.22322  1.0000
  H   H4730     1.0  0.86081  0.37055  0.18377  1.0000
  H   H4731     1.0  0.82582  0.33171  0.03530  1.0000
  C   C2982     1.0  0.77264  0.34135  0.14422  1.0000
  H   H4732     1.0  0.84609  0.61434  0.10784  1.0000
  H   H4733     1.0  0.83113  0.60673  0.13755  1.0000
  H   H4734     1.0  0.77996  0.34000  0.12288  1.0000
  H   H4735     1.0  0.76421  0.33987  0.16596  1.0000
  C   C2983     1.0  0.91667  0.46935  0.14537  1.0000
  H   H4736     1.0  0.87831  0.62370  0.20576  1.0000
  H   H4737     1.0  0.86301  0.47796  0.16409  1.0000
  C   C2984     1.0  0.79852  0.42201  0.18426  1.0000
  N   N295      1.0  0.90778  0.47371  0.15804  1.0000
  H   H4738     1.0  0.79996  0.42541  0.19307  1.0000
  C   C2985     1.0  0.74903  0.37704  0.21137  1.0000
  H   H4739     1.0  0.87354  0.38884  0.17116  1.0000
  N   N296      1.0  0.92155  0.40589  0.11426  1.0000
  C   C2986     1.0  0.93682  0.40404  0.10941  1.0000
  C   C2987     1.0  0.91583  0.41942  0.11817  1.0000
  C   C2988     1.0  0.91826  0.39488  0.12633  1.0000
  C   C2989     1.0  0.91529  0.40525  0.10316  1.0000
  H   H4740     1.0  0.94154  0.39393  0.10638  1.0000
  H   H4741     1.0  0.94184  0.40445  0.11759  1.0000
  H   H4742     1.0  0.93967  0.41214  0.10027  1.0000
  H   H4743     1.0  0.90432  0.42132  0.12150  1.0000
  H   H4744     1.0  0.92002  0.42012  0.12681  1.0000
  H   H4745     1.0  0.91831  0.42797  0.10938  1.0000
  H   H4746     1.0  0.90683  0.39612  0.13039  1.0000
  H   H4747     1.0  0.92295  0.39493  0.13486  1.0000
  H   H4748     1.0  0.92233  0.38452  0.12370  1.0000
  H   H4749     1.0  0.90383  0.40615  0.10666  1.0000
  H   H4750     1.0  0.91969  0.39532  0.09967  1.0000
  H   H4751     1.0  0.91709  0.41370  0.09404  1.0000
  N   N297      1.0  0.87750  0.36903  0.16593  1.0000
  C   C2990     1.0  0.86395  0.36620  0.17433  1.0000
  C   C2991     1.0  0.85788  0.32629  0.17534  1.0000
  C   C2992     1.0  0.87656  0.38408  0.16196  1.0000
  C   C2993     1.0  0.88109  0.36326  0.15343  1.0000
  C   C2994     1.0  0.89440  0.59822  0.20713  1.0000
  H   H4752     1.0  0.88402  0.62387  0.05654  1.0000
  C   C2995     1.0  0.93188  0.65516  0.10174  1.0000
  H   H4753     1.0  0.81403  0.33266  0.07260  1.0000
  H   H4754     1.0  0.84793  0.36242  0.99736  1.0000
  H   H4755     1.0  0.88669  0.38659  0.15588  1.0000
  H   H4756     1.0  0.88179  0.35192  0.15612  1.0000
  H   H4757     1.0  0.86859  0.38928  0.15565  1.0000
  C   C2996     1.0  0.86680  0.65200  0.00133  1.0000
  H   H4758     1.0  0.87310  0.36793  0.14705  1.0000
  H   H4759     1.0  0.84707  0.59675  0.12940  1.0000
  C   C2997     1.0  0.72724  0.36438  0.22797  1.0000
  H   H4760     1.0  0.82547  0.38433  0.12012  1.0000
  H   H4761     1.0  0.79871  0.39869  0.09906  1.0000
  H   H4762     1.0  0.85551  0.37081  0.16847  1.0000
  H   H4763     1.0  0.85382  0.49364  0.10585  1.0000
  C   C2998     1.0  0.86255  0.47218  0.08336  1.0000
  H   H4764     1.0  0.86725  0.46101  0.08375  1.0000
  C   C2999     1.0  0.85753  0.36037  0.02729  1.0000
  H   H4765     1.0  0.78702  0.39053  0.12346  1.0000
  H   H4766     1.0  0.79615  0.32624  0.17039  1.0000
  C   C3000     1.0  0.73141  0.37388  0.23261  1.0000
  C   C3001     1.0  0.84211  0.62249  0.11400  1.0000
  H   H4767     1.0  0.83054  0.62478  0.11599  1.0000
  H   H4768     1.0  0.86624  0.62507  0.11749  1.0000
  H   H4769     1.0  0.84557  0.63197  0.10749  1.0000
  C   C3002     1.0  0.77522  0.33505  0.13304  1.0000
  H   H4770     1.0  0.86406  0.62005  0.20127  1.0000
  H   H4771     1.0  0.88936  0.35118  0.17722  1.0000
  C   C3003     1.0  0.87514  0.47283  0.09979  1.0000
  N   N298      1.0  0.86121  0.47586  0.09664  1.0000
  H   H4772     1.0  0.79797  0.40231  0.17173  1.0000
  H   H4773     1.0  0.89598  0.49217  0.14742  1.0000
  H   H4774     1.0  0.80938  0.32963  0.05822  1.0000
  C   C3004     1.0  0.80359  0.37144  0.10971  1.0000
  H   H4775     1.0  0.99407  0.63294  0.17962  1.0000
  C   C3005     1.0  0.85072  0.36563  0.01624  1.0000
  H   H4776     1.0  0.91075  0.47208  0.13706  1.0000
  H   H4777     1.0  0.80325  0.36208  0.11813  1.0000
  H   H4778     1.0  0.82968  0.37287  0.10856  1.0000
  H   H4779     1.0  0.89930  0.45548  0.16548  1.0000
  H   H4780     1.0  0.84610  0.60185  0.14502  1.0000
  C   C3006     1.0  0.88841  0.36254  0.17401  1.0000
  H   H4781     1.0  0.84434  0.49334  0.09364  1.0000
  H   H4782     1.0  0.84329  0.37538  0.01585  1.0000
  H   H4783     1.0  0.87416  0.62304  0.04494  1.0000
  H   H4784     1.0  0.91260  0.59573  0.12438  1.0000
  H   H4785     1.0  0.90946  0.47282  0.17858  1.0000
  C   C3007     1.0  0.86290  0.34573  0.00613  1.0000
  C   C3008     1.0  0.86966  0.34041  0.01723  1.0000
  C   C3009     1.0  0.86702  0.34771  0.02776  1.0000
  H   H4786     1.0  0.82141  0.36754  0.12621  1.0000
  H   H4787     1.0  0.91998  0.45839  0.17125  1.0000
  C   C3010     1.0  0.82172  0.37645  0.11733  1.0000
  C   C3011     1.0  0.99518  0.64005  0.16977  1.0000
  H   H4788     1.0  0.77557  0.42286  0.20471  1.0000
  H   H4789     1.0  0.89631  0.49255  0.16460  1.0000
  S   S1215     1.0  0.85355  0.37001  0.04023  1.0000
  C   C3012     1.0  0.82933  0.32841  0.18645  1.0000
  H   H4790     1.0  0.85357  0.64465  0.04107  1.0000
  C   C3013     1.0  0.80889  0.39409  0.10210  1.0000
  H   H4791     1.0  0.90037  0.59941  0.19626  1.0000
  H   H4792     1.0  0.88033  0.36519  0.99697  1.0000
  C   C3014     1.0  0.92291  0.59690  0.11752  1.0000
  H   H4793     1.0  0.78762  0.39272  0.20246  1.0000
  N   N299      1.0  0.80795  0.38212  0.11370  1.0000
  H   H4794     1.0  0.81230  0.40224  0.10481  1.0000
  H   H4795     1.0  0.94396  0.33275  0.09303  1.0000
  N   N300      1.0  0.84713  0.61815  0.12697  1.0000
  C   C3015     1.0  0.79761  0.38648  0.12570  1.0000
  N   N301      1.0  0.78898  0.41236  0.18890  1.0000
  H   H4796     1.0  0.80046  0.39463  0.12894  1.0000
  H   H4797     1.0  0.77046  0.42839  0.18839  1.0000
  H   H4798     1.0  0.76768  0.41220  0.19928  1.0000
  H   H4799     1.0  0.79688  0.37767  0.13463  1.0000
  C   C3016     1.0  0.77508  0.41929  0.19561  1.0000
  H   H4800     1.0  0.80502  0.39477  0.19419  1.0000
  H   H4801     1.0  0.81671  0.39116  0.09292  1.0000
  H   H4802     1.0  0.89883  0.36436  0.16795  1.0000
  C   C3017     1.0  0.79453  0.40026  0.19884  1.0000
  H   H4803     1.0  0.81094  0.36814  0.10045  1.0000
  H   H4804     1.0  0.79301  0.37516  0.10743  1.0000
  H   H4805     1.0  0.78380  0.41673  0.16908  1.0000
  H   H4806     1.0  0.79547  0.40325  0.20809  1.0000
  H   H4807     1.0  0.86870  0.33116  0.10635  1.0000
  H   H4808     1.0  0.86043  0.38303  0.98821  1.0000
  H   H4809     1.0  0.92071  0.45799  0.14723  1.0000
  H   H4810     1.0  0.87450  0.47558  0.10971  1.0000
  H   H4811     1.0  0.86141  0.49720  0.08776  1.0000
  C   C3018     1.0  0.91594  0.46974  0.16885  1.0000
  C   C3019     1.0  0.98643  0.65229  0.14931  1.0000
  C   C3020     1.0  0.90267  0.48882  0.15514  1.0000
  H   H4812     1.0  0.91138  0.49435  0.15111  1.0000
  H   H4813     1.0  0.88012  0.46169  0.10064  1.0000
  C   C3021     1.0  0.85492  0.49067  0.09590  1.0000
  H   H4814     1.0  0.86929  0.47811  0.07482  1.0000
  H   H4815     1.0  0.85086  0.47036  0.11775  1.0000
  C   C3022     1.0  0.85226  0.46767  0.10762  1.0000
  H   H4816     1.0  0.88861  0.47025  0.17211  1.0000
  H   H4817     1.0  0.92501  0.47476  0.16564  1.0000
  C   C3023     1.0  0.89583  0.46688  0.16281  1.0000
  H   H4818     1.0  0.85223  0.47428  0.08068  1.0000
  H   H4819     1.0  0.85682  0.45643  0.10863  1.0000
  S   S1216     1.0  0.85959  0.48277  0.13603  1.0000
  C   C3024     1.0  0.86441  0.48823  0.15891  1.0000
  S   S1217     1.0  0.93067  0.64589  0.17238  1.0000
  H   H4820     1.0  0.89774  0.60475  0.21212  1.0000
  S   S1218     1.0  0.94564  0.62694  0.14913  1.0000
  H   H4821     1.0  0.87708  0.33065  0.01759  1.0000
  Fe  Fe615     1.0  0.92411  0.63348  0.16137  1.0000
  S   S1219     1.0  0.90788  0.62081  0.17188  1.0000
  Fe  Fe616     1.0  0.95187  0.64110  0.15860  1.0000
  C   C3025     1.0  0.95438  0.32978  0.09572  1.0000
  Fe  Fe617     1.0  0.89144  0.56420  0.14950  1.0000
  S   S1220     1.0  0.87365  0.58072  0.14345  1.0000
  S   S1221     1.0  0.91208  0.56986  0.14657  1.0000
  Fe  Fe618     1.0  0.87415  0.54224  0.15887  1.0000
  S   S1222     1.0  0.85471  0.55725  0.15396  1.0000
  S   S1223     1.0  0.87472  0.51955  0.16805  1.0000
  Fe  Fe619     1.0  0.86904  0.56532  0.13466  1.0000
  S   S1224     1.0  0.86186  0.57332  0.11478  1.0000
  Fe  Fe620     1.0  0.86085  0.57146  0.16329  1.0000
  S   S1225     1.0  0.84540  0.58786  0.17356  1.0000
  S   S1226     1.0  0.88816  0.54937  0.13871  1.0000
  S   S1227     1.0  0.87906  0.55582  0.17013  1.0000
  Fe  Fe621     1.0  0.88350  0.63804  0.07586  1.0000
  H   H4822     1.0  0.84444  0.63894  0.12916  1.0000
  S   S1228     1.0  0.89706  0.61687  0.07887  1.0000
  H   H4823     1.0  0.89758  0.58728  0.21229  1.0000
  S   S1229     1.0  0.86175  0.64432  0.07214  1.0000
  H   H4824     1.0  0.91324  0.61553  0.13366  1.0000
  H   H4825     1.0  0.94667  0.60630  0.10924  1.0000
  H   H4826     1.0  0.86724  0.60733  0.11790  1.0000
  S   S1230     1.0  0.99402  0.36746  0.12435  1.0000
  H   H4827     1.0  0.81259  0.35271  0.04437  1.0000
  H   H4828     1.0  0.91342  0.61653  0.09729  1.0000
  H   H4829     1.0  0.93182  0.61006  0.13165  1.0000
  H   H4830     1.0  0.91170  0.33333  0.11183  1.0000
  H   H4831     1.0  0.90255  0.61941  0.11355  1.0000
  H   H4832     1.0  0.88614  0.36670  0.18348  1.0000
  H   H4833     1.0  0.92389  0.59277  0.10830  1.0000
  S   S1231     1.0  0.83540  0.62483  0.22697  1.0000
  C   C3026     1.0  0.82632  0.32924  0.10339  1.0000
  H   H4834     1.0  0.75936  0.33304  0.22867  1.0000
  Fe  Fe622     1.0  0.93961  0.64606  0.13360  1.0000
  C   C3027     1.0  0.85978  0.64129  0.00768  1.0000
  C   C3028     1.0  0.85508  0.63865  0.02205  1.0000
  H   H4835     1.0  0.85554  0.56489  0.21913  1.0000
  H   H4836     1.0  0.84952  0.63046  0.02703  1.0000
  C   C3029     1.0  0.75044  0.32883  0.23579  1.0000
  C   C3030     1.0  0.86926  0.50999  0.15940  1.0000
  C   C3031     1.0  0.86295  0.49324  0.14528  1.0000
  C   C3032     1.0  0.86429  0.50677  0.13885  1.0000
  C   C3033     1.0  0.86751  0.51511  0.14585  1.0000
  S   S1232     1.0  0.97060  0.63501  0.16850  1.0000
  H   H4837     1.0  0.86302  0.51079  0.12836  1.0000
  H   H4838     1.0  0.86879  0.52544  0.14073  1.0000
  C   C3034     1.0  0.87201  0.58481  0.10411  1.0000
  C   C3035     1.0  0.88527  0.58391  0.10607  1.0000
  C   C3036     1.0  0.89308  0.59362  0.09802  1.0000
  C   C3037     1.0  0.88742  0.60450  0.08836  1.0000
  C   C3038     1.0  0.87413  0.60545  0.08643  1.0000
  C   C3039     1.0  0.86654  0.59543  0.09412  1.0000
  H   H4839     1.0  0.88956  0.57565  0.11374  1.0000
  H   H4840     1.0  0.90338  0.59280  0.09946  1.0000
  H   H4841     1.0  0.86975  0.61376  0.07891  1.0000
  H   H4842     1.0  0.85630  0.59607  0.09258  1.0000
  C   C3040     1.0  0.84396  0.58630  0.19124  1.0000
  C   C3041     1.0  0.83576  0.59719  0.19751  1.0000
  C   C3042     1.0  0.83482  0.59654  0.21147  1.0000
  C   C3043     1.0  0.84206  0.58497  0.21927  1.0000
  C   C3044     1.0  0.85000  0.57391  0.21311  1.0000
  C   C3045     1.0  0.85102  0.57461  0.19908  1.0000
  H   H4843     1.0  0.83015  0.60618  0.19153  1.0000
  H   H4844     1.0  0.82840  0.60495  0.21621  1.0000
  C   C3046     1.0  0.84265  0.60534  0.13506  1.0000
  H   H4845     1.0  0.85725  0.56611  0.19435  1.0000
  C   C3047     1.0  0.84128  0.62911  0.13501  1.0000
  C   C3048     1.0  0.86250  0.61568  0.12379  1.0000
  H   H4846     1.0  0.90150  0.60357  0.05114  1.0000
  C   C3049     1.0  0.90924  0.60671  0.16472  1.0000
  C   C3050     1.0  0.89710  0.60296  0.16458  1.0000
  C   C3051     1.0  0.89791  0.59148  0.15931  1.0000
  C   C3052     1.0  0.91088  0.58379  0.15397  1.0000
  C   C3053     1.0  0.92304  0.58756  0.15408  1.0000
  C   C3054     1.0  0.92223  0.59898  0.15948  1.0000
  H   H4847     1.0  0.88702  0.60900  0.16843  1.0000
  H   H4848     1.0  0.88847  0.58860  0.15939  1.0000
  H   H4849     1.0  0.93311  0.58157  0.15008  1.0000
  H   H4850     1.0  0.93166  0.60169  0.15976  1.0000
  H   H4851     1.0  0.80583  0.33256  0.11640  1.0000
  H   H4852     1.0  0.93922  0.62341  0.10127  1.0000
  H   H4853     1.0  0.86416  0.59675  0.20040  1.0000
  C   C3055     1.0  0.91299  0.61996  0.10677  1.0000
  C   C3056     1.0  0.87530  0.59332  0.20103  1.0000
  H   H4854     1.0  0.86861  0.49268  0.17650  1.0000
  H   H4855     1.0  0.93099  0.59015  0.12316  1.0000
  C   C3057     1.0  0.74226  0.38027  0.22426  1.0000
  C   C3058     1.0  0.87171  0.60047  0.22241  1.0000
  C   C3059     1.0  0.93789  0.61256  0.10430  1.0000
  C   C3060     1.0  0.92336  0.61624  0.12626  1.0000
  N   N302      1.0  0.92428  0.61141  0.11372  1.0000
  H   H4856     1.0  0.84170  0.46954  0.10553  1.0000
  H   H4857     1.0  0.84482  0.62613  0.14490  1.0000
  H   H4858     1.0  0.91375  0.63096  0.10361  1.0000
  H   H4859     1.0  0.92448  0.62709  0.12380  1.0000
  H   H4860     1.0  0.93898  0.60903  0.09469  1.0000
  C   C3061     1.0  0.86750  0.49660  0.16595  1.0000
  H   H4861     1.0  0.83571  0.34062  0.06926  1.0000
  C   C3062     1.0  0.81316  0.32634  0.10951  1.0000
  S   S1233     1.0  0.85635  0.63126  0.99801  1.0000
  C   C3063     1.0  0.85740  0.64663  0.03003  1.0000
  S   S1234     1.0  0.84202  0.58457  0.23642  1.0000
  N   N303      1.0  0.87923  0.60218  0.20786  1.0000
  S   S1235     1.0  0.87917  0.65067  0.09170  1.0000
  N   N304      1.0  0.89600  0.62200  0.03629  1.0000
  C   C3064     1.0  0.89993  0.60684  0.04035  1.0000
  C   C3065     1.0  0.89392  0.62603  0.02201  1.0000
  C   C3066     1.0  0.90715  0.62810  0.03726  1.0000
  C   C3067     1.0  0.88295  0.62707  0.04566  1.0000
  H   H4862     1.0  0.90977  0.60260  0.03354  1.0000
  H   H4863     1.0  0.89167  0.60194  0.03982  1.0000
  H   H4864     1.0  0.89132  0.36509  0.14689  1.0000
  H   H4865     1.0  0.89104  0.63744  0.01868  1.0000
  H   H4866     1.0  0.90351  0.62229  0.01462  1.0000
  H   H4867     1.0  0.88537  0.62185  0.02094  1.0000
  H   H4868     1.0  0.91725  0.62437  0.03049  1.0000
  H   H4869     1.0  0.90876  0.62551  0.04800  1.0000
  H   H4870     1.0  0.90454  0.63955  0.03415  1.0000
  H   H4871     1.0  0.87998  0.63850  0.04327  1.0000
  C   C3068     1.0  0.98502  0.64296  0.16194  1.0000
  H   H4872     1.0  0.84528  0.32534  0.06288  1.0000
  C   C3069     1.0  0.86268  0.32612  0.11622  1.0000
  H   H4873     1.0  0.87691  0.58240  0.20669  1.0000
  H   H4874     1.0  0.95494  0.33770  0.10098  1.0000
  S   S1236     1.0  0.86685  0.33648  0.99290  1.0000
  H   H4875     1.0  0.87421  0.58962  0.22808  1.0000
  H   H4876     1.0  0.99203  0.35950  0.15422  1.0000
  H   H4877     1.0  0.88150  0.59348  0.19036  1.0000
  C   C3070     1.0  0.82240  0.64671  0.99187  1.0000
  C   C3071     1.0  0.76639  0.33496  0.15733  1.0000
  S   S1237     1.0  0.87543  0.32375  0.16693  1.0000
  C   C3072     1.0  0.87846  0.32752  0.12926  1.0000
  C   C3073     1.0  0.83414  0.33142  0.04052  1.0000
  S   S1238     1.0  0.79741  0.64764  0.22843  1.0000
  H   H4878     1.0  0.96230  0.33048  0.08589  1.0000
  H   H4879     1.0  0.82159  0.32412  0.16095  1.0000
  H   H4880     1.0  0.84753  0.34202  0.05288  1.0000
  H   H4881     1.0  0.87053  0.33524  0.13462  1.0000
  H   H4882     1.0  0.84155  0.33741  0.03297  1.0000
  H   H4883     1.0  0.82365  0.65359  0.22575  1.0000
  S   S1239     1.0  0.91769  0.65158  0.14510  1.0000
  S   S1240     1.0  0.81148  0.32874  0.19207  1.0000
  H   H4884     1.0  0.87051  0.65413  0.99028  1.0000
  S   S1241     1.0  0.89195  0.65380  0.05849  1.0000
  H   H4885     1.0  0.81664  0.35616  0.05889  1.0000
  N   N305      1.0  0.82833  0.33704  0.05317  1.0000
  H   H4886     1.0  0.74548  0.38761  0.22786  1.0000
  H   H4887     1.0  0.82851  0.35797  0.04249  1.0000
  H   H4888     1.0  0.74077  0.33555  0.23273  1.0000
  H   H4889     1.0  0.82191  0.64368  0.00315  1.0000
  H   H4890     1.0  0.80531  0.32845  0.14539  1.0000
  C   C3074     1.0  0.81832  0.32898  0.06275  1.0000
  H   H4891     1.0  0.85458  0.33431  0.12076  1.0000
  H   H4892     1.0  0.81350  0.64390  0.98979  1.0000
  H   H4893     1.0  0.91430  0.65028  0.11777  1.0000
  H   H4894     1.0  0.87418  0.60718  0.22788  1.0000
  H   H4895     1.0  0.97874  0.65454  0.14314  1.0000
  H   H4896     1.0  0.87788  0.38964  0.99604  1.0000
  H   H4897     1.0  0.88454  0.33325  0.11990  1.0000
  C   C3075     1.0  0.91769  0.65552  0.10732  1.0000
  H   H4898     1.0  0.83208  0.64021  0.98692  1.0000
  H   H4899     1.0  0.76814  0.63002  0.28901  1.0000
  H   H4900     1.0  0.69656  0.37542  0.45414  1.0000
  H   H4901     1.0  0.82732  0.65195  0.29723  1.0000
  S   S1242     1.0  0.68684  0.37030  0.26991  1.0000
  H   H4902     1.0  0.69891  0.32686  0.38908  1.0000
  Fe  Fe623     1.0  0.70625  0.35625  0.26078  1.0000
  S   S1243     1.0  0.71896  0.35685  0.27515  1.0000
  Fe  Fe624     1.0  0.71058  0.33877  0.28860  1.0000
  S   S1244     1.0  0.71455  0.35523  0.23840  1.0000
  Fe  Fe625     1.0  0.69904  0.36930  0.28548  1.0000
  S   S1245     1.0  0.69963  0.33687  0.27350  1.0000
  C   C3076     1.0  0.74412  0.65088  0.37284  1.0000
  H   H4903     1.0  0.67962  0.56416  0.37408  1.0000
  H   H4904     1.0  0.76522  0.62495  0.26188  1.0000
  C   C3077     1.0  0.68438  0.40563  0.30891  1.0000
  N   N306      1.0  0.84596  0.64661  0.28212  1.0000
  C   C3078     1.0  0.67032  0.33097  0.41500  1.0000
  C   C3079     1.0  0.71484  0.33268  0.32090  1.0000
  C   C3080     1.0  0.75264  0.65629  0.36061  1.0000
  H   H4905     1.0  0.71621  0.34200  0.31332  1.0000
  H   H4906     1.0  0.70661  0.34301  0.33792  1.0000
  C   C3081     1.0  0.68424  0.37727  0.40248  1.0000
  C   C3082     1.0  0.67694  0.35717  0.34858  1.0000
  C   C3083     1.0  0.76255  0.63838  0.28187  1.0000
  H   H4907     1.0  0.69370  0.64607  0.34092  1.0000
  H   H4908     1.0  0.72631  0.37628  0.24260  1.0000
  H   H4909     1.0  0.70470  0.61065  0.42416  1.0000
  N   N307      1.0  0.68497  0.32529  0.40899  1.0000
  H   H4910     1.0  0.69401  0.37207  0.40549  1.0000
  H   H4911     1.0  0.85659  0.63404  0.29799  1.0000
  H   H4912     1.0  0.85258  0.62574  0.27909  1.0000
  H   H4913     1.0  0.85125  0.65203  0.29851  1.0000
  C   C3084     1.0  0.68425  0.38645  0.38978  1.0000
  H   H4914     1.0  0.84512  0.63792  0.26571  1.0000
  H   H4915     1.0  0.75763  0.65015  0.35288  1.0000
  H   H4916     1.0  0.79093  0.64616  0.25772  1.0000
  S   S1246     1.0  0.69166  0.35112  0.30012  1.0000
  C   C3085     1.0  0.75384  0.57149  0.34311  1.0000
  H   H4917     1.0  0.68111  0.32848  0.38878  1.0000
  Fe  Fe626     1.0  0.68121  0.35082  0.28377  1.0000
  C   C3086     1.0  0.68499  0.39746  0.29978  1.0000
  H   H4918     1.0  0.75278  0.63543  0.28205  1.0000
  H   H4919     1.0  0.66818  0.34239  0.41343  1.0000
  S   S1247     1.0  0.70068  0.38611  0.29469  1.0000
  H   H4920     1.0  0.68620  0.37642  0.44219  1.0000
  H   H4921     1.0  0.69403  0.38829  0.38306  1.0000
  H   H4922     1.0  0.78138  0.62922  0.25177  1.0000
  C   C3087     1.0  0.67525  0.37825  0.47603  1.0000
  N   N308      1.0  0.75017  0.32830  0.25033  1.0000
  H   H4923     1.0  0.68453  0.35340  0.35544  1.0000
  C   C3088     1.0  0.68798  0.33106  0.39403  1.0000
  H   H4924     1.0  0.69366  0.40524  0.31227  1.0000
  C   C3089     1.0  0.85534  0.64462  0.29149  1.0000
  H   H4925     1.0  0.67489  0.45327  0.29741  1.0000
  H   H4926     1.0  0.74983  0.34212  0.26286  1.0000
  H   H4927     1.0  0.73993  0.34944  0.24981  1.0000
  H   H4928     1.0  0.86233  0.63763  0.26685  1.0000
  S   S1248     1.0  0.82205  0.64012  0.25329  1.0000
  H   H4929     1.0  0.70536  0.32499  0.41126  1.0000
  C   C3090     1.0  0.68964  0.62131  0.39647  1.0000
  H   H4930     1.0  0.73477  0.56116  0.36374  1.0000
  H   H4931     1.0  0.69971  0.59466  0.40555  1.0000
  H   H4932     1.0  0.69326  0.62231  0.38517  1.0000
  Fe  Fe627     1.0  0.82135  0.61931  0.26661  1.0000
  S   S1249     1.0  0.81414  0.62054  0.28892  1.0000
  S   S1250     1.0  0.84324  0.61002  0.25720  1.0000
  Fe  Fe628     1.0  0.71538  0.61570  0.35422  1.0000
  S   S1251     1.0  0.72073  0.62172  0.33124  1.0000
  S   S1252     1.0  0.69925  0.60408  0.36780  1.0000
  Fe  Fe629     1.0  0.73658  0.62938  0.35793  1.0000
  S   S1253     1.0  0.74420  0.63653  0.33521  1.0000
  S   S1254     1.0  0.74156  0.63408  0.37585  1.0000
  Fe  Fe630     1.0  0.72159  0.64204  0.33455  1.0000
  Fe  Fe631     1.0  0.74291  0.61558  0.33370  1.0000
  S   S1255     1.0  0.75739  0.60224  0.31934  1.0000
  S   S1256     1.0  0.71405  0.63668  0.35736  1.0000
  S   S1257     1.0  0.73743  0.60780  0.35657  1.0000
  C   C3091     1.0  0.79857  0.61510  0.29746  1.0000
  C   C3092     1.0  0.79064  0.61998  0.30926  1.0000
  C   C3093     1.0  0.77796  0.61608  0.31604  1.0000
  C   C3094     1.0  0.77330  0.60711  0.31115  1.0000
  C   C3095     1.0  0.78132  0.60208  0.29944  1.0000
  C   C3096     1.0  0.79389  0.60618  0.29252  1.0000
  H   H4933     1.0  0.79426  0.62684  0.31314  1.0000
  H   H4934     1.0  0.77194  0.61984  0.32517  1.0000
  H   H4935     1.0  0.77779  0.59507  0.29567  1.0000
  H   H4936     1.0  0.80008  0.60220  0.28355  1.0000
  C   C3097     1.0  0.70940  0.33328  0.33479  1.0000
  C   C3098     1.0  0.83208  0.64454  0.29027  1.0000
  C   C3099     1.0  0.69420  0.32906  0.41556  1.0000
  C   C3100     1.0  0.74375  0.55507  0.33835  1.0000
  H   H4937     1.0  0.72083  0.56618  0.35479  1.0000
  H   H4938     1.0  0.75860  0.56358  0.35116  1.0000
  H   H4939     1.0  0.69185  0.62598  0.42023  1.0000
  C   C3101     1.0  0.68598  0.37945  0.45187  1.0000
  H   H4940     1.0  0.78054  0.61905  0.26896  1.0000
  H   H4941     1.0  0.72768  0.57910  0.35790  1.0000
  H   H4942     1.0  0.69981  0.57971  0.33271  1.0000
  C   C3102     1.0  0.73507  0.57940  0.33098  1.0000
  C   C3103     1.0  0.68948  0.57069  0.35290  1.0000
  C   C3104     1.0  0.68527  0.57149  0.36678  1.0000
  C   C3105     1.0  0.68863  0.58162  0.37128  1.0000
  C   C3106     1.0  0.69594  0.59113  0.36189  1.0000
  C   C3107     1.0  0.70000  0.59048  0.34798  1.0000
  C   C3108     1.0  0.69682  0.58019  0.34350  1.0000
  H   H4943     1.0  0.70536  0.59799  0.34065  1.0000
  H   H4944     1.0  0.71633  0.59641  0.40693  1.0000
  H   H4945     1.0  0.69975  0.36765  0.33843  1.0000
  C   C3109     1.0  0.70758  0.60124  0.40156  1.0000
  H   H4946     1.0  0.74270  0.57994  0.32093  1.0000
  H   H4947     1.0  0.73242  0.58979  0.33347  1.0000
  H   H4948     1.0  0.73410  0.55266  0.33735  1.0000
  H   H4949     1.0  0.71618  0.62412  0.38664  1.0000
  C   C3110     1.0  0.73060  0.56879  0.35516  1.0000
  H   H4950     1.0  0.82477  0.64589  0.28348  1.0000
  Fe  Fe632     1.0  0.84322  0.63039  0.24261  1.0000
  H   H4951     1.0  0.68393  0.39089  0.44974  1.0000
  Fe  Fe633     1.0  0.83354  0.60516  0.24244  1.0000
  H   H4952     1.0  0.67605  0.33395  0.26758  1.0000
  H   H4953     1.0  0.86590  0.64616  0.28563  1.0000
  N   N309      1.0  0.77130  0.64058  0.26781  1.0000
  H   H4954     1.0  0.72799  0.33030  0.25635  1.0000
  H   H4955     1.0  0.67184  0.60647  0.35070  1.0000
  H   H4956     1.0  0.69257  0.34044  0.41402  1.0000
  H   H4957     1.0  0.75852  0.34655  0.24508  1.0000
  C   C3111     1.0  0.68782  0.65614  0.33719  1.0000
  H   H4958     1.0  0.66973  0.57654  0.41021  1.0000
  N   N310      1.0  0.70136  0.61546  0.40356  1.0000
  C   C3112     1.0  0.69622  0.61533  0.41841  1.0000
  C   C3113     1.0  0.71197  0.62396  0.39779  1.0000
  H   H4959     1.0  0.76170  0.57176  0.33320  1.0000
  H   H4960     1.0  0.68641  0.34247  0.39183  1.0000
  H   H4961     1.0  0.70758  0.63483  0.39891  1.0000
  H   H4962     1.0  0.72097  0.61998  0.40293  1.0000
  H   H4963     1.0  0.68430  0.63176  0.39830  1.0000
  H   H4964     1.0  0.75140  0.55466  0.32837  1.0000
  N   N311      1.0  0.74081  0.56868  0.34191  1.0000
  H   H4965     1.0  0.75381  0.64975  0.25817  1.0000
  Fe  Fe634     1.0  0.81409  0.63297  0.23880  1.0000
  S   S1258     1.0  0.81146  0.61279  0.25310  1.0000
  H   H4966     1.0  0.68549  0.58208  0.38208  1.0000
  H   H4967     1.0  0.75197  0.58170  0.34580  1.0000
  H   H4968     1.0  0.67045  0.35451  0.47432  1.0000
  H   H4969     1.0  0.68786  0.60936  0.42298  1.0000
  C   C3114     1.0  0.78428  0.64405  0.26822  1.0000
  H   H4970     1.0  0.72548  0.57742  0.32946  1.0000
  S   S1259     1.0  0.68571  0.55785  0.34722  1.0000
  H   H4971     1.0  0.68174  0.61479  0.40007  1.0000
  H   H4972     1.0  0.74809  0.54671  0.34637  1.0000
  H   H4973     1.0  0.71175  0.60101  0.39045  1.0000
  C   C3115     1.0  0.77475  0.62789  0.26238  1.0000
  C   C3116     1.0  0.85178  0.63652  0.27309  1.0000
  H   H4974     1.0  0.79055  0.63548  0.27460  1.0000
  H   H4975     1.0  0.83262  0.63395  0.29673  1.0000
  H   H4976     1.0  0.67948  0.34974  0.34168  1.0000
  H   H4977     1.0  0.66949  0.60908  0.37481  1.0000
  C   C3117     1.0  0.74965  0.34219  0.25210  1.0000
  H   H4978     1.0  0.67305  0.38965  0.47465  1.0000
  H   H4979     1.0  0.75957  0.64781  0.28624  1.0000
  H   H4980     1.0  0.69277  0.38193  0.32629  1.0000
  C   C3118     1.0  0.69174  0.37140  0.33205  1.0000
  H   H4981     1.0  0.69443  0.36488  0.32426  1.0000
  H   H4982     1.0  0.66824  0.65193  0.34976  1.0000
  H   H4983     1.0  0.68172  0.37784  0.35700  1.0000
  N   N312      1.0  0.67756  0.37128  0.34060  1.0000
  H   H4984     1.0  0.78211  0.65335  0.27262  1.0000
  C   C3119     1.0  0.76368  0.65200  0.25873  1.0000
  H   H4985     1.0  0.68870  0.35427  0.46829  1.0000
  H   H4986     1.0  0.67341  0.39181  0.28830  1.0000
  C   C3120     1.0  0.67300  0.39807  0.29537  1.0000
  H   H4987     1.0  0.67827  0.35543  0.45634  1.0000
  C   C3121     1.0  0.67169  0.37487  0.41128  1.0000
  H   H4988     1.0  0.67126  0.41973  0.32155  1.0000
  H   H4989     1.0  0.77004  0.65384  0.24802  1.0000
  S   S1260     1.0  0.67230  0.36337  0.42721  1.0000
  S   S1261     1.0  0.67257  0.40485  0.36970  1.0000
  C   C3122     1.0  0.67420  0.38078  0.35012  1.0000
  C   C3123     1.0  0.67172  0.39342  0.38578  1.0000
  N   N313      1.0  0.67526  0.37409  0.46337  1.0000
  H   H4990     1.0  0.67452  0.39155  0.34442  1.0000
  H   H4991     1.0  0.73137  0.65461  0.39243  1.0000
  C   C3124     1.0  0.67171  0.41392  0.31410  1.0000
  C   C3125     1.0  0.67832  0.35891  0.46568  1.0000
  H   H4992     1.0  0.67123  0.47208  0.31005  1.0000
  H   H4993     1.0  0.68544  0.37399  0.47915  1.0000
  S   S1262     1.0  0.68149  0.65576  0.40729  1.0000
  H   H4994     1.0  0.66767  0.32682  0.42629  1.0000
  H   H4995     1.0  0.66988  0.36917  0.32394  1.0000
  H   H4996     1.0  0.69213  0.32487  0.42687  1.0000
  H   H4997     1.0  0.67744  0.63799  0.48621  1.0000
  H   H4998     1.0  0.66730  0.38650  0.32576  1.0000
  S   S1263     1.0  0.86242  0.63925  0.23714  1.0000
  C   C3126     1.0  0.66738  0.37577  0.33163  1.0000
  C   C3127     1.0  0.85842  0.65682  0.23748  1.0000
  H   H4999     1.0  0.66713  0.37449  0.48482  1.0000
  H   H5000     1.0  0.72193  0.55189  0.65695  1.0000
  S   S1264     1.0  0.66907  0.36125  0.56344  1.0000
  Fe  Fe635     1.0  0.71778  0.39312  0.72133  1.0000
  S   S1265     1.0  0.74066  0.38855  0.71191  1.0000
  S   S1266     1.0  0.70164  0.41129  0.71399  1.0000
  Fe  Fe636     1.0  0.73726  0.36796  0.71203  1.0000
  S   S1267     1.0  0.74645  0.35869  0.69331  1.0000
  H   H5001     1.0  0.72205  0.34024  0.73420  1.0000
  S   S1268     1.0  0.71423  0.37324  0.71980  1.0000
  C   C3128     1.0  0.70015  0.37755  0.62415  1.0000
  N   N314      1.0  0.67532  0.36938  0.71005  1.0000
  S   S1269     1.0  0.70903  0.34528  0.61235  1.0000
  H   H5002     1.0  0.73293  0.63273  0.71447  1.0000
  S   S1270     1.0  0.70117  0.34030  0.67539  1.0000
  H   H5003     1.0  0.71167  0.63618  0.54631  1.0000
  S   S1271     1.0  0.72810  0.33435  0.64173  1.0000
  H   H5004     1.0  0.67258  0.38431  0.63440  1.0000
  C   C3129     1.0  0.73340  0.35449  0.68822  1.0000
  C   C3130     1.0  0.72242  0.34972  0.69809  1.0000
  C   C3131     1.0  0.71262  0.34522  0.69410  1.0000
  C   C3132     1.0  0.71360  0.34578  0.68022  1.0000
  C   C3133     1.0  0.72454  0.35064  0.67033  1.0000
  C   C3134     1.0  0.73445  0.35497  0.67432  1.0000
  H   H5005     1.0  0.72188  0.34888  0.70885  1.0000
  H   H5006     1.0  0.70455  0.34088  0.70180  1.0000
  H   H5007     1.0  0.72535  0.35121  0.65959  1.0000
  H   H5008     1.0  0.74295  0.35866  0.66665  1.0000
  H   H5009     1.0  0.75874  0.33424  0.67458  1.0000
  C   C3135     1.0  0.72599  0.35690  0.56094  1.0000
  H   H5010     1.0  0.67917  0.64112  0.73129  1.0000
  S   S1272     1.0  0.66849  0.64300  0.51369  1.0000
  H   H5011     1.0  0.67248  0.47614  0.66457  1.0000
  H   H5012     1.0  0.70226  0.38810  0.62056  1.0000
  H   H5013     1.0  0.68508  0.38319  0.71464  1.0000
  C   C3136     1.0  0.68752  0.40644  0.67740  1.0000
  C   C3137     1.0  0.70071  0.39935  0.67985  1.0000
  C   C3138     1.0  0.70502  0.40052  0.69125  1.0000
  C   C3139     1.0  0.69617  0.40884  0.70023  1.0000
  C   C3140     1.0  0.68286  0.41556  0.69803  1.0000
  H   H5014     1.0  0.70772  0.39309  0.67282  1.0000
  H   H5015     1.0  0.71535  0.39528  0.69286  1.0000
  C   C3141     1.0  0.70170  0.37669  0.64733  1.0000
  C   C3142     1.0  0.68015  0.56203  0.68683  1.0000
  C   C3143     1.0  0.68448  0.35314  0.60394  1.0000
  C   C3144     1.0  0.69411  0.34214  0.60956  1.0000
  H   H5016     1.0  0.74508  0.32719  0.69869  1.0000
  C   C3145     1.0  0.69034  0.36103  0.64306  1.0000
  H   H5017     1.0  0.68567  0.36358  0.60230  1.0000
  C   C3146     1.0  0.68206  0.35711  0.71902  1.0000
  C   C3147     1.0  0.71970  0.63711  0.51895  1.0000
  C   C3148     1.0  0.66976  0.45402  0.68463  1.0000
  C   C3149     1.0  0.70771  0.62934  0.54224  1.0000
  Fe  Fe637     1.0  0.71181  0.32744  0.65966  1.0000
  H   H5018     1.0  0.75970  0.61462  0.72196  1.0000
  S   S1273     1.0  0.68258  0.40528  0.66270  1.0000
  H   H5019     1.0  0.70028  0.35324  0.64191  1.0000
  H   H5020     1.0  0.71030  0.37006  0.62241  1.0000
  H   H5021     1.0  0.73846  0.64873  0.70812  1.0000
  H   H5022     1.0  0.70488  0.56081  0.66378  1.0000
  Fe  Fe638     1.0  0.71824  0.60237  0.72321  1.0000
  H   H5023     1.0  0.72815  0.35070  0.55297  1.0000
  H   H5024     1.0  0.68596  0.64790  0.53406  1.0000
  H   H5025     1.0  0.77615  0.63224  0.69804  1.0000
  H   H5026     1.0  0.70553  0.36424  0.54647  1.0000
  H   H5027     1.0  0.76792  0.63625  0.71467  1.0000
  H   H5028     1.0  0.70353  0.38733  0.64470  1.0000
  H   H5029     1.0  0.71877  0.64165  0.50808  1.0000
  N   N315      1.0  0.69292  0.37512  0.63879  1.0000
  N   N316      1.0  0.68147  0.45512  0.67256  1.0000
  S   S1274     1.0  0.68733  0.65165  0.56427  1.0000
  H   H5030     1.0  0.70923  0.37926  0.54934  1.0000
  H   H5031     1.0  0.67637  0.35618  0.72996  1.0000
  H   H5032     1.0  0.69716  0.37353  0.58039  1.0000
  H   H5033     1.0  0.71775  0.32500  0.72161  1.0000
  H   H5034     1.0  0.69123  0.57879  0.64783  1.0000
  C   C3150     1.0  0.70450  0.34944  0.57208  1.0000
  H   H5035     1.0  0.73117  0.36577  0.55632  1.0000
  Fe  Fe639     1.0  0.74333  0.37926  0.73366  1.0000
  H   H5036     1.0  0.71823  0.55508  0.62799  1.0000
  H   H5037     1.0  0.68439  0.47408  0.67523  1.0000
  C   C3151     1.0  0.66960  0.59533  0.70784  1.0000
  C   C3152     1.0  0.69218  0.32869  0.61215  1.0000
  H   H5038     1.0  0.67049  0.59844  0.69651  1.0000
  C   C3153     1.0  0.70446  0.37018  0.55440  1.0000
  H   H5039     1.0  0.69672  0.37456  0.65849  1.0000
  H   H5040     1.0  0.70692  0.54916  0.65291  1.0000
  H   H5041     1.0  0.73104  0.35036  0.56949  1.0000
  C   C3154     1.0  0.68357  0.37048  0.69577  1.0000
  C   C3155     1.0  0.66808  0.40247  0.59840  1.0000
  H   H5042     1.0  0.70887  0.34283  0.58103  1.0000
  H   H5043     1.0  0.68449  0.36120  0.69174  1.0000
  H   H5044     1.0  0.66938  0.39130  0.70853  1.0000
  H   H5045     1.0  0.71202  0.36949  0.64592  1.0000
  H   H5046     1.0  0.75013  0.64330  0.68562  1.0000
  S   S1275     1.0  0.73451  0.59189  0.73610  1.0000
  H   H5047     1.0  0.69309  0.35259  0.57586  1.0000
  N   N317      1.0  0.71086  0.36157  0.56597  1.0000
  H   H5048     1.0  0.67877  0.37962  0.68871  1.0000
  H   H5049     1.0  0.68487  0.35881  0.65406  1.0000
  H   H5050     1.0  0.67389  0.38374  0.65162  1.0000
  H   H5051     1.0  0.68399  0.35934  0.63667  1.0000
  C   C3156     1.0  0.67345  0.35065  0.60002  1.0000
  H   H5052     1.0  0.67840  0.39643  0.59915  1.0000
  H   H5053     1.0  0.67428  0.60581  0.60386  1.0000
  H   H5054     1.0  0.69032  0.65586  0.68419  1.0000
  C   C3157     1.0  0.70848  0.36975  0.57650  1.0000
  H   H5055     1.0  0.69655  0.45049  0.68514  1.0000
  C   C3158     1.0  0.70994  0.32814  0.73028  1.0000
  H   H5056     1.0  0.66858  0.38132  0.72582  1.0000
  H   H5057     1.0  0.67884  0.43858  0.66509  1.0000
  H   H5058     1.0  0.68739  0.45087  0.65217  1.0000
  H   H5059     1.0  0.70750  0.61574  0.52333  1.0000
  C   C3159     1.0  0.67855  0.41437  0.68666  1.0000
  H   H5060     1.0  0.68982  0.55062  0.70380  1.0000
  C   C3160     1.0  0.67952  0.38519  0.64064  1.0000
  H   H5061     1.0  0.69910  0.58332  0.62997  1.0000
  S   S1276     1.0  0.74167  0.35816  0.73294  1.0000
  H   H5062     1.0  0.70611  0.34295  0.56449  1.0000
  C   C3161     1.0  0.67185  0.33718  0.60191  1.0000
  H   H5063     1.0  0.69313  0.37425  0.55802  1.0000
  C   C3162     1.0  0.76621  0.63722  0.70420  1.0000
  H   H5064     1.0  0.66850  0.44322  0.68863  1.0000
  H   H5065     1.0  0.71501  0.61912  0.54308  1.0000
  S   S1277     1.0  0.70082  0.59382  0.72112  1.0000
  H   H5066     1.0  0.72308  0.57142  0.62097  1.0000
  H   H5067     1.0  0.71128  0.58338  0.65406  1.0000
  C   C3163     1.0  0.75793  0.61607  0.71144  1.0000
  S   S1278     1.0  0.67590  0.54630  0.65033  1.0000
  Fe  Fe640     1.0  0.71150  0.62849  0.70242  1.0000
  S   S1279     1.0  0.69370  0.62270  0.69840  1.0000
  S   S1280     1.0  0.67058  0.54962  0.68858  1.0000
  Fe  Fe641     1.0  0.70750  0.60174  0.69839  1.0000
  S   S1281     1.0  0.70744  0.59258  0.68078  1.0000
  S   S1282     1.0  0.72606  0.60827  0.70035  1.0000
  H   H5068     1.0  0.69012  0.62459  0.52960  1.0000
  H   H5069     1.0  0.72732  0.62708  0.51908  1.0000
  S   S1283     1.0  0.67035  0.58198  0.62510  1.0000
  H   H5070     1.0  0.72863  0.57473  0.64771  1.0000
  H   H5071     1.0  0.69385  0.37631  0.61745  1.0000
  C   C3164     1.0  0.72899  0.64288  0.65406  1.0000
  C   C3165     1.0  0.72489  0.64062  0.66847  1.0000
  H   H5072     1.0  0.68246  0.34745  0.71587  1.0000
  H   H5073     1.0  0.73130  0.63441  0.64888  1.0000
  H   H5074     1.0  0.72405  0.63040  0.67436  1.0000
  N   N318      1.0  0.75466  0.63082  0.70488  1.0000
  S   S1284     1.0  0.70478  0.62312  0.72529  1.0000
  H   H5075     1.0  0.71914  0.58783  0.63619  1.0000
  N   N319      1.0  0.71267  0.56848  0.64230  1.0000
  C   C3166     1.0  0.69466  0.44708  0.67656  1.0000
  H   H5076     1.0  0.69433  0.37152  0.69510  1.0000
  H   H5077     1.0  0.71296  0.36355  0.58551  1.0000
  H   H5078     1.0  0.74403  0.62768  0.69099  1.0000
  C   C3167     1.0  0.72213  0.56309  0.63037  1.0000
  H   H5079     1.0  0.69759  0.62791  0.54931  1.0000
  C   C3168     1.0  0.67908  0.44971  0.66168  1.0000
  H   H5080     1.0  0.69295  0.35746  0.71869  1.0000
  S   S1285     1.0  0.67140  0.39163  0.57577  1.0000
  C   C3169     1.0  0.68899  0.55987  0.69584  1.0000
  C   C3170     1.0  0.69710  0.56944  0.69433  1.0000
  C   C3171     1.0  0.69628  0.58126  0.68388  1.0000
  C   C3172     1.0  0.68714  0.58360  0.67512  1.0000
  C   C3173     1.0  0.67907  0.57402  0.67660  1.0000
  C   C3174     1.0  0.74172  0.63775  0.71313  1.0000
  H   H5081     1.0  0.70423  0.56750  0.70105  1.0000
  H   H5082     1.0  0.68642  0.59279  0.66707  1.0000
  H   H5083     1.0  0.71316  0.37897  0.57227  1.0000
  H   H5084     1.0  0.76744  0.61038  0.70537  1.0000
  Fe  Fe642     1.0  0.68813  0.61536  0.72118  1.0000
  H   H5085     1.0  0.68111  0.39595  0.63753  1.0000
  H   H5086     1.0  0.69461  0.43593  0.68007  1.0000
  C   C3175     1.0  0.71157  0.55707  0.65448  1.0000
  H   H5087     1.0  0.73277  0.55838  0.63233  1.0000
  H   H5088     1.0  0.69431  0.56700  0.63684  1.0000
  C   C3176     1.0  0.66937  0.64647  0.72851  1.0000
  S   S1286     1.0  0.66694  0.51448  0.64206  1.0000
  C   C3177     1.0  0.71819  0.57905  0.64515  1.0000
  C   C3178     1.0  0.75275  0.63228  0.69082  1.0000
  H   H5089     1.0  0.67130  0.45774  0.69319  1.0000
  C   C3179     1.0  0.69876  0.57467  0.63912  1.0000
  Fe  Fe643     1.0  0.71619  0.32882  0.62950  1.0000
  H   H5090     1.0  0.74926  0.61097  0.71252  1.0000
  H   H5091     1.0  0.74300  0.63750  0.72356  1.0000
  C   C3180     1.0  0.68236  0.46973  0.66735  1.0000
  H   H5092     1.0  0.69889  0.63039  0.51239  1.0000
  H   H5093     1.0  0.69079  0.47110  0.65798  1.0000
  C   C3181     1.0  0.69631  0.64890  0.52741  1.0000
  H   H5094     1.0  0.70373  0.44806  0.66777  1.0000
  H   H5095     1.0  0.67591  0.42179  0.70511  1.0000
  C   C3182     1.0  0.68100  0.32621  0.60835  1.0000
  C   C3183     1.0  0.67452  0.38184  0.71499  1.0000
  H   H5096     1.0  0.76226  0.62714  0.68427  1.0000
  H   H5097     1.0  0.72416  0.64407  0.52232  1.0000
  S   S1287     1.0  0.71700  0.64904  0.69307  1.0000
  C   C3184     1.0  0.70047  0.62608  0.52310  1.0000
  H   H5098     1.0  0.67212  0.57583  0.66974  1.0000
  H   H5099     1.0  0.76401  0.64838  0.69940  1.0000
  N   N320      1.0  0.70605  0.63535  0.52793  1.0000
  H   H5100     1.0  0.67825  0.58639  0.70991  1.0000
  H   H5101     1.0  0.67139  0.60395  0.71121  1.0000
  H   H5102     1.0  0.66894  0.45515  0.65885  1.0000
  H   H5103     1.0  0.66927  0.32749  0.66659  1.0000
  H   H5104     1.0  0.66836  0.41974  0.68501  1.0000
  C   C3185     1.0  0.72196  0.65157  0.67513  1.0000
  H   H5105     1.0  0.81024  0.40257  0.73549  1.0000
  H   H5106     1.0  0.74895  0.32612  0.66818  1.0000
  H   H5107     1.0  0.81220  0.41974  0.73402  1.0000
  C   C3186     1.0  0.69728  0.32392  0.73405  1.0000
  H   H5108     1.0  0.69460  0.65370  0.51682  1.0000
  C   C3187     1.0  0.72975  0.65615  0.64632  1.0000
  H   H5109     1.0  0.70647  0.65535  0.57823  1.0000
  C   C3188     1.0  0.75825  0.32429  0.67263  1.0000
  Fe  Fe644     1.0  0.66731  0.65096  0.55926  1.0000
  S   S1288     1.0  0.66728  0.63181  0.55278  1.0000
  H   H5110     1.0  0.70003  0.65614  0.53117  1.0000
  H   H5111     1.0  0.66685  0.49137  0.63161  1.0000
  Fe  Fe645     1.0  0.78500  0.39332  0.80054  1.0000
  S   S1289     1.0  0.80025  0.40612  0.79889  1.0000
  S   S1290     1.0  0.76685  0.40249  0.78982  1.0000
  Fe  Fe646     1.0  0.80015  0.36882  0.81848  1.0000
  S   S1291     1.0  0.81702  0.37921  0.81806  1.0000
  S   S1292     1.0  0.80095  0.34643  0.82780  1.0000
  Fe  Fe647     1.0  0.79946  0.39741  0.82137  1.0000
  S   S1293     1.0  0.79785  0.41069  0.83631  1.0000
  Fe  Fe648     1.0  0.81657  0.38707  0.79572  1.0000
  S   S1294     1.0  0.83486  0.38961  0.77813  1.0000
  S   S1295     1.0  0.78247  0.38635  0.82350  1.0000
  S   S1296     1.0  0.80149  0.37489  0.79574  1.0000
  S   S1297     1.0  0.88554  0.33870  0.77220  1.0000
  H   H5112     1.0  0.99543  0.35025  0.86681  1.0000
  S   S1298     1.0  0.70501  0.35263  0.75663  1.0000
  Fe  Fe649     1.0  0.85146  0.44031  0.85440  1.0000
  S   S1299     1.0  0.85779  0.42711  0.87364  1.0000
  S   S1300     1.0  0.85181  0.42866  0.83855  1.0000
  Fe  Fe650     1.0  0.84978  0.46705  0.86329  1.0000
  S   S1301     1.0  0.85551  0.45574  0.88350  1.0000
  Fe  Fe651     1.0  0.87149  0.44155  0.87106  1.0000
  S   S1302     1.0  0.89326  0.43357  0.87453  1.0000
  Fe  Fe652     1.0  0.84124  0.44226  0.88428  1.0000
  S   S1303     1.0  0.82804  0.43188  0.90323  1.0000
  S   S1304     1.0  0.86684  0.45355  0.85078  1.0000
  S   S1305     1.0  0.83378  0.45474  0.86515  1.0000
  Fe  Fe653     1.0  0.84082  0.35337  0.95314  1.0000
  S   S1306     1.0  0.85577  0.33374  0.95955  1.0000
  S   S1307     1.0  0.82016  0.35475  0.94840  1.0000
  Fe  Fe654     1.0  0.86169  0.37094  0.94893  1.0000
  S   S1308     1.0  0.87839  0.35278  0.95471  1.0000
  S   S1309     1.0  0.86737  0.39162  0.94170  1.0000
  Fe  Fe655     1.0  0.87142  0.34259  0.94187  1.0000
  C   C3189     1.0  0.99772  0.64477  0.80915  1.0000
  Fe  Fe656     1.0  0.86127  0.34581  0.97197  1.0000
  C   C3190     1.0  0.80534  0.41943  0.76118  1.0000
  S   S1310     1.0  0.85613  0.36141  0.93470  1.0000
  S   S1311     1.0  0.84490  0.36483  0.96697  1.0000
  Fe  Fe657     1.0  0.94122  0.37266  0.84667  1.0000
  S   S1312     1.0  0.95420  0.37265  0.86105  1.0000
  S   S1313     1.0  0.92513  0.38973  0.83775  1.0000
  Fe  Fe658     1.0  0.95342  0.34249  0.84543  1.0000
  S   S1314     1.0  0.96702  0.33969  0.86028  1.0000
  H   H5113     1.0  0.98346  0.34101  0.83114  1.0000
  Fe  Fe659     1.0  0.94817  0.35242  0.87192  1.0000
  S   S1315     1.0  0.94130  0.34953  0.89498  1.0000
  Fe  Fe660     1.0  0.97190  0.36001  0.84823  1.0000
  S   S1316     1.0  0.93413  0.35323  0.85820  1.0000
  S   S1317     1.0  0.95930  0.36209  0.83272  1.0000
  C   C3191     1.0  0.80272  0.39647  0.76296  1.0000
  H   H5114     1.0  0.90018  0.45769  0.85320  1.0000
  H   H5115     1.0  0.89633  0.37895  0.81668  1.0000
  C   C3192     1.0  0.68982  0.33625  0.75275  1.0000
  H   H5116     1.0  0.74231  0.62445  0.79150  1.0000
  H   H5117     1.0  0.89050  0.64326  0.81708  1.0000
  H   H5118     1.0  0.93114  0.64780  0.92013  1.0000
  H   H5119     1.0  0.79529  0.39689  0.77301  1.0000
  C   C3193     1.0  0.92542  0.34442  0.90302  1.0000
  C   C3194     1.0  0.91923  0.34612  0.91652  1.0000
  C   C3195     1.0  0.90648  0.34233  0.92320  1.0000
  C   C3196     1.0  0.73206  0.63181  0.79167  1.0000
  H   H5120     1.0  0.93209  0.64362  0.78105  1.0000
  H   H5121     1.0  0.92432  0.35038  0.92183  1.0000
  H   H5122     1.0  0.90188  0.34355  0.93365  1.0000
  S   S1318     1.0  0.99381  0.36341  0.83835  1.0000
  C   C3197     1.0  0.73773  0.35029  0.79439  1.0000
  H   H5123     1.0  0.72496  0.37526  0.78202  1.0000
  H   H5124     1.0  0.88265  0.64205  0.88789  1.0000
  H   H5125     1.0  0.93471  0.35102  0.82248  1.0000
  C   C3198     1.0  0.90236  0.42165  0.86409  1.0000
  C   C3199     1.0  0.89644  0.41987  0.85413  1.0000
  C   C3200     1.0  0.90361  0.41018  0.84595  1.0000
  C   C3201     1.0  0.91662  0.40205  0.84788  1.0000
  C   C3202     1.0  0.92252  0.40376  0.85791  1.0000
  C   C3203     1.0  0.91544  0.41365  0.86593  1.0000
  H   H5126     1.0  0.88635  0.42598  0.85262  1.0000
  H   H5127     1.0  0.89900  0.40892  0.83819  1.0000
  H   H5128     1.0  0.93260  0.39762  0.85936  1.0000
  H   H5129     1.0  0.92008  0.41502  0.87361  1.0000
  C   C3204     1.0  0.83879  0.42086  0.91420  1.0000
  C   C3205     1.0  0.85189  0.42321  0.91337  1.0000
  C   C3206     1.0  0.86043  0.41445  0.92215  1.0000
  C   C3207     1.0  0.85615  0.40300  0.93143  1.0000
  C   C3208     1.0  0.84317  0.40046  0.93210  1.0000
  C   C3209     1.0  0.83440  0.40952  0.92366  1.0000
  H   H5130     1.0  0.85534  0.43195  0.90617  1.0000
  H   H5131     1.0  0.87042  0.41650  0.92164  1.0000
  H   H5132     1.0  0.83977  0.39164  0.93929  1.0000
  H   H5133     1.0  0.82426  0.40767  0.92445  1.0000
  H   H5134     1.0  0.82244  0.65118  0.84484  1.0000
  H   H5135     1.0  0.91174  0.37968  0.80322  1.0000
  N   N321      1.0  0.89348  0.47769  0.85841  1.0000
  C   C3210     1.0  0.94038  0.64628  0.79704  1.0000
  C   C3211     1.0  0.88193  0.47354  0.86958  1.0000
  H   H5136     1.0  0.77997  0.41681  0.76114  1.0000
  C   C3212     1.0  0.89998  0.33654  0.91652  1.0000
  C   C3213     1.0  0.81052  0.33827  0.93781  1.0000
  C   C3214     1.0  0.81725  0.33891  0.94775  1.0000
  H   H5137     1.0  0.99841  0.34413  0.81804  1.0000
  H   H5138     1.0  0.85849  0.34455  0.82325  1.0000
  H   H5139     1.0  0.80687  0.34758  0.93079  1.0000
  C   C3215     1.0  0.81603  0.53076  0.87500  1.0000
  C   C3216     1.0  0.76874  0.65020  0.82248  1.0000
  H   H5140     1.0  0.89536  0.38861  0.98597  1.0000
  H   H5141     1.0  0.87434  0.62518  0.85169  1.0000
  H   H5142     1.0  0.74005  0.33884  0.79671  1.0000
  H   H5143     1.0  0.74192  0.32584  0.87765  1.0000
  C   C3217     1.0  0.81283  0.41623  0.83610  1.0000
  C   C3218     1.0  0.81154  0.42636  0.84343  1.0000
  C   C3219     1.0  0.82340  0.43030  0.84426  1.0000
  C   C3220     1.0  0.83662  0.42424  0.83759  1.0000
  C   C3221     1.0  0.83787  0.41437  0.82997  1.0000
  C   C3222     1.0  0.82603  0.41034  0.82926  1.0000
  H   H5144     1.0  0.80132  0.43121  0.84843  1.0000
  H   H5145     1.0  0.82231  0.43816  0.84986  1.0000
  H   H5146     1.0  0.84805  0.40977  0.82464  1.0000
  H   H5147     1.0  0.82712  0.40265  0.82346  1.0000
  C   C3223     1.0  0.84866  0.37516  0.77704  1.0000
  C   C3224     1.0  0.86030  0.37629  0.76626  1.0000
  C   C3225     1.0  0.87150  0.36502  0.76492  1.0000
  C   C3226     1.0  0.87118  0.35253  0.77438  1.0000
  C   C3227     1.0  0.85952  0.35130  0.78522  1.0000
  C   C3228     1.0  0.84823  0.36265  0.78655  1.0000
  H   H5148     1.0  0.85911  0.34161  0.79243  1.0000
  H   H5149     1.0  0.83917  0.36170  0.79482  1.0000
  C   C3229     1.0  0.79472  0.34244  0.84562  1.0000
  C   C3230     1.0  0.78663  0.35262  0.85285  1.0000
  C   C3231     1.0  0.78191  0.34914  0.86717  1.0000
  H   H5150     1.0  0.82099  0.35439  0.84062  1.0000
  H   H5151     1.0  0.97857  0.63050  0.82533  1.0000
  H   H5152     1.0  0.85270  0.35255  0.83790  1.0000
  H   H5153     1.0  0.78385  0.36313  0.84743  1.0000
  H   H5154     1.0  0.77544  0.35697  0.87272  1.0000
  C   C3232     1.0  0.76496  0.39511  0.77700  1.0000
  C   C3233     1.0  0.75449  0.40175  0.76955  1.0000
  C   C3234     1.0  0.75338  0.39657  0.75865  1.0000
  C   C3235     1.0  0.76291  0.38483  0.75505  1.0000
  C   C3236     1.0  0.77328  0.37817  0.76256  1.0000
  C   C3237     1.0  0.77411  0.38311  0.77368  1.0000
  H   H5155     1.0  0.74733  0.41104  0.77210  1.0000
  H   H5156     1.0  0.87867  0.48011  0.87738  1.0000
  H   H5157     1.0  0.78199  0.37772  0.77950  1.0000
  H   H5158     1.0  0.73696  0.37566  0.76569  1.0000
  H   H5159     1.0  0.88677  0.61179  0.84414  1.0000
  H   H5160     1.0  0.76112  0.35448  0.77546  1.0000
  H   H5161     1.0  0.93402  0.36312  0.80646  1.0000
  H   H5162     1.0  0.71817  0.35495  0.77956  1.0000
  N   N322      1.0  0.88874  0.38761  0.89644  1.0000
  C   C3238     1.0  0.89134  0.39969  0.89969  1.0000
  C   C3239     1.0  0.87463  0.38560  0.90386  1.0000
  C   C3240     1.0  0.89917  0.37522  0.90077  1.0000
  C   C3241     1.0  0.88982  0.38993  0.88146  1.0000
  H   H5163     1.0  0.90192  0.40150  0.89430  1.0000
  H   H5164     1.0  0.89046  0.39833  0.91095  1.0000
  H   H5165     1.0  0.88373  0.40926  0.89644  1.0000
  H   H5166     1.0  0.86650  0.39491  0.90116  1.0000
  H   H5167     1.0  0.87221  0.37668  0.90154  1.0000
  H   H5168     1.0  0.87362  0.38351  0.91520  1.0000
  H   H5169     1.0  0.89866  0.37316  0.91203  1.0000
  H   H5170     1.0  0.90999  0.37628  0.89536  1.0000
  H   H5171     1.0  0.89748  0.36589  0.89853  1.0000
  H   H5172     1.0  0.88760  0.38117  0.87865  1.0000
  H   H5173     1.0  0.90048  0.39106  0.87561  1.0000
  H   H5174     1.0  0.88244  0.39948  0.87773  1.0000
  N   N323      1.0  0.81351  0.40716  0.88584  1.0000
  C   C3242     1.0  0.80587  0.41309  0.89805  1.0000
  C   C3243     1.0  0.82522  0.41401  0.87848  1.0000
  C   C3244     1.0  0.80398  0.40929  0.87659  1.0000
  C   C3245     1.0  0.81897  0.39226  0.89029  1.0000
  H   H5175     1.0  0.79672  0.40847  0.90367  1.0000
  H   H5176     1.0  0.80210  0.42444  0.89514  1.0000
  H   H5177     1.0  0.81267  0.41132  0.90542  1.0000
  H   H5178     1.0  0.82152  0.42533  0.87530  1.0000
  H   H5179     1.0  0.83271  0.41243  0.88512  1.0000
  H   H5180     1.0  0.83107  0.41008  0.86900  1.0000
  H   H5181     1.0  0.79964  0.42043  0.87309  1.0000
  H   H5182     1.0  0.79504  0.40421  0.88174  1.0000
  H   H5183     1.0  0.80940  0.40500  0.86720  1.0000
  H   H5184     1.0  0.82616  0.39031  0.89734  1.0000
  H   H5185     1.0  0.82480  0.38748  0.88131  1.0000
  H   H5186     1.0  0.81040  0.38678  0.89590  1.0000
  H   H5187     1.0  0.80553  0.42987  0.75462  1.0000
  H   H5188     1.0  0.72700  0.35387  0.80022  1.0000
  C   C3246     1.0  0.89075  0.38219  0.96419  1.0000
  H   H5189     1.0  0.82681  0.32730  0.96471  1.0000
  H   H5190     1.0  0.86068  0.38593  0.75891  1.0000
  H   H5191     1.0  0.82103  0.33826  0.85252  1.0000
  H   H5192     1.0  0.87995  0.49350  0.84693  1.0000
  H   H5193     1.0  0.88488  0.46267  0.87503  1.0000
  C   C3247     1.0  0.85084  0.49790  0.87731  1.0000
  H   H5194     1.0  0.78702  0.42630  0.74458  1.0000
  H   H5195     1.0  0.84354  0.35845  0.82408  1.0000
  H   H5196     1.0  0.91034  0.38504  0.81883  1.0000
  H   H5197     1.0  0.89932  0.35400  0.81707  1.0000
  N   N324      1.0  0.73903  0.35592  0.77947  1.0000
  H   H5198     1.0  0.90360  0.60979  0.94011  1.0000
  C   C3248     1.0  0.90787  0.37731  0.81458  1.0000
  C   C3249     1.0  0.90890  0.36052  0.83581  1.0000
  H   H5199     1.0  0.72993  0.35544  0.76318  1.0000
  N   N325      1.0  0.91426  0.36312  0.82075  1.0000
  C   C3250     1.0  0.72918  0.35133  0.77440  1.0000
  C   C3251     1.0  0.92955  0.36149  0.81772  1.0000
  H   H5200     1.0  0.91133  0.36788  0.84054  1.0000
  H   H5201     1.0  0.79743  0.42071  0.77086  1.0000
  N   N326      1.0  0.84004  0.33920  0.83732  1.0000
  C   C3252     1.0  0.83562  0.33497  0.82685  1.0000
  H   H5202     1.0  0.84464  0.32972  0.81990  1.0000
  H   H5203     1.0  0.74506  0.35359  0.79850  1.0000
  H   H5204     1.0  0.72401  0.61957  0.74139  1.0000
  Fe  Fe661     1.0  0.71884  0.36546  0.74077  1.0000
  H   H5205     1.0  0.85935  0.63743  0.89859  1.0000
  N   N327      1.0  0.88214  0.38070  0.97834  1.0000
  H   H5206     1.0  0.99791  0.33093  0.84828  1.0000
  C   C3253     1.0  0.78568  0.33559  0.87429  1.0000
  H   H5207     1.0  0.88348  0.64677  0.90314  1.0000
  C   C3254     1.0  0.91887  0.33875  0.89626  1.0000
  H   H5208     1.0  0.79952  0.65342  0.83960  1.0000
  C   C3255     1.0  0.98853  0.62847  0.82875  1.0000
  C   C3256     1.0  0.92971  0.64751  0.79037  1.0000
  H   H5209     1.0  0.92180  0.60351  0.93990  1.0000
  H   H5210     1.0  0.88046  0.36603  0.75655  1.0000
  C   C3257     1.0  0.73582  0.37111  0.77690  1.0000
  H   H5211     1.0  0.91550  0.34240  0.81934  1.0000
  H   H5212     1.0  0.74539  0.40182  0.75285  1.0000
  H   H5213     1.0  0.99846  0.64881  0.91216  1.0000
  C   C3258     1.0  0.75340  0.35097  0.77212  1.0000
  H   H5214     1.0  0.89741  0.36158  0.83849  1.0000
  H   H5215     1.0  0.74295  0.37497  0.78073  1.0000
  C   C3259     1.0  0.88901  0.49218  0.85157  1.0000
  H   H5216     1.0  0.95095  0.64148  0.79281  1.0000
  H   H5217     1.0  0.78068  0.36909  0.75982  1.0000
  S   S1319     1.0  0.98297  0.63087  0.86768  1.0000
  C   C3260     1.0  0.90563  0.47621  0.86426  1.0000
  H   H5218     1.0  0.88716  0.62634  0.82082  1.0000
  N   N328      1.0  0.99463  0.64081  0.82433  1.0000
  S   S1320     1.0  0.95572  0.32733  0.83225  1.0000
  H   H5219     1.0  0.88571  0.49916  0.85901  1.0000
  N   N329      1.0  0.80208  0.41034  0.75410  1.0000
  C   C3261     1.0  0.70228  0.34093  0.74855  1.0000
  H   H5220     1.0  0.83056  0.34981  0.85405  1.0000
  H   H5221     1.0  0.75820  0.58566  0.74861  1.0000
  H   H5222     1.0  0.85145  0.32975  0.85339  1.0000
  C   C3262     1.0  0.91077  0.35317  0.81491  1.0000
  H   H5223     1.0  0.91466  0.35480  0.80355  1.0000
  H   H5224     1.0  0.91361  0.34996  0.84082  1.0000
  H   H5225     1.0  0.93255  0.36899  0.82177  1.0000
  H   H5226     1.0  0.75347  0.64433  0.78507  1.0000
  H   H5227     1.0  0.75469  0.35491  0.76080  1.0000
  C   C3263     1.0  0.89725  0.46877  0.84828  1.0000
  S   S1321     1.0  0.72062  0.38582  0.74322  1.0000
  H   H5228     1.0  0.73557  0.65098  0.81227  1.0000
  S   S1322     1.0  0.92458  0.64360  0.85480  1.0000
  C   C3264     1.0  0.82359  0.55222  0.86938  1.0000
  H   H5229     1.0  0.90618  0.47133  0.83986  1.0000
  H   H5230     1.0  0.85293  0.32906  0.91733  1.0000
  H   H5231     1.0  0.75625  0.33954  0.77391  1.0000
  H   H5232     1.0  0.74127  0.65366  0.77459  1.0000
  H   H5233     1.0  0.89747  0.36369  0.98622  1.0000
  N   N330      1.0  0.73219  0.64467  0.79536  1.0000
  H   H5234     1.0  0.89751  0.49579  0.84320  1.0000
  H   H5235     1.0  0.88838  0.46989  0.84345  1.0000
  H   H5236     1.0  0.87266  0.47446  0.86547  1.0000
  H   H5237     1.0  0.81328  0.39180  0.76511  1.0000
  H   H5238     1.0  0.83006  0.34395  0.82023  1.0000
  H   H5239     1.0  0.84549  0.65057  0.90512  1.0000
  H   H5240     1.0  0.98808  0.64712  0.80510  1.0000
  H   H5241     1.0  0.84864  0.48809  0.88325  1.0000
  H   H5242     1.0  0.74556  0.63446  0.80963  1.0000
  C   C3265     1.0  0.85139  0.50132  0.86316  1.0000
  H   H5243     1.0  0.83475  0.54688  0.86832  1.0000
  H   H5244     1.0  0.80996  0.52459  0.87255  1.0000
  S   S1323     1.0  0.84844  0.49002  0.85454  1.0000
  Fe  Fe662     1.0  0.85778  0.55464  0.87685  1.0000
  S   S1324     1.0  0.83886  0.57078  0.88288  1.0000
  Fe  Fe663     1.0  0.87495  0.57580  0.86127  1.0000
  S   S1325     1.0  0.85746  0.59355  0.86554  1.0000
  S   S1326     1.0  0.89533  0.58102  0.84862  1.0000
  Fe  Fe664     1.0  0.85329  0.58139  0.88703  1.0000
  S   S1327     1.0  0.84438  0.59540  0.90223  1.0000
  Fe  Fe665     1.0  0.84412  0.58204  0.86110  1.0000
  S   S1328     1.0  0.82616  0.59602  0.85230  1.0000
  S   S1329     1.0  0.87192  0.56419  0.88325  1.0000
  S   S1330     1.0  0.86202  0.56521  0.85450  1.0000
  Fe  Fe666     1.0  0.87206  0.62042  0.95045  1.0000
  S   S1331     1.0  0.87527  0.63963  0.93498  1.0000
  S   S1332     1.0  0.87887  0.60104  0.94214  1.0000
  H   H5245     1.0  0.90132  0.33010  0.89787  1.0000
  Fe  Fe667     1.0  0.85551  0.64982  0.94746  1.0000
  Fe  Fe668     1.0  0.88563  0.64327  0.94976  1.0000
  H   H5246     1.0  0.82124  0.64681  0.82280  1.0000
  S   S1333     1.0  0.88397  0.62322  0.96448  1.0000
  Fe  Fe669     1.0  0.93574  0.62439  0.86683  1.0000
  C   C3266     1.0  0.80877  0.32556  0.93672  1.0000
  S   S1334     1.0  0.92403  0.60783  0.87908  1.0000
  Fe  Fe670     1.0  0.96100  0.63701  0.86377  1.0000
  H   H5247     1.0  0.72997  0.63380  0.78118  1.0000
  C   C3267     1.0  0.93079  0.61281  0.91275  1.0000
  H   H5248     1.0  0.88780  0.39274  0.95799  1.0000
  C   C3268     1.0  0.85273  0.50738  0.88389  1.0000
  H   H5249     1.0  0.71594  0.65677  0.78492  1.0000
  S   S1335     1.0  0.94156  0.63505  0.88006  1.0000
  S   S1336     1.0  0.95617  0.62428  0.85169  1.0000
  H   H5250     1.0  0.79430  0.54660  0.86419  1.0000
  Fe  Fe671     1.0  0.79417  0.60777  0.79277  1.0000
  S   S1337     1.0  0.77140  0.61787  0.79548  1.0000
  S   S1338     1.0  0.80457  0.58727  0.80407  1.0000
  Fe  Fe672     1.0  0.80339  0.63105  0.77082  1.0000
  S   S1339     1.0  0.78177  0.64351  0.77119  1.0000
  S   S1340     1.0  0.82346  0.63729  0.75901  1.0000
  Fe  Fe673     1.0  0.77839  0.63710  0.79409  1.0000
  C   C3269     1.0  0.74305  0.65124  0.78524  1.0000
  Fe  Fe674     1.0  0.77563  0.62379  0.77234  1.0000
  S   S1341     1.0  0.75774  0.62874  0.76145  1.0000
  S   S1342     1.0  0.80067  0.62654  0.79369  1.0000
  S   S1343     1.0  0.79790  0.61182  0.76964  1.0000
  S   S1344     1.0  0.79868  0.64675  0.91375  1.0000
  S   S1345     1.0  0.77881  0.64183  0.86474  1.0000
  H   H5251     1.0  0.90810  0.62062  0.90211  1.0000
  H   H5252     1.0  0.90309  0.48276  0.87200  1.0000
  C   C3270     1.0  0.73887  0.62315  0.75063  1.0000
  C   C3271     1.0  0.77531  0.63708  0.82839  1.0000
  C   C3272     1.0  0.77787  0.63456  0.84161  1.0000
  C   C3273     1.0  0.77413  0.64519  0.84884  1.0000
  H   H5253     1.0  0.77829  0.62884  0.82284  1.0000
  H   H5254     1.0  0.78282  0.62435  0.84622  1.0000
  H   H5255     1.0  0.82692  0.52468  0.87419  1.0000
  S   S1346     1.0  0.77942  0.33131  0.89212  1.0000
  C   C3274     1.0  0.99196  0.33632  0.82339  1.0000
  H   H5256     1.0  0.90639  0.63142  0.91385  1.0000
  C   C3275     1.0  0.85415  0.51416  0.85562  1.0000
  H   H5257     1.0  0.85471  0.51681  0.84464  1.0000
  H   H5258     1.0  0.81970  0.55341  0.88026  1.0000
  C   C3276     1.0  0.75126  0.61773  0.75542  1.0000
  C   C3277     1.0  0.75816  0.60413  0.75482  1.0000
  C   C3278     1.0  0.86730  0.38363  0.97777  1.0000
  H   H5259     1.0  0.89555  0.61904  0.91815  1.0000
  Fe  Fe675     1.0  0.93136  0.65432  0.86731  1.0000
  H   H5260     1.0  0.76770  0.59982  0.75852  1.0000
  S   S1347     1.0  0.88409  0.33154  0.92483  1.0000
  H   H5261     1.0  0.85826  0.53347  0.85630  1.0000
  H   H5262     1.0  0.82316  0.56272  0.86275  1.0000
  C   C3279     1.0  0.85615  0.52361  0.86219  1.0000
  H   H5263     1.0  0.87442  0.63978  0.82819  1.0000
  H   H5264     1.0  0.92374  0.58835  0.92403  1.0000
  C   C3280     1.0  0.91587  0.59653  0.91917  1.0000
  H   H5265     1.0  0.80000  0.56252  0.86005  1.0000
  C   C3281     1.0  0.82765  0.34574  0.84652  1.0000
  C   C3282     1.0  0.93739  0.65082  0.80937  1.0000
  H   H5266     1.0  0.91763  0.59551  0.90831  1.0000
  H   H5267     1.0  0.90914  0.61607  0.82957  1.0000
  H   H5268     1.0  0.81191  0.53164  0.88596  1.0000
  C   C3283     1.0  0.88578  0.63541  0.82536  1.0000
  C   C3284     1.0  0.79833  0.32887  0.85273  1.0000
  C   C3285     1.0  0.81237  0.40945  0.74100  1.0000
  S   S1348     1.0  0.95104  0.64874  0.81760  1.0000
  C   C3286     1.0  0.98460  0.65226  0.83006  1.0000
  S   S1349     1.0  0.85128  0.63021  0.96199  1.0000
  C   C3287     1.0  0.81897  0.64266  0.92796  1.0000
  C   C3288     1.0  0.82821  0.64682  0.93313  1.0000
  H   H5269     1.0  0.81835  0.63193  0.93051  1.0000
  H   H5270     1.0  0.83469  0.63930  0.93956  1.0000
  C   C3289     1.0  0.90371  0.58774  0.85737  1.0000
  C   C3290     1.0  0.91608  0.59221  0.85048  1.0000
  C   C3291     1.0  0.92237  0.59850  0.85700  1.0000
  C   C3292     1.0  0.91641  0.60013  0.87052  1.0000
  C   C3293     1.0  0.90421  0.59540  0.87751  1.0000
  C   C3294     1.0  0.89779  0.58938  0.87090  1.0000
  H   H5271     1.0  0.92076  0.59085  0.84005  1.0000
  H   H5272     1.0  0.93192  0.60190  0.85164  1.0000
  H   H5273     1.0  0.89962  0.59651  0.88803  1.0000
  H   H5274     1.0  0.88823  0.58603  0.87630  1.0000
  C   C3295     1.0  0.85474  0.59746  0.91234  1.0000
  C   C3296     1.0  0.84980  0.60816  0.91962  1.0000
  C   C3297     1.0  0.85738  0.60959  0.92848  1.0000
  C   C3298     1.0  0.86980  0.60016  0.93025  1.0000
  C   C3299     1.0  0.87493  0.58969  0.92270  1.0000
  C   C3300     1.0  0.86747  0.58841  0.91365  1.0000
  H   H5275     1.0  0.83993  0.61517  0.91866  1.0000
  H   H5276     1.0  0.85334  0.61764  0.93432  1.0000
  H   H5277     1.0  0.88455  0.58238  0.92404  1.0000
  H   H5278     1.0  0.87133  0.58014  0.90807  1.0000
  C   C3301     1.0  0.82014  0.59274  0.83935  1.0000
  C   C3302     1.0  0.82566  0.58069  0.83417  1.0000
  C   C3303     1.0  0.82038  0.57868  0.82374  1.0000
  C   C3304     1.0  0.80987  0.58885  0.81831  1.0000
  C   C3305     1.0  0.80428  0.60071  0.82371  1.0000
  C   C3306     1.0  0.80943  0.60266  0.83415  1.0000
  H   H5279     1.0  0.83406  0.57307  0.83806  1.0000
  H   H5280     1.0  0.82476  0.56950  0.81953  1.0000
  H   H5281     1.0  0.79594  0.60840  0.81987  1.0000
  H   H5282     1.0  0.80518  0.61198  0.83812  1.0000
  H   H5283     1.0  0.98623  0.62512  0.84018  1.0000
  H   H5284     1.0  0.85200  0.50477  0.89491  1.0000
  C   C3307     1.0  0.82123  0.54271  0.85131  1.0000
  C   C3308     1.0  0.78791  0.41590  0.75139  1.0000
  H   H5285     1.0  0.93165  0.62338  0.91264  1.0000
  Fe  Fe676     1.0  0.86359  0.63493  0.97473  1.0000
  C   C3309     1.0  0.90621  0.62086  0.91320  1.0000
  H   H5286     1.0  0.93899  0.60536  0.91776  1.0000
  N   N331      1.0  0.84466  0.60251  0.78356  1.0000
  C   C3310     1.0  0.84140  0.59735  0.79860  1.0000
  C   C3311     1.0  0.84540  0.61714  0.78064  1.0000
  C   C3312     1.0  0.83362  0.60116  0.77754  1.0000
  C   C3313     1.0  0.85818  0.59442  0.77745  1.0000
  H   H5287     1.0  0.84056  0.58639  0.80115  1.0000
  H   H5288     1.0  0.83128  0.60333  0.80349  1.0000
  H   H5289     1.0  0.84951  0.59809  0.80355  1.0000
  H   H5290     1.0  0.83523  0.62359  0.78481  1.0000
  H   H5291     1.0  0.85343  0.61865  0.78521  1.0000
  H   H5292     1.0  0.84800  0.62133  0.76936  1.0000
  H   H5293     1.0  0.83546  0.60536  0.76624  1.0000
  H   H5294     1.0  0.82328  0.60691  0.78213  1.0000
  H   H5295     1.0  0.83276  0.59025  0.77946  1.0000
  H   H5296     1.0  0.86087  0.59808  0.76608  1.0000
  H   H5297     1.0  0.85795  0.58332  0.77951  1.0000
  H   H5298     1.0  0.86676  0.59525  0.78172  1.0000
  H   H5299     1.0  0.91489  0.62167  0.93533  1.0000
  C   C3314     1.0  0.91417  0.61137  0.93444  1.0000
  H   H5300     1.0  0.81554  0.53656  0.84829  1.0000
  N   N332      1.0  0.81542  0.54445  0.86566  1.0000
  H   H5301     1.0  0.73582  0.32539  0.89584  1.0000
  H   H5302     1.0  0.93325  0.61167  0.90186  1.0000
  H   H5303     1.0  0.72728  0.63652  0.81719  1.0000
  C   C3315     1.0  0.80079  0.55212  0.86696  1.0000
  S   S1350     1.0  0.90661  0.64853  0.94177  1.0000
  C   C3316     1.0  0.81042  0.65231  0.91968  1.0000
  C   C3317     1.0  0.84911  0.34913  0.83036  1.0000
  H   H5304     1.0  0.82061  0.55280  0.84396  1.0000
  H   H5305     1.0  0.72403  0.62651  0.79907  1.0000
  H   H5306     1.0  0.90916  0.46535  0.86949  1.0000
  H   H5307     1.0  0.92370  0.33717  0.88594  1.0000
  C   C3318     1.0  0.75276  0.59614  0.74920  1.0000
  H   H5308     1.0  0.81566  0.41511  0.76408  1.0000
  C   C3319     1.0  0.85521  0.52033  0.87642  1.0000
  H   H5309     1.0  0.89052  0.61785  0.85720  1.0000
  H   H5310     1.0  0.73123  0.33992  0.77606  1.0000
  C   C3320     1.0  0.82182  0.32686  0.95687  1.0000
  H   H5311     1.0  0.78494  0.40906  0.74644  1.0000
  S   S1351     1.0  0.85636  0.53223  0.88544  1.0000
  C   C3321     1.0  0.68726  0.32782  0.74541  1.0000
  N   N333      1.0  0.91676  0.61039  0.91990  1.0000
  N   N334      1.0  0.80978  0.61814  0.88689  1.0000
  C   C3322     1.0  0.81102  0.62297  0.87187  1.0000
  C   C3323     1.0  0.79523  0.62263  0.89408  1.0000
  C   C3324     1.0  0.81907  0.62395  0.89148  1.0000
  C   C3325     1.0  0.81383  0.60297  0.89011  1.0000
  H   H5312     1.0  0.82186  0.61969  0.86615  1.0000
  H   H5313     1.0  0.80791  0.63436  0.86903  1.0000
  H   H5314     1.0  0.80418  0.61868  0.86807  1.0000
  H   H5315     1.0  0.78787  0.61862  0.89073  1.0000
  H   H5316     1.0  0.79395  0.61916  0.90545  1.0000
  H   H5317     1.0  0.79190  0.63403  0.89193  1.0000
  H   H5318     1.0  0.83014  0.62071  0.88633  1.0000
  H   H5319     1.0  0.81842  0.62041  0.90279  1.0000
  H   H5320     1.0  0.81624  0.63538  0.88934  1.0000
  H   H5321     1.0  0.81343  0.59891  0.90131  1.0000
  H   H5322     1.0  0.82468  0.59934  0.88462  1.0000
  H   H5323     1.0  0.80697  0.59821  0.88691  1.0000
  N   N335      1.0  0.89226  0.63160  0.83740  1.0000
  C   C3326     1.0  0.88566  0.62118  0.84808  1.0000
  C   C3327     1.0  0.89032  0.64392  0.84304  1.0000
  H   H5324     1.0  0.80009  0.38934  0.75812  1.0000
  C   C3328     1.0  0.90730  0.62582  0.83315  1.0000
  H   H5325     1.0  0.68202  0.33943  0.76141  1.0000
  C   C3329     1.0  0.73521  0.64151  0.80924  1.0000
  H   H5326     1.0  0.92996  0.32618  0.85262  1.0000
  C   C3330     1.0  0.85692  0.64634  0.90365  1.0000
  H   H5327     1.0  0.89543  0.65188  0.83539  1.0000
  H   H5328     1.0  0.87909  0.64876  0.84602  1.0000
  H   H5329     1.0  0.67755  0.32442  0.74848  1.0000
  C   C3331     1.0  0.73354  0.61521  0.74500  1.0000
  H   H5330     1.0  0.90202  0.38012  0.96416  1.0000
  H   H5331     1.0  0.91253  0.63302  0.82456  1.0000
  Fe  Fe677     1.0  0.94547  0.64463  0.84076  1.0000
  H   H5332     1.0  0.91269  0.62358  0.84178  1.0000
  C   C3332     1.0  0.99345  0.64251  0.86641  1.0000
  H   H5333     1.0  0.83236  0.53729  0.84985  1.0000
  H   H5334     1.0  0.91459  0.47925  0.85613  1.0000
  H   H5335     1.0  0.90544  0.59433  0.92452  1.0000
  H   H5336     1.0  0.79606  0.55362  0.87767  1.0000
  H   H5337     1.0  0.88408  0.35882  0.98150  1.0000
  H   H5338     1.0  0.71003  0.64955  0.80280  1.0000
  H   H5339     1.0  0.84810  0.64649  0.75840  1.0000
  C   C3333     1.0  0.90624  0.33469  0.90305  1.0000
  H   H5340     1.0  0.80379  0.32510  0.92889  1.0000
  C   C3334     1.0  0.92225  0.65332  0.91565  1.0000
  S   S1352     1.0  0.76561  0.65343  0.80591  1.0000
  C   C3335     1.0  0.74051  0.60171  0.74411  1.0000
  H   H5341     1.0  0.73341  0.63363  0.75115  1.0000
  H   H5342     1.0  0.82314  0.40525  0.74284  1.0000
  H   H5343     1.0  0.88126  0.40134  0.97977  1.0000
  H   H5344     1.0  0.88934  0.37493  0.95865  1.0000
  H   H5345     1.0  0.86527  0.37617  0.97290  1.0000
  H   H5346     1.0  0.89489  0.64132  0.85229  1.0000
  C   C3336     1.0  0.84773  0.32696  0.84553  1.0000
  H   H5347     1.0  0.75243  0.32945  0.88712  1.0000
  C   C3337     1.0  0.87997  0.65077  0.89324  1.0000
  C   C3338     1.0  0.79411  0.32551  0.86708  1.0000
  S   S1353     1.0  0.76260  0.37825  0.74108  1.0000
  H   H5348     1.0  0.98189  0.64953  0.84148  1.0000
  H   H5349     1.0  0.86399  0.39407  0.97154  1.0000
  H   H5350     1.0  0.85923  0.64224  0.91410  1.0000
  H   H5351     1.0  0.82846  0.32772  0.83167  1.0000
  C   C3339     1.0  0.91601  0.65367  0.79573  1.0000
  H   H5352     1.0  0.98700  0.33455  0.81582  1.0000
  C   C3340     1.0  0.82590  0.64977  0.76636  1.0000
  C   C3341     1.0  0.88620  0.36650  0.98608  1.0000
  C   C3342     1.0  0.83926  0.65202  0.76475  1.0000
  S   S1354     1.0  0.90284  0.65462  0.78724  1.0000
  H   H5353     1.0  0.99572  0.61963  0.82451  1.0000
  C   C3343     1.0  0.71848  0.65417  0.79527  1.0000
  H   H5354     1.0  0.88346  0.32542  0.73918  1.0000
  H   H5355     1.0  0.89698  0.32587  0.74708  1.0000
  C   C3344     1.0  0.88427  0.39052  0.98533  1.0000
  H   H5356     1.0  0.97472  0.65491  0.82637  1.0000
  S   S1355     1.0  0.86621  0.65540  0.96098  1.0000
  H   H5357     1.0  0.80415  0.65549  0.77564  1.0000
  C   C3345     1.0  0.90895  0.65559  0.92410  1.0000
  C   C3346     1.0  0.98830  0.65675  0.86412  1.0000
  C   C3347     1.0  0.71236  0.33677  0.73739  1.0000
  H   H5358     1.0  0.93436  0.65632  0.89488  1.0000
  H   H5359     1.0  0.86262  0.65453  0.87622  1.0000
  C   C3348     1.0  0.81264  0.89923  0.23300  1.0000
  S   S1356     1.0  0.91392  0.68510  0.15699  1.0000
  Fe  Fe678     1.0  0.86997  0.66108  0.05548  1.0000
  H   H5360     1.0  0.67714  0.80867  0.10592  1.0000
  S   S1357     1.0  0.86446  0.67622  0.06939  1.0000
  C   C3349     1.0  0.86446  0.65732  0.02367  1.0000
  S   S1358     1.0  0.67709  0.81849  0.22943  1.0000
  S   S1359     1.0  0.89980  0.67951  0.07596  1.0000
  H   H5361     1.0  0.68261  0.87033  0.20384  1.0000
  H   H5362     1.0  0.68665  0.93988  0.18678  1.0000
  H   H5363     1.0  0.87749  0.70346  0.18003  1.0000
  Fe  Fe679     1.0  0.82898  0.71756  0.14706  1.0000
  S   S1360     1.0  0.81236  0.70682  0.16101  1.0000
  S   S1361     1.0  0.84483  0.71042  0.12901  1.0000
  H   H5364     1.0  0.86129  0.70059  0.17875  1.0000
  Fe  Fe680     1.0  0.81832  0.71237  0.17789  1.0000
  S   S1362     1.0  0.82405  0.69900  0.19730  1.0000
  S   S1363     1.0  0.83615  0.72140  0.16412  1.0000
  S   S1364     1.0  0.87506  0.71982  0.21129  1.0000
  C   C3350     1.0  0.81778  0.66219  0.21977  1.0000
  C   C3351     1.0  0.81398  0.72398  0.11165  1.0000
  S   S1365     1.0  0.91392  0.70235  0.21137  1.0000
  H   H5365     1.0  0.96898  0.66789  0.19039  1.0000
  H   H5366     1.0  0.89626  0.67440  0.12460  1.0000
  H   H5367     1.0  0.88922  0.67953  0.17775  1.0000
  H   H5368     1.0  0.83391  0.71139  0.21558  1.0000
  H   H5369     1.0  0.97590  0.68298  0.15301  1.0000
  H   H5370     1.0  0.82014  0.90598  0.23101  1.0000
  Fe  Fe681     1.0  0.92600  0.66358  0.15503  1.0000
  H   H5371     1.0  0.71590  0.79003  0.20392  1.0000
  C   C3352     1.0  0.81633  0.68477  0.20488  1.0000
  C   C3353     1.0  0.82350  0.67365  0.21311  1.0000
  H   H5372     1.0  0.67601  0.95485  0.19299  1.0000
  C   C3354     1.0  0.81926  0.72958  0.23184  1.0000
  C   C3355     1.0  0.79721  0.67299  0.21049  1.0000
  C   C3356     1.0  0.80320  0.68443  0.20335  1.0000
  H   H5373     1.0  0.83357  0.67382  0.21434  1.0000
  H   H5374     1.0  0.83308  0.72343  0.19961  1.0000
  H   H5375     1.0  0.85223  0.68727  0.20858  1.0000
  H   H5376     1.0  0.79757  0.69303  0.19698  1.0000
  C   C3357     1.0  0.79637  0.71412  0.12932  1.0000
  H   H5377     1.0  0.80013  0.71626  0.13750  1.0000
  H   H5378     1.0  0.78004  0.73889  0.12283  1.0000
  H   H5379     1.0  0.88986  0.68799  0.19791  1.0000
  H   H5380     1.0  0.94623  0.67873  0.16516  1.0000
  H   H5381     1.0  0.87441  0.66836  0.00429  1.0000
  C   C3358     1.0  0.84142  0.67530  0.11157  1.0000
  C   C3359     1.0  0.85240  0.68215  0.10586  1.0000
  C   C3360     1.0  0.85324  0.69289  0.11132  1.0000
  C   C3361     1.0  0.84328  0.69673  0.12273  1.0000
  C   C3362     1.0  0.83237  0.68978  0.12865  1.0000
  C   C3363     1.0  0.83139  0.67912  0.12302  1.0000
  H   H5382     1.0  0.86026  0.67924  0.09715  1.0000
  H   H5383     1.0  0.86162  0.69830  0.10658  1.0000
  H   H5384     1.0  0.82471  0.69258  0.13753  1.0000
  H   H5385     1.0  0.82292  0.67380  0.12756  1.0000
  N   N336      1.0  0.96216  0.68232  0.17297  1.0000
  S   S1366     1.0  0.80297  0.73252  0.17746  1.0000
  S   S1367     1.0  0.67362  0.83139  0.07631  1.0000
  C   C3364     1.0  0.90780  0.66250  0.09924  1.0000
  C   C3365     1.0  0.91206  0.66962  0.08577  1.0000
  H   H5386     1.0  0.69228  0.94005  0.16174  1.0000
  H   H5387     1.0  0.69762  0.89232  0.15006  1.0000
  C   C3366     1.0  0.67442  0.86615  0.21224  1.0000
  N   N337      1.0  0.67847  0.95631  0.17131  1.0000
  S   S1368     1.0  0.86775  0.66760  0.03319  1.0000
  C   C3367     1.0  0.91373  0.68989  0.17219  1.0000
  C   C3368     1.0  0.91960  0.68035  0.18259  1.0000
  C   C3369     1.0  0.91964  0.68428  0.19456  1.0000
  C   C3370     1.0  0.91349  0.69773  0.19637  1.0000
  C   C3371     1.0  0.90725  0.70725  0.18615  1.0000
  C   C3372     1.0  0.90747  0.70335  0.17401  1.0000
  H   H5388     1.0  0.92418  0.66993  0.18145  1.0000
  H   H5389     1.0  0.92430  0.67685  0.20254  1.0000
  H   H5390     1.0  0.90255  0.71769  0.18747  1.0000
  H   H5391     1.0  0.90287  0.71081  0.16602  1.0000
  H   H5392     1.0  0.69518  0.77556  0.22719  1.0000
  C   C3373     1.0  0.97328  0.67418  0.18034  1.0000
  H   H5393     1.0  0.88301  0.67377  0.20918  1.0000
  H   H5394     1.0  0.92951  0.67507  0.06998  1.0000
  S   S1369     1.0  0.77703  0.73332  0.15507  1.0000
  C   C3374     1.0  0.80454  0.66188  0.21879  1.0000
  H   H5395     1.0  0.79904  0.71085  0.10373  1.0000
  H   H5396     1.0  0.67360  0.84385  0.20358  1.0000
  H   H5397     1.0  0.68964  0.76933  0.20789  1.0000
  H   H5398     1.0  0.68543  0.95498  0.14997  1.0000
  C   C3375     1.0  0.95464  0.67296  0.17078  1.0000
  C   C3376     1.0  0.95231  0.69204  0.18123  1.0000
  H   H5399     1.0  0.81835  0.72598  0.11954  1.0000
  S   S1370     1.0  0.94760  0.65976  0.14196  1.0000
  C   C3377     1.0  0.86901  0.66005  0.00929  1.0000
  S   S1371     1.0  0.89085  0.73726  0.22304  1.0000
  H   H5400     1.0  0.68750  0.89529  0.13736  1.0000
  H   H5401     1.0  0.88867  0.70717  0.09943  1.0000
  Fe  Fe682     1.0  0.89383  0.71562  0.22032  1.0000
  C   C3378     1.0  0.92619  0.66952  0.08035  1.0000
  C   C3379     1.0  0.67212  0.80034  0.17334  1.0000
  H   H5402     1.0  0.87323  0.67658  0.17623  1.0000
  H   H5403     1.0  0.82620  0.74958  0.21004  1.0000
  C   C3380     1.0  0.84267  0.74847  0.17998  1.0000
  S   S1372     1.0  0.81495  0.73848  0.14386  1.0000
  H   H5404     1.0  0.81988  0.71372  0.10950  1.0000
  H   H5405     1.0  0.96172  0.66549  0.16459  1.0000
  H   H5406     1.0  0.96034  0.69632  0.15365  1.0000
  H   H5407     1.0  0.99893  0.66588  0.13477  1.0000
  C   C3381     1.0  0.87940  0.67628  0.18373  1.0000
  H   H5408     1.0  0.86213  0.70662  0.19322  1.0000
  H   H5409     1.0  0.80884  0.71374  0.22191  1.0000
  C   C3382     1.0  0.83399  0.66483  0.99015  1.0000
  C   C3383     1.0  0.93609  0.66204  0.08819  1.0000
  H   H5410     1.0  0.98104  0.66697  0.17423  1.0000
  H   H5411     1.0  0.68070  0.79000  0.22670  1.0000
  H   H5412     1.0  0.97430  0.69716  0.16073  1.0000
  C   C3384     1.0  0.85861  0.68055  0.20126  1.0000
  Fe  Fe683     1.0  0.79867  0.72816  0.15904  1.0000
  H   H5413     1.0  0.84248  0.73907  0.17742  1.0000
  H   H5414     1.0  0.84159  0.72608  0.21158  1.0000
  C   C3385     1.0  0.67678  0.90965  0.19065  1.0000
  H   H5415     1.0  0.71344  0.77284  0.20629  1.0000
  C   C3386     1.0  0.83418  0.76090  0.17483  1.0000
  H   H5416     1.0  0.78229  0.72151  0.10909  1.0000
  N   N338      1.0  0.81922  0.73051  0.21731  1.0000
  C   C3387     1.0  0.66911  0.85414  0.19778  1.0000
  C   C3388     1.0  0.79367  0.72127  0.10580  1.0000
  C   C3389     1.0  0.96844  0.69005  0.15949  1.0000
  H   H5417     1.0  0.79292  0.74638  0.10937  1.0000
  H   H5418     1.0  0.88096  0.69938  0.13770  1.0000
  H   H5419     1.0  0.87440  0.69216  0.12734  1.0000
  C   C3390     1.0  0.88072  0.69959  0.12692  1.0000
  H   H5420     1.0  0.91276  0.67944  0.11830  1.0000
  H   H5421     1.0  0.87498  0.71002  0.12268  1.0000
  H   H5422     1.0  0.89778  0.71697  0.11410  1.0000
  H   H5423     1.0  0.90275  0.68149  0.13512  1.0000
  N   N339      1.0  0.89489  0.69624  0.11845  1.0000
  C   C3391     1.0  0.90197  0.68227  0.12437  1.0000
  H   H5424     1.0  0.90452  0.69430  0.09751  1.0000
  C   C3392     1.0  0.83256  0.72254  0.21071  1.0000
  H   H5425     1.0  0.91363  0.70408  0.11192  1.0000
  C   C3393     1.0  0.90291  0.70627  0.11833  1.0000
  H   H5426     1.0  0.88810  0.68930  0.10393  1.0000
  H   H5427     1.0  0.90396  0.70590  0.12891  1.0000
  C   C3394     1.0  0.89401  0.69680  0.10423  1.0000
  Fe  Fe684     1.0  0.87103  0.74081  0.21577  1.0000
  H   H5428     1.0  0.79542  0.72884  0.09589  1.0000
  H   H5429     1.0  0.79515  0.74103  0.12680  1.0000
  Fe  Fe685     1.0  0.85822  0.65881  0.08637  1.0000
  H   H5430     1.0  0.94704  0.66177  0.08380  1.0000
  N   N340      1.0  0.79887  0.72443  0.11641  1.0000
  H   H5431     1.0  0.81629  0.73181  0.10207  1.0000
  C   C3395     1.0  0.67489  0.80751  0.11729  1.0000
  C   C3396     1.0  0.79144  0.73829  0.11889  1.0000
  H   H5432     1.0  0.80181  0.70351  0.12790  1.0000
  H   H5433     1.0  0.85814  0.73869  0.19228  1.0000
  C   C3397     1.0  0.86796  0.69961  0.18604  1.0000
  H   H5434     1.0  0.88229  0.66537  0.18911  1.0000
  H   H5435     1.0  0.78506  0.71426  0.13335  1.0000
  C   C3398     1.0  0.69024  0.80330  0.20108  1.0000
  C   C3399     1.0  0.69669  0.88846  0.14132  1.0000
  H   H5436     1.0  0.66814  0.93945  0.17614  1.0000
  H   H5437     1.0  0.80736  0.72532  0.20586  1.0000
  C   C3400     1.0  0.68667  0.78051  0.20345  1.0000
  Fe  Fe686     1.0  0.71034  0.82871  0.12897  1.0000
  S   S1373     1.0  0.71858  0.80624  0.12869  1.0000
  S   S1374     1.0  0.70628  0.84670  0.11176  1.0000
  Fe  Fe687     1.0  0.70583  0.82406  0.15995  1.0000
  S   S1375     1.0  0.71355  0.80129  0.16262  1.0000
  S   S1376     1.0  0.69743  0.83400  0.17815  1.0000
  Fe  Fe688     1.0  0.73037  0.80637  0.14420  1.0000
  S   S1377     1.0  0.75308  0.79775  0.14452  1.0000
  Fe  Fe689     1.0  0.70105  0.80327  0.14714  1.0000
  S   S1378     1.0  0.68618  0.78972  0.15027  1.0000
  S   S1379     1.0  0.72357  0.82923  0.14277  1.0000
  S   S1380     1.0  0.69187  0.82566  0.14607  1.0000
  Fe  Fe690     1.0  0.72641  0.88797  0.21081  1.0000
  H   H5438     1.0  0.85198  0.68074  0.19421  1.0000
  S   S1381     1.0  0.72097  0.90669  0.19455  1.0000
  Fe  Fe691     1.0  0.73739  0.85725  0.21304  1.0000
  H   H5439     1.0  0.95752  0.69951  0.18282  1.0000
  S   S1382     1.0  0.74638  0.84069  0.20048  1.0000
  H   H5440     1.0  0.69598  0.80973  0.20366  1.0000
  Fe  Fe692     1.0  0.82037  0.74123  0.16247  1.0000
  H   H5441     1.0  0.69342  0.95510  0.18306  1.0000
  S   S1383     1.0  0.71631  0.87087  0.21208  1.0000
  S   S1384     1.0  0.74794  0.87461  0.21005  1.0000
  C   C3401     1.0  0.80765  0.72481  0.21668  1.0000
  H   H5442     1.0  0.67896  0.80725  0.20499  1.0000
  S   S1385     1.0  0.82246  0.76159  0.16480  1.0000
  Fe  Fe693     1.0  0.71312  0.86815  0.23486  1.0000
  H   H5443     1.0  0.89686  0.66270  0.10352  1.0000
  C   C3402     1.0  0.71122  0.83459  0.18490  1.0000
  C   C3403     1.0  0.70834  0.83948  0.19697  1.0000
  C   C3404     1.0  0.71922  0.84084  0.20197  1.0000
  C   C3405     1.0  0.73299  0.83758  0.19486  1.0000
  C   C3406     1.0  0.73595  0.83216  0.18306  1.0000
  C   C3407     1.0  0.72507  0.83053  0.17816  1.0000
  H   H5444     1.0  0.69775  0.84217  0.20253  1.0000
  H   H5445     1.0  0.71698  0.84434  0.21142  1.0000
  H   H5446     1.0  0.74657  0.82963  0.17747  1.0000
  H   H5447     1.0  0.72745  0.82636  0.16907  1.0000
  C   C3408     1.0  0.69419  0.90334  0.20452  1.0000
  H   H5448     1.0  0.80749  0.66749  0.00433  1.0000
  C   C3409     1.0  0.69404  0.86933  0.13367  1.0000
  H   H5449     1.0  0.69212  0.80524  0.18967  1.0000
  C   C3410     1.0  0.84353  0.77287  0.18638  1.0000
  C   C3411     1.0  0.83469  0.77308  0.17802  1.0000
  H   H5450     1.0  0.84388  0.78235  0.18878  1.0000
  H   H5451     1.0  0.82826  0.78273  0.17400  1.0000
  C   C3412     1.0  0.77012  0.75119  0.15217  1.0000
  C   C3413     1.0  0.77862  0.76031  0.15067  1.0000
  C   C3414     1.0  0.77331  0.77453  0.14791  1.0000
  C   C3415     1.0  0.75933  0.77980  0.14714  1.0000
  C   C3416     1.0  0.75072  0.77073  0.14876  1.0000
  C   C3417     1.0  0.75617  0.75643  0.15114  1.0000
  H   H5452     1.0  0.78932  0.75645  0.15157  1.0000
  H   H5453     1.0  0.78010  0.78146  0.14636  1.0000
  H   H5454     1.0  0.73992  0.77473  0.14812  1.0000
  H   H5455     1.0  0.74953  0.74942  0.15229  1.0000
  C   C3418     1.0  0.69195  0.78655  0.22225  1.0000
  H   H5456     1.0  0.70342  0.86989  0.12516  1.0000
  C   C3419     1.0  0.70131  0.82942  0.09847  1.0000
  C   C3420     1.0  0.69824  0.84280  0.10073  1.0000
  C   C3421     1.0  0.68830  0.85299  0.09455  1.0000
  C   C3422     1.0  0.68107  0.84966  0.08653  1.0000
  H   H5457     1.0  0.67986  0.80651  0.17073  1.0000
  H   H5458     1.0  0.70917  0.82160  0.10300  1.0000
  H   H5459     1.0  0.68595  0.86337  0.09625  1.0000
  H   H5460     1.0  0.79739  0.73047  0.22162  1.0000
  C   C3423     1.0  0.70404  0.90776  0.19295  1.0000
  H   H5461     1.0  0.71734  0.86572  0.14267  1.0000
  H   H5462     1.0  0.70801  0.91615  0.17116  1.0000
  H   H5463     1.0  0.70890  0.86841  0.15978  1.0000
  C   C3424     1.0  0.68400  0.83622  0.08446  1.0000
  H   H5464     1.0  0.94353  0.69807  0.17619  1.0000
  C   C3425     1.0  0.85187  0.76046  0.19172  1.0000
  H   H5465     1.0  0.69884  0.95541  0.15804  1.0000
  H   H5466     1.0  0.94766  0.68656  0.19162  1.0000
  C   C3426     1.0  0.81744  0.74507  0.20999  1.0000
  H   H5467     1.0  0.68337  0.81057  0.11991  1.0000
  Fe  Fe694     1.0  0.88569  0.66714  0.07399  1.0000
  C   C3427     1.0  0.68263  0.87281  0.15661  1.0000
  C   C3428     1.0  0.88008  0.68448  0.20333  1.0000
  C   C3429     1.0  0.68670  0.91374  0.17895  1.0000
  H   H5468     1.0  0.67308  0.87911  0.15295  1.0000
  C   C3430     1.0  0.69436  0.82620  0.09015  1.0000
  H   H5469     1.0  0.78697  0.67277  0.20959  1.0000
  H   H5470     1.0  0.69681  0.81585  0.08836  1.0000
  N   N341      1.0  0.69463  0.78854  0.20711  1.0000
  C   C3431     1.0  0.70762  0.86524  0.15076  1.0000
  H   H5471     1.0  0.69700  0.89936  0.21444  1.0000
  H   H5472     1.0  0.67559  0.79636  0.12197  1.0000
  H   H5473     1.0  0.68852  0.78171  0.19208  1.0000
  H   H5474     1.0  0.81713  0.74615  0.19904  1.0000
  H   H5475     1.0  0.68311  0.87644  0.16567  1.0000
  C   C3432     1.0  0.85150  0.74824  0.18846  1.0000
  C   C3433     1.0  0.70030  0.91295  0.18014  1.0000
  H   H5476     1.0  0.71203  0.78483  0.19034  1.0000
  C   C3434     1.0  0.67292  0.79122  0.16508  1.0000
  N   N342      1.0  0.87152  0.68523  0.19358  1.0000
  H   H5477     1.0  0.67966  0.85627  0.21798  1.0000
  H   H5478     1.0  0.97903  0.68092  0.18240  1.0000
  C   C3435     1.0  0.80903  0.66976  0.99291  1.0000
  H   H5479     1.0  0.67525  0.78389  0.20731  1.0000
  H   H5480     1.0  0.67210  0.82916  0.98781  1.0000
  C   C3436     1.0  0.70967  0.78384  0.20169  1.0000
  C   C3437     1.0  0.69501  0.83148  0.23350  1.0000
  H   H5481     1.0  0.69764  0.79265  0.22536  1.0000
  N   N343      1.0  0.77847  0.80209  0.17080  1.0000
  C   C3438     1.0  0.79135  0.79121  0.16946  1.0000
  C   C3439     1.0  0.76624  0.79568  0.17657  1.0000
  C   C3440     1.0  0.77728  0.81086  0.15711  1.0000
  C   C3441     1.0  0.77898  0.81062  0.18007  1.0000
  H   H5482     1.0  0.79131  0.78446  0.16266  1.0000
  H   H5483     1.0  0.79268  0.78442  0.17959  1.0000
  H   H5484     1.0  0.80081  0.79563  0.16498  1.0000
  H   H5485     1.0  0.75634  0.80361  0.17754  1.0000
  H   H5486     1.0  0.76554  0.78918  0.16983  1.0000
  H   H5487     1.0  0.76670  0.78903  0.18693  1.0000
  H   H5488     1.0  0.76755  0.81901  0.15770  1.0000
  H   H5489     1.0  0.77696  0.80475  0.14982  1.0000
  H   H5490     1.0  0.78624  0.81600  0.15246  1.0000
  H   H5491     1.0  0.76944  0.81894  0.18137  1.0000
  H   H5492     1.0  0.78806  0.81565  0.17603  1.0000
  H   H5493     1.0  0.77982  0.80436  0.19053  1.0000
  H   H5494     1.0  0.70606  0.88969  0.13294  1.0000
  H   H5495     1.0  0.68138  0.86194  0.16017  1.0000
  H   H5496     1.0  0.80761  0.75146  0.21480  1.0000
  H   H5497     1.0  0.70681  0.85426  0.15411  1.0000
  S   S1386     1.0  0.84019  0.66207  0.10436  1.0000
  H   H5498     1.0  0.68388  0.91755  0.16905  1.0000
  N   N344      1.0  0.69525  0.87396  0.14559  1.0000
  H   H5499     1.0  0.69282  0.85846  0.13651  1.0000
  H   H5500     1.0  0.87444  0.69108  0.21092  1.0000
  H   H5501     1.0  0.68489  0.87574  0.12937  1.0000
  S   S1387     1.0  0.86250  0.76073  0.20245  1.0000
  C   C3442     1.0  0.68059  0.90435  0.20338  1.0000
  H   H5502     1.0  0.70300  0.82481  0.22750  1.0000
  C   C3443     1.0  0.68924  0.95148  0.15976  1.0000
  H   H5503     1.0  0.67309  0.85745  0.08216  1.0000
  H   H5504     1.0  0.86085  0.66984  0.20736  1.0000
  H   H5505     1.0  0.83330  0.66224  0.00148  1.0000
  H   H5506     1.0  0.66971  0.83371  0.11868  1.0000
  H   H5507     1.0  0.80351  0.90546  0.22859  1.0000
  Fe  Fe695     1.0  0.74217  0.87171  0.23314  1.0000
  C   C3444     1.0  0.68387  0.95134  0.18409  1.0000
  H   H5508     1.0  0.67702  0.80405  0.98863  1.0000
  S   S1388     1.0  0.72141  0.88659  0.23370  1.0000
  H   H5509     1.0  0.70927  0.84269  0.23508  1.0000
  H   H5510     1.0  0.81776  0.89082  0.22724  1.0000
  H   H5511     1.0  0.67296  0.90117  0.21245  1.0000
  H   H5512     1.0  0.67034  0.87342  0.21940  1.0000
  C   C3445     1.0  0.67481  0.97153  0.16820  1.0000
  H   H5513     1.0  0.80002  0.66755  0.99040  1.0000
  H   H5514     1.0  0.82832  0.73309  0.23273  1.0000
  H   H5515     1.0  0.80868  0.68099  0.98918  1.0000
  H   H5516     1.0  0.94986  0.66684  0.18071  1.0000
  H   H5517     1.0  0.67763  0.85742  0.18922  1.0000
  Fe  Fe696     1.0  0.86403  0.71389  0.23318  1.0000
  H   H5518     1.0  0.67106  0.97560  0.15841  1.0000
  H   H5519     1.0  0.68392  0.97601  0.16707  1.0000
  C   C3446     1.0  0.99787  0.65870  0.14459  1.0000
  S   S1389     1.0  0.73338  0.85310  0.23605  1.0000
  N   N345      1.0  0.82235  0.66152  0.98660  1.0000
  H   H5520     1.0  0.72872  0.67173  0.35216  1.0000
  H   H5521     1.0  0.80962  0.73593  0.23702  1.0000
  H   H5522     1.0  0.99026  0.83880  0.37898  1.0000
  H   H5523     1.0  0.83076  0.68397  0.23874  1.0000
  C   C3447     1.0  0.72000  0.67558  0.34668  1.0000
  Fe  Fe697     1.0  0.73561  0.70894  0.37687  1.0000
  S   S1390     1.0  0.71333  0.70803  0.38009  1.0000
  S   S1391     1.0  0.75226  0.69388  0.36589  1.0000
  C   C3448     1.0  0.69851  0.67270  0.40520  1.0000
  Fe  Fe698     1.0  0.71062  0.71559  0.39931  1.0000
  S   S1392     1.0  0.73339  0.71516  0.39688  1.0000
  C   C3449     1.0  0.67464  0.73921  0.34596  1.0000
  C   C3450     1.0  0.84138  0.67825  0.23849  1.0000
  C   C3451     1.0  0.81483  0.96684  0.32499  1.0000
  C   C3452     1.0  0.74882  0.67746  0.36862  1.0000
  C   C3453     1.0  0.74000  0.67220  0.38069  1.0000
  H   H5524     1.0  0.75176  0.89801  0.24105  1.0000
  C   C3454     1.0  0.67898  0.68899  0.42241  1.0000
  C   C3455     1.0  0.81626  0.98839  0.32908  1.0000
  H   H5525     1.0  0.73524  0.67824  0.38853  1.0000
  H   H5526     1.0  0.87715  0.77184  0.25448  1.0000
  H   H5527     1.0  0.99721  0.85088  0.38333  1.0000
  S   S1393     1.0  0.75723  0.86784  0.24706  1.0000
  C   C3456     1.0  0.67094  0.83868  0.24464  1.0000
  H   H5528     1.0  0.71446  0.66709  0.34878  1.0000
  C   C3457     1.0  0.70181  0.68400  0.40770  1.0000
  H   H5529     1.0  0.71205  0.68617  0.40328  1.0000
  H   H5530     1.0  0.79828  0.90132  0.26634  1.0000
  C   C3458     1.0  0.70484  0.68465  0.36608  1.0000
  C   C3459     1.0  0.82070  0.88551  0.25339  1.0000
  C   C3460     1.0  0.69898  0.69263  0.34371  1.0000
  C   C3461     1.0  0.71830  0.69903  0.34788  1.0000
  H   H5531     1.0  0.87943  0.65765  0.23696  1.0000
  C   C3462     1.0  0.68679  0.67871  0.32227  1.0000
  C   C3463     1.0  0.97051  0.86170  0.38260  1.0000
  H   H5532     1.0  0.70611  0.66642  0.39853  1.0000
  H   H5533     1.0  0.85046  0.81005  0.26187  1.0000
  H   H5534     1.0  0.96657  0.83573  0.38975  1.0000
  H   H5535     1.0  0.84977  0.77968  0.27474  1.0000
  Fe  Fe699     1.0  0.71011  0.73014  0.36978  1.0000
  Fe  Fe700     1.0  0.72826  0.73704  0.38498  1.0000
  C   C3464     1.0  0.67454  0.84893  0.24885  1.0000
  C   C3465     1.0  0.68551  0.66944  0.41139  1.0000
  H   H5536     1.0  0.78838  0.74695  0.39893  1.0000
  C   C3466     1.0  0.99321  0.86773  0.35122  1.0000
  C   C3467     1.0  0.85886  0.78387  0.27433  1.0000
  H   H5537     1.0  0.72461  0.67768  0.33544  1.0000
  H   H5538     1.0  0.84062  0.66863  0.28008  1.0000
  H   H5539     1.0  0.70296  0.69479  0.33235  1.0000
  H   H5540     1.0  0.69922  0.67610  0.36891  1.0000
  H   H5541     1.0  0.80715  0.98964  0.30655  1.0000
  S   S1394     1.0  0.69570  0.70718  0.41822  1.0000
  C   C3468     1.0  0.75514  0.66949  0.35860  1.0000
  C   C3469     1.0  0.69197  0.69234  0.41607  1.0000
  H   H5542     1.0  0.69181  0.70222  0.34649  1.0000
  N   N346      1.0  0.71052  0.68799  0.35109  1.0000
  H   H5543     1.0  0.72285  0.70169  0.33667  1.0000
  H   H5544     1.0  0.69195  0.68618  0.31456  1.0000
  H   H5545     1.0  0.71145  0.70864  0.35093  1.0000
  H   H5546     1.0  0.69275  0.68462  0.34609  1.0000
  S   S1395     1.0  0.70528  0.73787  0.38917  1.0000
  H   H5547     1.0  0.72706  0.69592  0.35334  1.0000
  H   H5548     1.0  0.80310  0.87603  0.24470  1.0000
  S   S1396     1.0  0.73263  0.73057  0.36485  1.0000
  H   H5549     1.0  0.77976  0.74379  0.38744  1.0000
  C   C3470     1.0  0.68821  0.77047  0.36391  1.0000
  C   C3471     1.0  0.68834  0.85062  0.24509  1.0000
  S   S1397     1.0  0.69885  0.73894  0.35249  1.0000
  S   S1398     1.0  0.88300  0.70789  0.24201  1.0000
  C   C3472     1.0  0.68173  0.73654  0.35656  1.0000
  H   H5550     1.0  0.81772  0.88107  0.26456  1.0000
  H   H5551     1.0  0.82248  0.97883  0.29850  1.0000
  C   C3473     1.0  0.81113  0.75261  0.38016  1.0000
  S   S1399     1.0  0.84689  0.70240  0.23870  1.0000
  H   H5552     1.0  0.84454  0.79886  0.25505  1.0000
  S   S1400     1.0  0.71271  0.66227  0.32216  1.0000
  H   H5553     1.0  0.95965  0.86708  0.38648  1.0000
  H   H5554     1.0  0.79512  0.88030  0.26122  1.0000
  S   S1401     1.0  0.87630  0.73533  0.26447  1.0000
  C   C3474     1.0  0.83711  0.90869  0.46498  1.0000
  C   C3475     1.0  0.79017  0.74366  0.38902  1.0000
  C   C3476     1.0  0.85391  0.80234  0.25516  1.0000
  H   H5555     1.0  0.79617  0.73283  0.39029  1.0000
  N   N347      1.0  0.84059  0.90135  0.47842  1.0000
  H   H5556     1.0  0.80537  0.75490  0.35565  1.0000
  C   C3477     1.0  0.89134  0.97285  0.36468  1.0000
  H   H5557     1.0  0.79204  0.91145  0.25142  1.0000
  C   C3478     1.0  0.87667  0.98701  0.34917  1.0000
  H   H5558     1.0  0.74643  0.74064  0.40578  1.0000
  H   H5559     1.0  0.81694  0.96119  0.33525  1.0000
  Fe  Fe701     1.0  0.78429  0.78672  0.40597  1.0000
  S   S1402     1.0  0.80764  0.78029  0.40128  1.0000
  S   S1403     1.0  0.77271  0.76932  0.41524  1.0000
  Fe  Fe702     1.0  0.78522  0.81692  0.39391  1.0000
  S   S1404     1.0  0.80851  0.81281  0.38781  1.0000
  S   S1405     1.0  0.77448  0.83911  0.38896  1.0000
  Fe  Fe703     1.0  0.80644  0.79471  0.38100  1.0000
  S   S1406     1.0  0.81614  0.78884  0.36056  1.0000
  Fe  Fe704     1.0  0.80745  0.79899  0.40874  1.0000
  S   S1407     1.0  0.82099  0.79850  0.42307  1.0000
  S   S1408     1.0  0.78317  0.80007  0.38516  1.0000
  S   S1409     1.0  0.78414  0.80421  0.41538  1.0000
  Fe  Fe705     1.0  0.88572  0.79106  0.31731  1.0000
  S   S1410     1.0  0.87879  0.81388  0.31091  1.0000
  S   S1411     1.0  0.88115  0.78283  0.34014  1.0000
  Fe  Fe706     1.0  0.89971  0.78728  0.28804  1.0000
  S   S1412     1.0  0.89440  0.80999  0.27936  1.0000
  S   S1413     1.0  0.91130  0.77338  0.27308  1.0000
  Fe  Fe707     1.0  0.90034  0.81265  0.29782  1.0000
  S   S1414     1.0  0.91363  0.82722  0.29711  1.0000
  Fe  Fe708     1.0  0.87353  0.80896  0.29331  1.0000
  S   S1415     1.0  0.85331  0.81777  0.28653  1.0000
  S   S1416     1.0  0.90769  0.79000  0.30521  1.0000
  S   S1417     1.0  0.87837  0.78614  0.30089  1.0000
  Fe  Fe709     1.0  0.78217  0.90014  0.29178  1.0000
  S   S1418     1.0  0.79982  0.90915  0.29228  1.0000
  S   S1419     1.0  0.76847  0.90955  0.27615  1.0000
  Fe  Fe710     1.0  0.78909  0.87543  0.31438  1.0000
  S   S1420     1.0  0.80727  0.88198  0.31693  1.0000
  S   S1421     1.0  0.78378  0.85483  0.32427  1.0000
  Fe  Fe711     1.0  0.79339  0.90309  0.31530  1.0000
  S   S1422     1.0  0.79228  0.91619  0.33019  1.0000
  Fe  Fe712     1.0  0.81236  0.88748  0.29392  1.0000
  S   S1423     1.0  0.83451  0.88194  0.28249  1.0000
  S   S1424     1.0  0.77449  0.89599  0.31475  1.0000
  S   S1425     1.0  0.79542  0.87906  0.29145  1.0000
  S   S1426     1.0  0.73429  0.75736  0.38239  1.0000
  H   H5560     1.0  0.76436  0.86842  0.43194  1.0000
  C   C3479     1.0  0.89208  0.90022  0.39906  1.0000
  Fe  Fe713     1.0  0.83982  0.85676  0.44445  1.0000
  S   S1427     1.0  0.85984  0.86198  0.43137  1.0000
  S   S1428     1.0  0.82491  0.85556  0.43231  1.0000
  Fe  Fe714     1.0  0.84804  0.85658  0.47108  1.0000
  S   S1429     1.0  0.86905  0.86098  0.45988  1.0000
  Fe  Fe715     1.0  0.85731  0.87647  0.44494  1.0000
  S   S1430     1.0  0.86270  0.89728  0.43694  1.0000
  Fe  Fe716     1.0  0.86966  0.84603  0.44730  1.0000
  S   S1431     1.0  0.88838  0.83172  0.43771  1.0000
  S   S1432     1.0  0.83624  0.87300  0.45663  1.0000
  S   S1433     1.0  0.84972  0.83985  0.45985  1.0000
  Fe  Fe717     1.0  0.84730  0.94521  0.34646  1.0000
  S   S1434     1.0  0.86261  0.95869  0.34216  1.0000
  S   S1435     1.0  0.84569  0.93747  0.32850  1.0000
  Fe  Fe718     1.0  0.83868  0.94668  0.37663  1.0000
  S   S1436     1.0  0.85280  0.96072  0.37477  1.0000
  S   S1437     1.0  0.82560  0.93742  0.39636  1.0000
  Fe  Fe719     1.0  0.84571  0.97183  0.35512  1.0000
  Fe  Fe720     1.0  0.86830  0.94649  0.36199  1.0000
  S   S1438     1.0  0.89007  0.93873  0.36553  1.0000
  S   S1439     1.0  0.82998  0.95904  0.35819  1.0000
  S   S1440     1.0  0.85469  0.93172  0.36513  1.0000
  Fe  Fe721     1.0  0.93414  0.84541  0.35516  1.0000
  S   S1441     1.0  0.94834  0.85589  0.33724  1.0000
  S   S1442     1.0  0.92212  0.83013  0.35471  1.0000
  Fe  Fe722     1.0  0.93619  0.86241  0.37438  1.0000
  S   S1443     1.0  0.95022  0.87458  0.35796  1.0000
  S   S1444     1.0  0.92941  0.86732  0.39543  1.0000
  Fe  Fe723     1.0  0.93600  0.87524  0.34451  1.0000
  S   S1445     1.0  0.92531  0.89366  0.33104  1.0000
  Fe  Fe724     1.0  0.96132  0.85412  0.35248  1.0000
  S   S1446     1.0  0.98452  0.84494  0.34999  1.0000
  S   S1447     1.0  0.92102  0.86485  0.36144  1.0000
  S   S1448     1.0  0.94802  0.84188  0.36990  1.0000
  H   H5561     1.0  0.82947  0.84923  0.32039  1.0000
  H   H5562     1.0  0.94643  0.76901  0.34465  1.0000
  H   H5563     1.0  0.68045  0.73021  0.37845  1.0000
  C   C3480     1.0  0.99011  0.84351  0.38759  1.0000
  H   H5564     1.0  0.82815  0.82382  0.31054  1.0000
  C   C3481     1.0  0.67504  0.73222  0.37021  1.0000
  C   C3482     1.0  0.75597  0.89407  0.25024  1.0000
  H   H5565     1.0  0.98278  0.87351  0.35056  1.0000
  N   N348      1.0  0.79757  0.75282  0.37746  1.0000
  C   C3483     1.0  0.75935  0.87985  0.25528  1.0000
  H   H5566     1.0  0.81283  0.85001  0.33233  1.0000
  C   C3484     1.0  0.89985  0.92634  0.35580  1.0000
  C   C3485     1.0  0.91226  0.91795  0.35916  1.0000
  C   C3486     1.0  0.92001  0.90779  0.35167  1.0000
  C   C3487     1.0  0.91559  0.90627  0.34055  1.0000
  C   C3488     1.0  0.90326  0.91478  0.33711  1.0000
  C   C3489     1.0  0.89528  0.92466  0.34487  1.0000
  H   H5567     1.0  0.91583  0.91922  0.36761  1.0000
  H   H5568     1.0  0.92955  0.90132  0.35434  1.0000
  H   H5569     1.0  0.89978  0.91371  0.32852  1.0000
  H   H5570     1.0  0.88569  0.93110  0.34223  1.0000
  C   C3490     1.0  0.89989  0.84150  0.42595  1.0000
  C   C3491     1.0  0.90064  0.85401  0.42826  1.0000
  C   C3492     1.0  0.90991  0.86176  0.41895  1.0000
  C   C3493     1.0  0.91808  0.85729  0.40703  1.0000
  C   C3494     1.0  0.91710  0.84495  0.40450  1.0000
  C   C3495     1.0  0.90818  0.83694  0.41408  1.0000
  H   H5571     1.0  0.89433  0.85757  0.43740  1.0000
  H   H5572     1.0  0.91067  0.87126  0.42099  1.0000
  H   H5573     1.0  0.92338  0.84144  0.39531  1.0000
  H   H5574     1.0  0.90767  0.82727  0.41224  1.0000
  C   C3496     1.0  0.85218  0.90850  0.42591  1.0000
  C   C3497     1.0  0.84021  0.90518  0.42473  1.0000
  C   C3498     1.0  0.83194  0.91423  0.41581  1.0000
  C   C3499     1.0  0.83586  0.92637  0.40772  1.0000
  C   C3500     1.0  0.84795  0.92958  0.40876  1.0000
  C   C3501     1.0  0.85597  0.92076  0.41802  1.0000
  H   H5575     1.0  0.83725  0.89570  0.43072  1.0000
  H   H5576     1.0  0.82262  0.91171  0.41499  1.0000
  H   H5577     1.0  0.85097  0.93899  0.40260  1.0000
  H   H5578     1.0  0.86520  0.92339  0.41893  1.0000
  H   H5579     1.0  0.67133  0.69554  0.42873  1.0000
  H   H5580     1.0  0.84107  0.83118  0.33763  1.0000
  H   H5581     1.0  0.73020  0.88969  0.27372  1.0000
  H   H5582     1.0  0.96531  0.86162  0.40947  1.0000
  H   H5583     1.0  0.83688  0.81141  0.32296  1.0000
  H   H5584     1.0  0.83414  0.81606  0.34593  1.0000
  H   H5585     1.0  0.81488  0.84657  0.31570  1.0000
  H   H5586     1.0  0.88063  0.88483  0.31317  1.0000
  C   C3502     1.0  0.80748  0.92140  0.32994  1.0000
  C   C3503     1.0  0.80787  0.92702  0.34079  1.0000
  C   C3504     1.0  0.81971  0.93157  0.34070  1.0000
  C   C3505     1.0  0.83114  0.93079  0.32958  1.0000
  C   C3506     1.0  0.83076  0.92516  0.31874  1.0000
  C   C3507     1.0  0.81903  0.92036  0.31897  1.0000
  H   H5587     1.0  0.79899  0.92780  0.34934  1.0000
  H   H5588     1.0  0.81992  0.93578  0.34918  1.0000
  H   H5589     1.0  0.83955  0.92453  0.31010  1.0000
  H   H5590     1.0  0.81883  0.91605  0.31056  1.0000
  C   C3508     1.0  0.76419  0.89811  0.26869  1.0000
  C   C3509     1.0  0.75846  0.90317  0.25691  1.0000
  C   C3510     1.0  0.76479  0.87486  0.26719  1.0000
  C   C3511     1.0  0.76697  0.88395  0.27400  1.0000
  C   C3512     1.0  0.83130  0.82723  0.34133  1.0000
  H   H5591     1.0  0.76732  0.86389  0.27121  1.0000
  H   H5592     1.0  0.77091  0.87994  0.28331  1.0000
  C   C3513     1.0  0.91554  0.82852  0.31311  1.0000
  C   C3514     1.0  0.90626  0.82429  0.32529  1.0000
  C   C3515     1.0  0.90824  0.82502  0.33800  1.0000
  C   C3516     1.0  0.91937  0.83021  0.33859  1.0000
  C   C3517     1.0  0.92844  0.83477  0.32639  1.0000
  C   C3518     1.0  0.92655  0.83389  0.31369  1.0000
  H   H5593     1.0  0.89761  0.82034  0.32492  1.0000
  H   H5594     1.0  0.90116  0.82149  0.34741  1.0000
  H   H5595     1.0  0.93718  0.83856  0.32674  1.0000
  H   H5596     1.0  0.93378  0.83716  0.30429  1.0000
  C   C3519     1.0  0.84849  0.83563  0.28490  1.0000
  C   C3520     1.0  0.85807  0.84324  0.28457  1.0000
  C   C3521     1.0  0.85381  0.85755  0.28360  1.0000
  C   C3522     1.0  0.83992  0.86412  0.28340  1.0000
  C   C3523     1.0  0.83040  0.85640  0.28387  1.0000
  C   C3524     1.0  0.83471  0.84224  0.28441  1.0000
  H   H5597     1.0  0.86876  0.83816  0.28494  1.0000
  H   H5598     1.0  0.86123  0.86348  0.28321  1.0000
  H   H5599     1.0  0.81974  0.86129  0.28359  1.0000
  H   H5600     1.0  0.82729  0.83637  0.28467  1.0000
  C   C3525     1.0  0.90246  0.76176  0.27107  1.0000
  H   H5601     1.0  0.81688  0.75964  0.37176  1.0000
  C   C3526     1.0  0.89176  0.75729  0.28160  1.0000
  C   C3527     1.0  0.67338  0.65939  0.34208  1.0000
  C   C3528     1.0  0.66940  0.67556  0.46320  1.0000
  C   C3529     1.0  0.82195  0.81439  0.42563  1.0000
  C   C3530     1.0  0.82584  0.81489  0.43752  1.0000
  C   C3531     1.0  0.82715  0.82740  0.43955  1.0000
  C   C3532     1.0  0.82456  0.83948  0.42968  1.0000
  C   C3533     1.0  0.82100  0.83892  0.41766  1.0000
  C   C3534     1.0  0.81961  0.82644  0.41567  1.0000
  H   H5602     1.0  0.82772  0.80557  0.44523  1.0000
  H   H5603     1.0  0.82981  0.82775  0.44889  1.0000
  H   H5604     1.0  0.81930  0.84819  0.40988  1.0000
  H   H5605     1.0  0.81692  0.82610  0.40635  1.0000
  C   C3535     1.0  0.83422  0.78692  0.35538  1.0000
  C   C3536     1.0  0.84053  0.78577  0.34180  1.0000
  C   C3537     1.0  0.85491  0.78464  0.33714  1.0000
  C   C3538     1.0  0.86312  0.78427  0.34613  1.0000
  C   C3539     1.0  0.85684  0.78522  0.35983  1.0000
  C   C3540     1.0  0.84233  0.78673  0.36443  1.0000
  H   H5606     1.0  0.83428  0.78584  0.33481  1.0000
  H   H5607     1.0  0.85966  0.78376  0.32664  1.0000
  H   H5608     1.0  0.86316  0.78495  0.36682  1.0000
  H   H5609     1.0  0.83746  0.78761  0.37496  1.0000
  C   C3541     1.0  0.77597  0.84416  0.37108  1.0000
  C   C3542     1.0  0.77901  0.85697  0.36399  1.0000
  C   C3543     1.0  0.78120  0.86050  0.34956  1.0000
  C   C3544     1.0  0.78009  0.85130  0.34229  1.0000
  C   C3545     1.0  0.77660  0.83872  0.34943  1.0000
  C   C3546     1.0  0.77467  0.83511  0.36377  1.0000
  H   H5610     1.0  0.77999  0.86403  0.36960  1.0000
  H   H5611     1.0  0.78382  0.87029  0.34407  1.0000
  H   H5612     1.0  0.77561  0.83165  0.34383  1.0000
  H   H5613     1.0  0.77194  0.82540  0.36918  1.0000
  C   C3547     1.0  0.76148  0.76629  0.40650  1.0000
  C   C3548     1.0  0.75673  0.77621  0.39565  1.0000
  C   C3549     1.0  0.74837  0.77329  0.38843  1.0000
  C   C3550     1.0  0.74468  0.76044  0.39197  1.0000
  C   C3551     1.0  0.96665  0.84047  0.39824  1.0000
  C   C3552     1.0  0.75760  0.75350  0.41020  1.0000
  H   H5614     1.0  0.75943  0.78616  0.39285  1.0000
  H   H5615     1.0  0.74475  0.78105  0.38006  1.0000
  N   N349      1.0  0.86889  0.81784  0.41420  1.0000
  C   C3553     1.0  0.87994  0.80911  0.42139  1.0000
  C   C3554     1.0  0.86213  0.82999  0.42046  1.0000
  C   C3555     1.0  0.85843  0.80983  0.41547  1.0000
  C   C3556     1.0  0.87506  0.82244  0.39950  1.0000
  H   H5616     1.0  0.87576  0.80606  0.43265  1.0000
  H   H5617     1.0  0.88829  0.81465  0.42019  1.0000
  H   H5618     1.0  0.88491  0.79955  0.41734  1.0000
  H   H5619     1.0  0.85357  0.83676  0.41547  1.0000
  H   H5620     1.0  0.85756  0.82695  0.43163  1.0000
  H   H5621     1.0  0.86973  0.83631  0.41954  1.0000
  H   H5622     1.0  0.85375  0.80600  0.42644  1.0000
  H   H5623     1.0  0.86305  0.80070  0.41065  1.0000
  H   H5624     1.0  0.84977  0.81617  0.41041  1.0000
  H   H5625     1.0  0.86697  0.82905  0.39380  1.0000
  H   H5626     1.0  0.88030  0.81354  0.39444  1.0000
  H   H5627     1.0  0.88300  0.82853  0.39821  1.0000
  S   S1449     1.0  0.69278  0.86430  0.24893  1.0000
  H   H5628     1.0  0.93052  0.77419  0.35658  1.0000
  H   H5629     1.0  0.83738  0.66264  0.26669  1.0000
  H   H5630     1.0  0.87319  0.78537  0.24026  1.0000
  C   C3557     1.0  0.84477  0.66430  0.23801  1.0000
  H   H5631     1.0  0.78724  0.77084  0.38574  1.0000
  C   C3558     1.0  0.69456  0.66586  0.32743  1.0000
  C   C3559     1.0  0.74930  0.75053  0.40290  1.0000
  C   C3560     1.0  0.78908  0.76699  0.37616  1.0000
  N   N350      1.0  0.88622  0.98710  0.35763  1.0000
  H   H5632     1.0  0.70779  0.85872  0.27778  1.0000
  H   H5633     1.0  0.90055  0.74574  0.24674  1.0000
  N   N351      1.0  0.70064  0.77618  0.36172  1.0000
  C   C3561     1.0  0.86891  0.78063  0.25108  1.0000
  Fe  Fe725     1.0  0.87831  0.72995  0.24404  1.0000
  C   C3562     1.0  0.69924  0.78957  0.35191  1.0000
  H   H5634     1.0  0.81877  0.95926  0.31813  1.0000
  N   N352      1.0  0.88498  0.89403  0.39228  1.0000
  C   C3563     1.0  0.87798  0.88369  0.40261  1.0000
  C   C3564     1.0  0.87455  0.90491  0.38579  1.0000
  H   H5635     1.0  0.87004  0.88844  0.41075  1.0000
  H   H5636     1.0  0.87255  0.87876  0.39787  1.0000
  H   H5637     1.0  0.88463  0.90491  0.40753  1.0000
  H   H5638     1.0  0.87948  0.91297  0.37804  1.0000
  H   H5639     1.0  0.86651  0.91014  0.39353  1.0000
  H   H5640     1.0  0.86903  0.90068  0.38047  1.0000
  C   C3565     1.0  0.83682  0.97389  0.31818  1.0000
  C   C3566     1.0  0.93567  0.79590  0.33636  1.0000
  H   H5641     1.0  0.68899  0.76028  0.37115  1.0000
  H   H5642     1.0  0.73855  0.85930  0.27141  1.0000
  H   H5643     1.0  0.80871  0.91212  0.25372  1.0000
  C   C3567     1.0  0.88417  0.74879  0.27954  1.0000
  H   H5644     1.0  0.76202  0.67352  0.34928  1.0000
  H   H5645     1.0  0.84126  0.96655  0.31110  1.0000
  C   C3568     1.0  0.87685  0.79573  0.26013  1.0000
  H   H5646     1.0  0.69746  0.69371  0.36977  1.0000
  N   N353      1.0  0.77872  0.85406  0.42022  1.0000
  C   C3569     1.0  0.78843  0.85443  0.40665  1.0000
  C   C3570     1.0  0.76812  0.84635  0.42112  1.0000
  C   C3571     1.0  0.77182  0.86828  0.42184  1.0000
  H   H5647     1.0  0.78287  0.85952  0.39810  1.0000
  H   H5648     1.0  0.79373  0.84386  0.40498  1.0000
  H   H5649     1.0  0.79658  0.86016  0.40557  1.0000
  H   H5650     1.0  0.76196  0.85132  0.41302  1.0000
  H   H5651     1.0  0.76593  0.87377  0.41361  1.0000
  H   H5652     1.0  0.77957  0.87434  0.42124  1.0000
  H   H5653     1.0  0.88553  0.87541  0.40783  1.0000
  N   N354      1.0  0.82407  0.82956  0.33003  1.0000
  C   C3572     1.0  0.83341  0.82263  0.31905  1.0000
  H   H5654     1.0  0.77304  0.83566  0.41959  1.0000
  H   H5655     1.0  0.88936  0.76031  0.29137  1.0000
  H   H5656     1.0  0.79460  0.85274  0.43091  1.0000
  H   H5657     1.0  0.75618  0.91414  0.25280  1.0000
  C   C3573     1.0  0.91525  0.78761  0.33773  1.0000
  C   C3574     1.0  0.69857  0.84168  0.23769  1.0000
  H   H5658     1.0  0.89704  0.90844  0.39163  1.0000
  H   H5659     1.0  0.76071  0.84563  0.43128  1.0000
  C   C3575     1.0  0.78651  0.84719  0.43124  1.0000
  H   H5660     1.0  0.89038  0.88261  0.37622  1.0000
  H   H5661     1.0  0.79188  0.83642  0.43030  1.0000
  C   C3576     1.0  0.89534  0.88732  0.38164  1.0000
  H   H5662     1.0  0.90039  0.89237  0.40363  1.0000
  H   H5663     1.0  0.77951  0.84669  0.44163  1.0000
  H   H5664     1.0  0.80501  0.82643  0.32745  1.0000
  H   H5665     1.0  0.90090  0.89480  0.37374  1.0000
  H   H5666     1.0  0.69826  0.78843  0.34179  1.0000
  H   H5667     1.0  0.95567  0.84550  0.40223  1.0000
  C   C3577     1.0  0.81138  0.82387  0.33536  1.0000
  H   H5668     1.0  0.80465  0.82806  0.34441  1.0000
  H   H5669     1.0  0.81394  0.81248  0.33873  1.0000
  H   H5670     1.0  0.90335  0.87904  0.38621  1.0000
  H   H5671     1.0  0.82828  0.89193  0.25232  1.0000
  C   C3578     1.0  0.90579  0.75734  0.25859  1.0000
  H   H5672     1.0  0.91415  0.76068  0.25043  1.0000
  H   H5673     1.0  0.70848  0.79411  0.35004  1.0000
  H   H5674     1.0  0.84295  0.82692  0.31453  1.0000
  C   C3579     1.0  0.82019  0.84449  0.32439  1.0000
  H   H5675     1.0  0.82458  0.83245  0.34975  1.0000
  C   C3580     1.0  0.73183  0.86246  0.28101  1.0000
  H   H5676     1.0  0.88171  0.80062  0.24958  1.0000
  H   H5677     1.0  0.76114  0.74581  0.41866  1.0000
  H   H5678     1.0  0.67435  0.67796  0.45206  1.0000
  H   H5679     1.0  0.81840  0.98338  0.33948  1.0000
  H   H5680     1.0  0.68986  0.79708  0.35585  1.0000
  C   C3581     1.0  0.97597  0.85624  0.40498  1.0000
  C   C3582     1.0  0.93660  0.78087  0.32163  1.0000
  H   H5681     1.0  0.93377  0.78992  0.31339  1.0000
  C   C3583     1.0  0.79984  0.74811  0.36454  1.0000
  H   H5682     1.0  0.70109  0.88473  0.28932  1.0000
  H   H5683     1.0  0.97989  0.84805  0.41336  1.0000
  N   N355      1.0  0.97583  0.85047  0.39337  1.0000
  H   H5684     1.0  0.70226  0.87592  0.26856  1.0000
  H   H5685     1.0  0.86674  0.77515  0.27851  1.0000
  H   H5686     1.0  0.81790  0.74211  0.38108  1.0000
  C   C3584     1.0  0.88715  0.74475  0.26692  1.0000
  H   H5687     1.0  0.71804  0.86511  0.26145  1.0000
  H   H5688     1.0  0.83942  0.96834  0.32825  1.0000
  N   N356      1.0  0.80835  0.89367  0.24788  1.0000
  H   H5689     1.0  0.93271  0.77226  0.32039  1.0000
  H   H5690     1.0  0.91162  0.79645  0.32975  1.0000
  H   H5691     1.0  0.85172  0.91607  0.47894  1.0000
  H   H5692     1.0  0.85543  0.79114  0.28146  1.0000
  H   H5693     1.0  0.93315  0.80496  0.32807  1.0000
  H   H5694     1.0  0.68696  0.76877  0.35412  1.0000
  H   H5695     1.0  0.83555  0.90153  0.45941  1.0000
  H   H5696     1.0  0.87581  0.74548  0.28771  1.0000
  H   H5697     1.0  0.89708  0.96614  0.35718  1.0000
  H   H5698     1.0  0.73839  0.86618  0.28568  1.0000
  H   H5699     1.0  0.71624  0.88060  0.29656  1.0000
  H   H5700     1.0  0.98280  0.86384  0.40162  1.0000
  H   H5701     1.0  0.78884  0.89062  0.24631  1.0000
  H   H5702     1.0  0.70315  0.76814  0.38260  1.0000
  H   H5703     1.0  0.80622  0.73744  0.36513  1.0000
  H   H5704     1.0  0.67976  0.74261  0.33540  1.0000
  C   C3585     1.0  0.85168  0.68487  0.23835  1.0000
  C   C3586     1.0  0.89812  0.74888  0.25648  1.0000
  H   H5705     1.0  0.77872  0.76756  0.37421  1.0000
  H   H5706     1.0  0.67851  0.77739  0.36823  1.0000
  H   H5707     1.0  0.71330  0.68131  0.37194  1.0000
  H   H5708     1.0  0.97012  0.83198  0.40662  1.0000
  H   H5709     1.0  0.99465  0.83516  0.39548  1.0000
  H   H5710     1.0  0.84564  0.91368  0.45808  1.0000
  H   H5711     1.0  0.82743  0.91682  0.46615  1.0000
  C   C3587     1.0  0.71153  0.86802  0.27123  1.0000
  H   H5712     1.0  0.70696  0.86749  0.29828  1.0000
  H   H5713     1.0  0.85795  0.80774  0.24453  1.0000
  H   H5714     1.0  0.90395  0.98680  0.34070  1.0000
  C   C3588     1.0  0.93489  0.77202  0.34605  1.0000
  H   H5715     1.0  0.97045  0.85764  0.37366  1.0000
  C   C3589     1.0  0.70201  0.77807  0.37497  1.0000
  C   C3590     1.0  0.86881  0.66341  0.23735  1.0000
  N   N357      1.0  0.82160  0.97875  0.31955  1.0000
  C   C3591     1.0  0.81856  0.98586  0.30590  1.0000
  H   H5716     1.0  0.78977  0.74820  0.36222  1.0000
  H   H5717     1.0  0.86749  0.98285  0.35564  1.0000
  N   N358      1.0  0.71944  0.87319  0.27811  1.0000
  H   H5718     1.0  0.82623  0.87680  0.24816  1.0000
  H   H5719     1.0  0.73049  0.88340  0.25905  1.0000
  H   H5720     1.0  0.71486  0.89402  0.26668  1.0000
  H   H5721     1.0  0.94716  0.79345  0.33524  1.0000
  C   C3592     1.0  0.85337  0.89055  0.47627  1.0000
  H   H5722     1.0  0.83682  0.65944  0.23778  1.0000
  H   H5723     1.0  0.91524  0.86205  0.30383  1.0000
  C   C3593     1.0  0.71053  0.87665  0.29116  1.0000
  N   N359      1.0  0.86463  0.79064  0.26017  1.0000
  H   H5724     1.0  0.72887  0.85303  0.28814  1.0000
  H   H5725     1.0  0.87344  0.68253  0.23779  1.0000
  C   C3594     1.0  0.67578  0.67745  0.42017  1.0000
  C   C3595     1.0  0.72391  0.88564  0.26903  1.0000
  C   C3596     1.0  0.90388  0.86549  0.30784  1.0000
  H   H5726     1.0  0.89971  0.85611  0.31337  1.0000
  H   H5727     1.0  0.90375  0.85914  0.33485  1.0000
  H   H5728     1.0  0.88118  0.87073  0.32778  1.0000
  C   C3597     1.0  0.79844  0.88477  0.25009  1.0000
  H   H5729     1.0  0.69280  0.78531  0.37959  1.0000
  C   C3598     1.0  0.71318  0.76656  0.35604  1.0000
  C   C3599     1.0  0.88594  0.87966  0.32189  1.0000
  H   H5730     1.0  0.89897  0.87017  0.29880  1.0000
  H   H5731     1.0  0.88260  0.96807  0.37139  1.0000
  H   H5732     1.0  0.71250  0.76463  0.34615  1.0000
  H   H5733     1.0  0.91104  0.77886  0.33733  1.0000
  N   N360      1.0  0.90113  0.87526  0.31695  1.0000
  C   C3600     1.0  0.90772  0.86850  0.32885  1.0000
  H   H5734     1.0  0.91923  0.86529  0.32552  1.0000
  H   H5735     1.0  0.80973  0.75604  0.38990  1.0000
  H   H5736     1.0  0.84231  0.98258  0.31434  1.0000
  H   H5737     1.0  0.90575  0.87558  0.33598  1.0000
  H   H5738     1.0  0.88351  0.88708  0.32877  1.0000
  H   H5739     1.0  0.93084  0.79918  0.34637  1.0000
  H   H5740     1.0  0.94816  0.77790  0.31962  1.0000
  H   H5741     1.0  0.90259  0.89259  0.29993  1.0000
  H   H5742     1.0  0.80333  0.97002  0.32615  1.0000
  C   C3601     1.0  0.90700  0.88742  0.30922  1.0000
  H   H5743     1.0  0.90478  0.89517  0.31569  1.0000
  H   H5744     1.0  0.93117  0.76296  0.34565  1.0000
  C   C3602     1.0  0.99684  0.85375  0.35081  1.0000
  H   H5745     1.0  0.91854  0.88457  0.30582  1.0000
  H   H5746     1.0  0.97708  0.86952  0.37870  1.0000
  C   C3603     1.0  0.80158  0.90516  0.25510  1.0000
  H   H5747     1.0  0.67543  0.67867  0.46894  1.0000
  H   H5748     1.0  0.91028  0.79047  0.34789  1.0000
  H   H5749     1.0  0.67065  0.66418  0.46636  1.0000
  H   H5750     1.0  0.88502  0.78724  0.26416  1.0000
  H   H5751     1.0  0.86007  0.77625  0.25108  1.0000
  H   H5752     1.0  0.79427  0.77426  0.36756  1.0000
  H   H5753     1.0  0.72283  0.77040  0.35434  1.0000
  N   N361      1.0  0.93061  0.78410  0.33545  1.0000
  H   H5754     1.0  0.71146  0.78210  0.37373  1.0000
  H   H5755     1.0  0.85164  0.88264  0.47182  1.0000
  H   H5756     1.0  0.71453  0.75646  0.36325  1.0000
  C   C3604     1.0  0.86543  0.67746  0.23782  1.0000
  H   H5757     1.0  0.87395  0.80348  0.26670  1.0000
  C   C3605     1.0  0.73783  0.65883  0.38289  1.0000
  H   H5758     1.0  0.76102  0.66179  0.26242  1.0000
  C   C3606     1.0  0.84292  0.91117  0.48526  1.0000
  H   H5759     1.0  0.85487  0.66252  0.26701  1.0000
  H   H5760     1.0  0.89848  0.97246  0.37128  1.0000
  H   H5761     1.0  0.88187  0.98052  0.34138  1.0000
  C   C3607     1.0  0.84466  0.66071  0.27363  1.0000
  C   C3608     1.0  0.67233  0.68194  0.32710  1.0000
  H   H5762     1.0  0.82695  0.88746  0.48228  1.0000
  H   H5763     1.0  0.86220  0.89484  0.46903  1.0000
  H   H5764     1.0  0.82001  0.71878  0.23777  1.0000
  S   S1450     1.0  0.85826  0.73528  0.23692  1.0000
  H   H5765     1.0  0.66766  0.68604  0.39168  1.0000
  H   H5766     1.0  0.85666  0.88513  0.48612  1.0000
  C   C3609     1.0  0.68116  0.83019  0.23662  1.0000
  C   C3610     1.0  0.98821  0.87742  0.58056  1.0000
  H   H5767     1.0  0.86652  0.94764  0.58987  1.0000
  H   H5768     1.0  0.80958  0.69063  0.65017  1.0000
  H   H5769     1.0  0.83902  0.70861  0.63471  1.0000
  C   C3611     1.0  0.80434  0.71794  0.64798  1.0000
  C   C3612     1.0  0.70011  0.71868  0.55563  1.0000
  H   H5770     1.0  0.70109  0.71399  0.54677  1.0000
  H   H5771     1.0  0.99729  0.87345  0.69482  1.0000
  H   H5772     1.0  0.67506  0.72265  0.67136  1.0000
  H   H5773     1.0  0.97965  0.88787  0.60334  1.0000
  H   H5774     1.0  0.96125  0.88560  0.59273  1.0000
  H   H5775     1.0  0.98016  0.85077  0.60651  1.0000
  Fe  Fe726     1.0  0.70245  0.69809  0.60440  1.0000
  S   S1451     1.0  0.72547  0.69059  0.59735  1.0000
  S   S1452     1.0  0.68620  0.69976  0.59256  1.0000
  Fe  Fe727     1.0  0.70580  0.70577  0.62969  1.0000
  S   S1453     1.0  0.72895  0.69897  0.62481  1.0000
  H   H5776     1.0  0.69539  0.72983  0.55290  1.0000
  Fe  Fe728     1.0  0.72756  0.70939  0.60313  1.0000
  Fe  Fe729     1.0  0.72465  0.68090  0.61977  1.0000
  H   H5777     1.0  0.88413  0.95008  0.68862  1.0000
  S   S1454     1.0  0.70455  0.71775  0.60844  1.0000
  S   S1455     1.0  0.70145  0.68693  0.62637  1.0000
  H   H5778     1.0  0.86161  0.97396  0.66513  1.0000
  H   H5779     1.0  0.83060  0.71500  0.65024  1.0000
  C   C3613     1.0  0.67542  0.67608  0.57311  1.0000
  H   H5780     1.0  0.81918  0.90270  0.48920  1.0000
  H   H5781     1.0  0.69862  0.87244  0.73111  1.0000
  H   H5782     1.0  0.72723  0.67729  0.64723  1.0000
  S   S1456     1.0  0.78295  0.73080  0.62210  1.0000
  N   N362      1.0  0.98071  0.87105  0.59413  1.0000
  C   C3614     1.0  0.82900  0.89490  0.48719  1.0000
  H   H5783     1.0  0.72180  0.72094  0.57443  1.0000
  H   H5784     1.0  0.73380  0.72126  0.54996  1.0000
  H   H5785     1.0  0.75530  0.70563  0.61028  1.0000
  C   C3615     1.0  0.71939  0.70147  0.56306  1.0000
  H   H5786     1.0  0.98662  0.87356  0.57212  1.0000
  H   H5787     1.0  0.85342  0.94746  0.60534  1.0000
  H   H5788     1.0  0.86516  0.96098  0.61365  1.0000
  C   C3616     1.0  0.99909  0.87600  0.64468  1.0000
  H   H5789     1.0  0.87168  0.96998  0.57550  1.0000
  C   C3617     1.0  0.69759  0.67457  0.58502  1.0000
  C   C3618     1.0  0.68641  0.68594  0.58536  1.0000
  C   C3619     1.0  0.76764  0.71690  0.61513  1.0000
  C   C3620     1.0  0.67161  0.71520  0.64241  1.0000
  C   C3621     1.0  0.81871  0.69506  0.64914  1.0000
  H   H5790     1.0  0.81413  0.72007  0.62071  1.0000
  H   H5791     1.0  0.70792  0.75538  0.64248  1.0000
  H   H5792     1.0  0.70545  0.73823  0.65026  1.0000
  S   S1457     1.0  0.74055  0.72474  0.59028  1.0000
  H   H5793     1.0  0.83143  0.88899  0.49729  1.0000
  H   H5794     1.0  0.80510  0.71826  0.65845  1.0000
  H   H5795     1.0  0.73626  0.72495  0.65029  1.0000
  H   H5796     1.0  0.81980  0.69463  0.65971  1.0000
  C   C3622     1.0  0.71183  0.72281  0.57107  1.0000
  H   H5797     1.0  0.69253  0.71396  0.56438  1.0000
  S   S1458     1.0  0.69623  0.71434  0.64872  1.0000
  C   C3623     1.0  0.82928  0.71481  0.63992  1.0000
  C   C3624     1.0  0.67809  0.71719  0.65184  1.0000
  H   H5798     1.0  0.77154  0.70837  0.62279  1.0000
  H   H5799     1.0  0.99710  0.85303  0.59707  1.0000
  H   H5800     1.0  0.71949  0.73394  0.54423  1.0000
  N   N363      1.0  0.81697  0.70932  0.64103  1.0000
  H   H5801     1.0  0.67288  0.66645  0.72723  1.0000
  H   H5802     1.0  0.82828  0.72560  0.63396  1.0000
  C   C3625     1.0  0.75313  0.72631  0.59827  1.0000
  C   C3626     1.0  0.99153  0.86818  0.64144  1.0000
  H   H5803     1.0  0.72068  0.69622  0.55453  1.0000
  H   H5804     1.0  0.79479  0.71425  0.64886  1.0000
  H   H5805     1.0  0.71234  0.69650  0.57213  1.0000
  C   C3627     1.0  0.73517  0.74827  0.63104  1.0000
  C   C3628     1.0  0.75831  0.71538  0.60815  1.0000
  H   H5806     1.0  0.72971  0.69935  0.56578  1.0000
  H   H5807     1.0  0.83529  0.73906  0.67451  1.0000
  H   H5808     1.0  0.82831  0.73280  0.72990  1.0000
  H   H5809     1.0  0.71719  0.74498  0.65553  1.0000
  H   H5810     1.0  0.70788  0.73414  0.56854  1.0000
  H   H5811     1.0  0.80616  0.70560  0.62756  1.0000
  H   H5812     1.0  0.86943  0.97663  0.60317  1.0000
  H   H5813     1.0  0.72531  0.71799  0.53835  1.0000
  N   N364      1.0  0.71371  0.71641  0.55928  1.0000
  H   H5814     1.0  0.80274  0.72873  0.64213  1.0000
  C   C3629     1.0  0.77185  0.72939  0.61236  1.0000
  H   H5815     1.0  0.67775  0.71229  0.63289  1.0000
  H   H5816     1.0  0.82479  0.70304  0.62153  1.0000
  H   H5817     1.0  0.82816  0.68826  0.64421  1.0000
  H   H5818     1.0  0.70419  0.71859  0.58006  1.0000
  C   C3630     1.0  0.81550  0.70945  0.62712  1.0000
  C   C3631     1.0  0.72351  0.72268  0.54741  1.0000
  C   C3632     1.0  0.75761  0.73873  0.59519  1.0000
  H   H5819     1.0  0.89000  0.98545  0.67173  1.0000
  C   C3633     1.0  0.66899  0.66762  0.67151  1.0000
  C   C3634     1.0  0.71337  0.74475  0.64649  1.0000
  H   H5820     1.0  0.73971  0.74858  0.63960  1.0000
  H   H5821     1.0  0.86790  0.96132  0.69449  1.0000
  H   H5822     1.0  0.73042  0.75903  0.62657  1.0000
  N   N365      1.0  0.72490  0.73937  0.63577  1.0000
  H   H5823     1.0  0.99360  0.88503  0.64890  1.0000
  Fe  Fe730     1.0  0.87423  0.76076  0.70351  1.0000
  S   S1459     1.0  0.88356  0.77313  0.68325  1.0000
  Fe  Fe731     1.0  0.84540  0.77900  0.70409  1.0000
  S   S1460     1.0  0.85214  0.79286  0.68408  1.0000
  S   S1461     1.0  0.82336  0.78054  0.71624  1.0000
  Fe  Fe732     1.0  0.86417  0.77361  0.67682  1.0000
  S   S1462     1.0  0.86416  0.77341  0.65511  1.0000
  Fe  Fe733     1.0  0.87084  0.79139  0.69214  1.0000
  S   S1463     1.0  0.87740  0.81149  0.68761  1.0000
  S   S1464     1.0  0.85581  0.75971  0.69626  1.0000
  S   S1465     1.0  0.86312  0.77907  0.71307  1.0000
  Fe  Fe734     1.0  0.78441  0.85188  0.69461  1.0000
  S   S1466     1.0  0.77019  0.84262  0.68837  1.0000
  S   S1467     1.0  0.78937  0.84174  0.71527  1.0000
  Fe  Fe735     1.0  0.78505  0.87527  0.66940  1.0000
  S   S1468     1.0  0.77028  0.86815  0.66170  1.0000
  S   S1469     1.0  0.79356  0.89249  0.65374  1.0000
  Fe  Fe736     1.0  0.75857  0.86453  0.68362  1.0000
  S   S1470     1.0  0.73515  0.86999  0.68924  1.0000
  Fe  Fe737     1.0  0.78344  0.84722  0.66720  1.0000
  S   S1471     1.0  0.79364  0.83484  0.65090  1.0000
  S   S1472     1.0  0.77208  0.87363  0.69100  1.0000
  S   S1473     1.0  0.79885  0.85446  0.67387  1.0000
  Fe  Fe738     1.0  0.78876  0.75061  0.62165  1.0000
  H   H5824     1.0  0.96333  0.87034  0.58642  1.0000
  C   C3635     1.0  0.99855  0.85660  0.63583  1.0000
  Fe  Fe739     1.0  0.78124  0.77744  0.63185  1.0000
  S   S1474     1.0  0.80347  0.77777  0.63028  1.0000
  S   S1475     1.0  0.76401  0.79288  0.64181  1.0000
  Fe  Fe740     1.0  0.80706  0.77186  0.61001  1.0000
  S   S1476     1.0  0.82339  0.78012  0.59266  1.0000
  Fe  Fe741     1.0  0.80609  0.75525  0.63908  1.0000
  S   S1477     1.0  0.83860  0.85752  0.49359  1.0000
  S   S1478     1.0  0.78447  0.77295  0.61084  1.0000
  S   S1479     1.0  0.78353  0.75535  0.64268  1.0000
  Fe  Fe742     1.0  0.84469  0.84822  0.58558  1.0000
  S   S1480     1.0  0.86593  0.83908  0.57449  1.0000
  S   S1481     1.0  0.82531  0.83994  0.59533  1.0000
  Fe  Fe743     1.0  0.85169  0.87571  0.58251  1.0000
  S   S1482     1.0  0.87359  0.86935  0.57074  1.0000
  S   S1483     1.0  0.84028  0.89429  0.59167  1.0000
  Fe  Fe744     1.0  0.86394  0.85952  0.55948  1.0000
  S   S1484     1.0  0.87205  0.85950  0.53663  1.0000
  Fe  Fe745     1.0  0.87400  0.84950  0.58644  1.0000
  S   S1485     1.0  0.89036  0.83841  0.59900  1.0000
  S   S1486     1.0  0.84202  0.86784  0.56982  1.0000
  S   S1487     1.0  0.85289  0.85660  0.59887  1.0000
  Fe  Fe746     1.0  0.87496  0.93359  0.65644  1.0000
  S   S1488     1.0  0.87856  0.94535  0.63470  1.0000
  S   S1489     1.0  0.89029  0.92871  0.66987  1.0000
  Fe  Fe747     1.0  0.84558  0.93229  0.65713  1.0000
  S   S1490     1.0  0.84621  0.94409  0.63538  1.0000
  S   S1491     1.0  0.82785  0.92418  0.67248  1.0000
  Fe  Fe748     1.0  0.86765  0.93092  0.63096  1.0000
  S   S1492     1.0  0.87697  0.92237  0.61179  1.0000
  Fe  Fe749     1.0  0.85702  0.95774  0.64065  1.0000
  S   S1493     1.0  0.86619  0.91785  0.65227  1.0000
  S   S1494     1.0  0.85428  0.94724  0.66287  1.0000
  Fe  Fe750     1.0  0.94245  0.83469  0.64603  1.0000
  S   S1495     1.0  0.95522  0.84209  0.62533  1.0000
  S   S1496     1.0  0.93789  0.81347  0.65251  1.0000
  Fe  Fe751     1.0  0.93880  0.86109  0.65534  1.0000
  S   S1497     1.0  0.95091  0.87117  0.63535  1.0000
  S   S1498     1.0  0.92923  0.86927  0.67460  1.0000
  Fe  Fe752     1.0  0.93929  0.86180  0.62577  1.0000
  S   S1499     1.0  0.92929  0.87263  0.60779  1.0000
  Fe  Fe753     1.0  0.96592  0.85060  0.63664  1.0000
  S   S1500     1.0  0.92574  0.85390  0.64569  1.0000
  S   S1501     1.0  0.95461  0.84120  0.65736  1.0000
  H   H5825     1.0  0.89983  0.79593  0.65149  1.0000
  C   C3636     1.0  0.90090  0.91210  0.67074  1.0000
  C   C3637     1.0  0.90396  0.90503  0.66002  1.0000
  C   C3638     1.0  0.91290  0.89191  0.66093  1.0000
  C   C3639     1.0  0.91841  0.88577  0.67272  1.0000
  C   C3640     1.0  0.91511  0.89277  0.68345  1.0000
  C   C3641     1.0  0.90656  0.90596  0.68238  1.0000
  H   H5826     1.0  0.89974  0.90984  0.65092  1.0000
  H   H5827     1.0  0.91556  0.88658  0.65254  1.0000
  H   H5828     1.0  0.91937  0.88809  0.69255  1.0000
  H   H5829     1.0  0.90424  0.91139  0.69066  1.0000
  C   C3642     1.0  0.86246  0.85999  0.52448  1.0000
  C   C3643     1.0  0.84790  0.86320  0.52732  1.0000
  C   C3644     1.0  0.84073  0.86261  0.51766  1.0000
  C   C3645     1.0  0.84803  0.85897  0.50503  1.0000
  H   H5830     1.0  0.84218  0.86605  0.53699  1.0000
  H   H5831     1.0  0.82946  0.86485  0.52005  1.0000
  C   C3646     1.0  0.90118  0.84811  0.60113  1.0000
  C   C3647     1.0  0.91055  0.84186  0.60986  1.0000
  C   C3648     1.0  0.91922  0.84932  0.61188  1.0000
  C   C3649     1.0  0.91869  0.86307  0.60507  1.0000
  C   C3650     1.0  0.90933  0.86934  0.59634  1.0000
  C   C3651     1.0  0.90053  0.86191  0.59444  1.0000
  H   H5832     1.0  0.91122  0.83118  0.61499  1.0000
  H   H5833     1.0  0.92643  0.84435  0.61859  1.0000
  H   H5834     1.0  0.90883  0.87998  0.59106  1.0000
  H   H5835     1.0  0.89334  0.86685  0.58772  1.0000
  C   C3652     1.0  0.85061  0.90166  0.59758  1.0000
  C   C3653     1.0  0.84430  0.90987  0.60742  1.0000
  C   C3654     1.0  0.85234  0.91610  0.61203  1.0000
  C   C3655     1.0  0.86666  0.91443  0.60653  1.0000
  C   C3656     1.0  0.87297  0.90619  0.59675  1.0000
  C   C3657     1.0  0.86499  0.89966  0.59242  1.0000
  H   H5836     1.0  0.83318  0.91138  0.61150  1.0000
  H   H5837     1.0  0.84741  0.92230  0.61971  1.0000
  H   H5838     1.0  0.88406  0.90480  0.59251  1.0000
  H   H5839     1.0  0.86992  0.89337  0.58481  1.0000
  C   C3658     1.0  0.82425  0.79636  0.59424  1.0000
  C   C3659     1.0  0.83703  0.80044  0.59035  1.0000
  C   C3660     1.0  0.83758  0.81371  0.59104  1.0000
  C   C3661     1.0  0.82530  0.82294  0.59536  1.0000
  C   C3662     1.0  0.81260  0.81875  0.59947  1.0000
  C   C3663     1.0  0.81208  0.80546  0.59900  1.0000
  H   H5840     1.0  0.84648  0.79329  0.58688  1.0000
  H   H5841     1.0  0.84745  0.81681  0.58819  1.0000
  H   H5842     1.0  0.80307  0.82587  0.60283  1.0000
  H   H5843     1.0  0.80219  0.80237  0.60196  1.0000
  C   C3664     1.0  0.80376  0.90054  0.65900  1.0000
  C   C3665     1.0  0.80301  0.89940  0.67296  1.0000
  C   C3666     1.0  0.81052  0.90667  0.67698  1.0000
  C   C3667     1.0  0.81905  0.91480  0.66707  1.0000
  C   C3668     1.0  0.82009  0.91563  0.65308  1.0000
  C   C3669     1.0  0.81231  0.90863  0.64906  1.0000
  H   H5844     1.0  0.79650  0.89312  0.68069  1.0000
  H   H5845     1.0  0.80974  0.90599  0.68780  1.0000
  H   H5846     1.0  0.82663  0.92191  0.64540  1.0000
  H   H5847     1.0  0.81291  0.90953  0.63824  1.0000
  C   C3670     1.0  0.78392  0.82492  0.64760  1.0000
  C   C3671     1.0  0.78917  0.81902  0.63600  1.0000
  C   C3672     1.0  0.78263  0.80967  0.63389  1.0000
  C   C3673     1.0  0.77088  0.80611  0.64343  1.0000
  C   C3674     1.0  0.76520  0.81253  0.65471  1.0000
  C   C3675     1.0  0.77172  0.82197  0.65680  1.0000
  H   H5848     1.0  0.79854  0.82136  0.62880  1.0000
  H   H5849     1.0  0.78677  0.80513  0.62492  1.0000
  H   H5850     1.0  0.75602  0.80989  0.66204  1.0000
  H   H5851     1.0  0.76757  0.82660  0.66574  1.0000
  C   C3676     1.0  0.72752  0.87467  0.70527  1.0000
  H   H5852     1.0  0.98029  0.87118  0.64318  1.0000
  C   C3677     1.0  0.79738  0.81478  0.72747  1.0000
  C   C3678     1.0  0.73421  0.88131  0.71092  1.0000
  H   H5853     1.0  0.85924  0.80505  0.54946  1.0000
  H   H5854     1.0  0.71143  0.73271  0.62727  1.0000
  H   H5855     1.0  0.74410  0.88379  0.70539  1.0000
  C   C3679     1.0  0.89376  0.81140  0.67662  1.0000
  C   C3680     1.0  0.90440  0.79959  0.67741  1.0000
  C   C3681     1.0  0.91788  0.80016  0.66956  1.0000
  C   C3682     1.0  0.92068  0.81251  0.66091  1.0000
  C   C3683     1.0  0.90985  0.82411  0.65964  1.0000
  C   C3684     1.0  0.89644  0.82362  0.66761  1.0000
  H   H5856     1.0  0.90242  0.79017  0.68451  1.0000
  H   H5857     1.0  0.92623  0.79113  0.67052  1.0000
  H   H5858     1.0  0.91175  0.83343  0.65251  1.0000
  H   H5859     1.0  0.88816  0.83273  0.66688  1.0000
  C   C3685     1.0  0.81412  0.79764  0.71575  1.0000
  C   C3686     1.0  0.81583  0.80771  0.70365  1.0000
  C   C3687     1.0  0.80805  0.82124  0.70337  1.0000
  C   C3688     1.0  0.79894  0.82482  0.71533  1.0000
  C   C3689     1.0  0.96563  0.87432  0.59441  1.0000
  H   H5860     1.0  0.99963  0.87511  0.58004  1.0000
  H   H5861     1.0  0.82305  0.80511  0.69447  1.0000
  H   H5862     1.0  0.80937  0.82897  0.69400  1.0000
  C   C3690     1.0  0.84391  0.97489  0.60207  1.0000
  H   H5863     1.0  0.74039  0.72079  0.63363  1.0000
  C   C3691     1.0  0.85257  0.76386  0.65448  1.0000
  H   H5864     1.0  0.68290  0.68748  0.65753  1.0000
  C   C3692     1.0  0.83839  0.74690  0.66572  1.0000
  H   H5865     1.0  0.74397  0.74446  0.62296  1.0000
  C   C3693     1.0  0.83600  0.76068  0.64319  1.0000
  C   C3694     1.0  0.84640  0.76725  0.64311  1.0000
  H   H5866     1.0  0.89307  0.97208  0.65446  1.0000
  H   H5867     1.0  0.74949  0.91098  0.64878  1.0000
  H   H5868     1.0  0.83120  0.76343  0.63443  1.0000
  H   H5869     1.0  0.84939  0.77520  0.63438  1.0000
  H   H5870     1.0  0.85489  0.81176  0.56478  1.0000
  H   H5871     1.0  0.90291  0.85481  0.69231  1.0000
  H   H5872     1.0  0.88412  0.82767  0.62870  1.0000
  N   N366      1.0  0.88756  0.80576  0.63617  1.0000
  H   H5873     1.0  0.77024  0.74993  0.59998  1.0000
  N   N367      1.0  0.91363  0.83368  0.69727  1.0000
  H   H5874     1.0  0.73459  0.90450  0.67209  1.0000
  H   H5875     1.0  0.79755  0.86676  0.64189  1.0000
  H   H5876     1.0  0.81580  0.88639  0.62294  1.0000
  H   H5877     1.0  0.85385  0.75043  0.67418  1.0000
  H   H5878     1.0  0.89612  0.82091  0.63995  1.0000
  N   N368      1.0  0.88530  0.88041  0.63569  1.0000
  C   C3695     1.0  0.87095  0.88703  0.63393  1.0000
  C   C3696     1.0  0.89508  0.88865  0.62603  1.0000
  C   C3697     1.0  0.88895  0.86643  0.63280  1.0000
  C   C3698     1.0  0.88626  0.87952  0.64995  1.0000
  H   H5879     1.0  0.86318  0.88146  0.64143  1.0000
  H   H5880     1.0  0.86979  0.88733  0.62342  1.0000
  H   H5881     1.0  0.86806  0.89785  0.63532  1.0000
  H   H5882     1.0  0.89466  0.88963  0.61513  1.0000
  H   H5883     1.0  0.89269  0.89926  0.62792  1.0000
  H   H5884     1.0  0.90602  0.88395  0.62703  1.0000
  H   H5885     1.0  0.88818  0.86678  0.62214  1.0000
  H   H5886     1.0  0.88191  0.85985  0.63999  1.0000
  H   H5887     1.0  0.89982  0.86123  0.63371  1.0000
  H   H5888     1.0  0.89693  0.87440  0.65164  1.0000
  H   H5889     1.0  0.87884  0.87360  0.65758  1.0000
  H   H5890     1.0  0.88386  0.88991  0.65236  1.0000
  N   N369      1.0  0.80952  0.79045  0.66998  1.0000
  C   C3699     1.0  0.80507  0.77717  0.67491  1.0000
  C   C3700     1.0  0.79897  0.80107  0.67659  1.0000
  C   C3701     1.0  0.81102  0.79459  0.65489  1.0000
  C   C3702     1.0  0.82301  0.78897  0.67350  1.0000
  H   H5891     1.0  0.81277  0.76898  0.67003  1.0000
  H   H5892     1.0  0.79492  0.77793  0.67237  1.0000
  H   H5893     1.0  0.80391  0.77365  0.68625  1.0000
  H   H5894     1.0  0.79767  0.79836  0.68799  1.0000
  H   H5895     1.0  0.80193  0.81127  0.67296  1.0000
  H   H5896     1.0  0.78864  0.80243  0.67417  1.0000
  H   H5897     1.0  0.81365  0.80492  0.65081  1.0000
  H   H5898     1.0  0.80119  0.79511  0.65189  1.0000
  H   H5899     1.0  0.81931  0.78713  0.64950  1.0000
  H   H5900     1.0  0.82662  0.79884  0.66994  1.0000
  H   H5901     1.0  0.83124  0.78114  0.66859  1.0000
  H   H5902     1.0  0.82230  0.78569  0.68481  1.0000
  C   C3703     1.0  0.81815  0.85221  0.62594  1.0000
  H   H5903     1.0  0.81842  0.84877  0.63705  1.0000
  H   H5904     1.0  0.82893  0.84965  0.61985  1.0000
  H   H5905     1.0  0.81205  0.84587  0.62374  1.0000
  H   H5906     1.0  0.79250  0.88086  0.62847  1.0000
  H   H5907     1.0  0.80555  0.86511  0.60493  1.0000
  H   H5908     1.0  0.87234  0.81242  0.62354  1.0000
  C   C3704     1.0  0.87457  0.80486  0.63305  1.0000
  C   C3705     1.0  0.88631  0.81979  0.63804  1.0000
  C   C3706     1.0  0.85640  0.95360  0.59480  1.0000
  N   N370      1.0  0.84407  0.82416  0.54900  1.0000
  C   C3707     1.0  0.84681  0.82779  0.53380  1.0000
  C   C3708     1.0  0.83205  0.81740  0.55428  1.0000
  C   C3709     1.0  0.84091  0.83677  0.55452  1.0000
  C   C3710     1.0  0.85654  0.81470  0.55339  1.0000
  H   H5909     1.0  0.85585  0.83288  0.52947  1.0000
  H   H5910     1.0  0.83769  0.83500  0.53005  1.0000
  H   H5911     1.0  0.84920  0.81853  0.52929  1.0000
  H   H5912     1.0  0.83418  0.80761  0.55071  1.0000
  H   H5913     1.0  0.82942  0.81486  0.56573  1.0000
  H   H5914     1.0  0.82256  0.82418  0.55089  1.0000
  H   H5915     1.0  0.83841  0.83447  0.56597  1.0000
  H   H5916     1.0  0.83182  0.84435  0.55109  1.0000
  H   H5917     1.0  0.84994  0.84188  0.55111  1.0000
  H   H5918     1.0  0.86576  0.81957  0.54958  1.0000
  H   H5919     1.0  0.91659  0.84083  0.67536  1.0000
  H   H5920     1.0  0.86547  0.80684  0.64165  1.0000
  H   H5921     1.0  0.87777  0.82229  0.64693  1.0000
  H   H5922     1.0  0.87978  0.98087  0.68872  1.0000
  H   H5923     1.0  0.87521  0.79441  0.63146  1.0000
  H   H5924     1.0  0.92664  0.82395  0.68072  1.0000
  N   N371      1.0  0.81193  0.86706  0.62243  1.0000
  C   C3711     1.0  0.81163  0.87111  0.60763  1.0000
  C   C3712     1.0  0.79759  0.86976  0.63071  1.0000
  H   H5925     1.0  0.82231  0.86921  0.60110  1.0000
  H   H5926     1.0  0.79104  0.86371  0.62877  1.0000
  C   C3713     1.0  0.83501  0.74039  0.72758  1.0000
  C   C3714     1.0  0.68275  0.66469  0.68816  1.0000
  C   C3715     1.0  0.82026  0.87514  0.62549  1.0000
  H   H5927     1.0  0.80701  0.88225  0.60462  1.0000
  H   H5928     1.0  0.82058  0.87246  0.63660  1.0000
  H   H5929     1.0  0.83115  0.87340  0.61937  1.0000
  N   N372      1.0  0.75254  0.91342  0.66777  1.0000
  C   C3716     1.0  0.86974  0.85674  0.51168  1.0000
  C   C3717     1.0  0.89937  0.80271  0.62463  1.0000
  C   C3718     1.0  0.88999  0.79570  0.64893  1.0000
  H   H5930     1.0  0.90935  0.80334  0.62661  1.0000
  H   H5931     1.0  0.89510  0.83424  0.69083  1.0000
  H   H5932     1.0  0.89472  0.82704  0.70872  1.0000
  H   H5933     1.0  0.90151  0.84772  0.71044  1.0000
  N   N373      1.0  0.87935  0.96926  0.67439  1.0000
  H   H5934     1.0  0.73534  0.92902  0.66156  1.0000
  H   H5935     1.0  0.88136  0.79786  0.65789  1.0000
  C   C3719     1.0  0.90161  0.82782  0.69827  1.0000
  C   C3720     1.0  0.90862  0.84770  0.70015  1.0000
  H   H5936     1.0  0.91744  0.85226  0.69988  1.0000
  H   H5937     1.0  0.77074  0.90156  0.67535  1.0000
  H   H5938     1.0  0.67477  0.66041  0.69675  1.0000
  H   H5939     1.0  0.89785  0.81015  0.61484  1.0000
  H   H5940     1.0  0.90504  0.81728  0.69604  1.0000
  H   H5941     1.0  0.91558  0.82414  0.71807  1.0000
  C   C3721     1.0  0.92248  0.83434  0.68327  1.0000
  H   H5942     1.0  0.86235  0.98581  0.58085  1.0000
  H   H5943     1.0  0.71426  0.74972  0.61926  1.0000
  H   H5944     1.0  0.90061  0.79219  0.62292  1.0000
  H   H5945     1.0  0.93154  0.83890  0.68213  1.0000
  C   C3722     1.0  0.92189  0.82485  0.70737  1.0000
  C   C3723     1.0  0.76428  0.91218  0.67415  1.0000
  H   H5946     1.0  0.72428  0.71824  0.64530  1.0000
  H   H5947     1.0  0.92582  0.81420  0.70543  1.0000
  H   H5948     1.0  0.93112  0.82895  0.70678  1.0000
  C   C3724     1.0  0.86258  0.85624  0.50199  1.0000
  H   H5949     1.0  0.88101  0.85434  0.50936  1.0000
  H   H5950     1.0  0.89066  0.78501  0.64801  1.0000
  C   C3725     1.0  0.73176  0.72522  0.64152  1.0000
  H   H5951     1.0  0.69305  0.68555  0.66987  1.0000
  H   H5952     1.0  0.74941  0.89304  0.67780  1.0000
  C   C3726     1.0  0.70854  0.87490  0.72554  1.0000
  C   C3727     1.0  0.75801  0.90986  0.65406  1.0000
  N   N374      1.0  0.67636  0.67461  0.67716  1.0000
  H   H5953     1.0  0.74166  0.85024  0.72165  1.0000
  S   S1502     1.0  0.88615  0.74035  0.71332  1.0000
  C   C3728     1.0  0.67536  0.68667  0.57936  1.0000
  H   H5954     1.0  0.74005  0.93072  0.67649  1.0000
  S   S1503     1.0  0.85092  0.98078  0.63342  1.0000
  C   C3729     1.0  0.83181  0.75068  0.65462  1.0000
  C   C3730     1.0  0.88887  0.96382  0.66252  1.0000
  H   H5955     1.0  0.88067  0.97570  0.63193  1.0000
  C   C3731     1.0  0.98313  0.87648  0.60498  1.0000
  C   C3732     1.0  0.74431  0.92771  0.66631  1.0000
  H   H5956     1.0  0.84551  0.90593  0.49547  1.0000
  C   C3733     1.0  0.74356  0.90392  0.67656  1.0000
  H   H5957     1.0  0.88352  0.95884  0.65773  1.0000
  H   H5958     1.0  0.72068  0.67325  0.67257  1.0000
  H   H5959     1.0  0.84061  0.96931  0.61284  1.0000
  C   C3734     1.0  0.87500  0.95770  0.68528  1.0000
  H   H5960     1.0  0.86945  0.95197  0.68154  1.0000
  C   C3735     1.0  0.88663  0.97663  0.67974  1.0000
  H   H5961     1.0  0.82949  0.75038  0.72218  1.0000
  H   H5962     1.0  0.77140  0.91907  0.66770  1.0000
  C   C3736     1.0  0.68734  0.68005  0.66606  1.0000
  H   H5963     1.0  0.73327  0.88991  0.72813  1.0000
  H   H5964     1.0  0.75079  0.93513  0.65970  1.0000
  C   C3737     1.0  0.71458  0.87167  0.71251  1.0000
  H   H5965     1.0  0.76060  0.91475  0.68453  1.0000
  C   C3738     1.0  0.72804  0.88481  0.72379  1.0000
  C   C3739     1.0  0.67008  0.72104  0.66408  1.0000
  C   C3740     1.0  0.71529  0.88143  0.73122  1.0000
  C   C3741     1.0  0.72295  0.66476  0.66744  1.0000
  H   H5966     1.0  0.98463  0.85152  0.58837  1.0000
  H   H5967     1.0  0.76529  0.91644  0.64729  1.0000
  H   H5968     1.0  0.95968  0.86961  0.60451  1.0000
  H   H5969     1.0  0.73926  0.90619  0.68705  1.0000
  H   H5970     1.0  0.86975  0.98812  0.66240  1.0000
  C   C3742     1.0  0.71932  0.73921  0.62402  1.0000
  H   H5971     1.0  0.85919  0.98262  0.67887  1.0000
  C   C3743     1.0  0.75098  0.84924  0.72576  1.0000
  H   H5972     1.0  0.70929  0.86666  0.70812  1.0000
  H   H5973     1.0  0.89611  0.96970  0.68304  1.0000
  C   C3744     1.0  0.84875  0.75348  0.66564  1.0000
  H   H5974     1.0  0.76396  0.89902  0.65486  1.0000
  C   C3745     1.0  0.76694  0.74030  0.60226  1.0000
  H   H5975     1.0  0.70611  0.67385  0.58969  1.0000
  H   H5976     1.0  0.86834  0.85341  0.49232  1.0000
  H   H5977     1.0  0.85643  0.74942  0.72871  1.0000
  H   H5978     1.0  0.84847  0.95402  0.58905  1.0000
  H   H5979     1.0  0.83554  0.97611  0.59656  1.0000
  S   S1504     1.0  0.81164  0.74925  0.61874  1.0000
  C   C3746     1.0  0.68667  0.66479  0.57260  1.0000
  C   C3747     1.0  0.98589  0.85595  0.59656  1.0000
  H   H5980     1.0  0.97737  0.87213  0.61532  1.0000
  N   N375      1.0  0.85747  0.96752  0.59515  1.0000
  H   H5981     1.0  0.89793  0.95589  0.66563  1.0000
  H   H5982     1.0  0.75371  0.74721  0.58749  1.0000
  C   C3748     1.0  0.72663  0.66707  0.65306  1.0000
  H   H5983     1.0  0.72769  0.73499  0.61584  1.0000
  H   H5984     1.0  0.69514  0.67166  0.66155  1.0000
  S   S1505     1.0  0.81777  0.74350  0.65562  1.0000
  H   H5985     1.0  0.99434  0.87374  0.60547  1.0000
  H   H5986     1.0  0.84125  0.76253  0.73232  1.0000
  H   H5987     1.0  0.88695  0.71390  0.73104  1.0000
  H   H5988     1.0  0.87847  0.96041  0.59828  1.0000
  C   C3749     1.0  0.86145  0.97526  0.58094  1.0000
  H   H5989     1.0  0.84472  0.73683  0.72019  1.0000
  H   H5990     1.0  0.75379  0.85949  0.72274  1.0000
  C   C3750     1.0  0.69777  0.66409  0.57853  1.0000
  H   H5991     1.0  0.67626  0.65891  0.66708  1.0000
  C   C3751     1.0  0.86816  0.96634  0.60282  1.0000
  C   C3752     1.0  0.86693  0.97888  0.67002  1.0000
  H   H5992     1.0  0.68851  0.66957  0.69260  1.0000
  H   H5993     1.0  0.87944  0.75584  0.73495  1.0000
  S   S1506     1.0  0.73433  0.65913  0.62828  1.0000
  C   C3753     1.0  0.80474  0.80116  0.72759  1.0000
  C   C3754     1.0  0.88334  0.73538  0.73133  1.0000
  S   S1507     1.0  0.98950  0.84689  0.63101  1.0000
  H   H5994     1.0  0.83352  0.91953  0.48698  1.0000
  H   H5995     1.0  0.75977  0.84213  0.72040  1.0000
  C   C3755     1.0  0.87597  0.98597  0.63373  1.0000
  H   H5996     1.0  0.84446  0.98532  0.60279  1.0000
  H   H5997     1.0  0.85361  0.97633  0.57483  1.0000
  H   H5998     1.0  0.67153  0.69173  0.68712  1.0000
  H   H5999     1.0  0.98456  0.88882  0.57838  1.0000
  Fe  Fe754     1.0  0.77638  0.65949  0.87466  1.0000
  H   H6000     1.0  0.66706  0.84036  0.88126  1.0000
  H   H6001     1.0  0.74364  0.66090  0.78775  1.0000
  H   H6002     1.0  0.66833  0.90338  0.83835  1.0000
  C   C3756     1.0  0.82501  0.74653  0.74976  1.0000
  C   C3757     1.0  0.73678  0.72778  0.87280  1.0000
  N   N376      1.0  0.67952  0.80575  0.76964  1.0000
  C   C3758     1.0  0.88429  0.72141  0.73745  1.0000
  Fe  Fe755     1.0  0.78628  0.68504  0.87380  1.0000
  S   S1508     1.0  0.76719  0.68206  0.86921  1.0000
  S   S1509     1.0  0.79653  0.70209  0.86056  1.0000
  Fe  Fe756     1.0  0.75909  0.68039  0.89198  1.0000
  S   S1510     1.0  0.73757  0.69169  0.90063  1.0000
  S   S1511     1.0  0.67714  0.81488  0.85291  1.0000
  S   S1512     1.0  0.77779  0.68464  0.89626  1.0000
  H   H6003     1.0  0.93910  0.69496  0.77193  1.0000
  Fe  Fe757     1.0  0.88291  0.67000  0.79214  1.0000
  S   S1513     1.0  0.88304  0.68611  0.80286  1.0000
  S   S1514     1.0  0.66874  0.88559  0.76766  1.0000
  Fe  Fe758     1.0  0.85227  0.68046  0.79132  1.0000
  S   S1515     1.0  0.85025  0.69729  0.80214  1.0000
  S   S1516     1.0  0.83140  0.68056  0.78802  1.0000
  Fe  Fe759     1.0  0.87054  0.70041  0.78791  1.0000
  S   S1517     1.0  0.87467  0.72167  0.77823  1.0000
  Fe  Fe760     1.0  0.86293  0.68117  0.81585  1.0000
  S   S1518     1.0  0.85897  0.67534  0.83895  1.0000
  S   S1519     1.0  0.87179  0.68460  0.77607  1.0000
  H   H6004     1.0  0.85554  0.72462  0.73986  1.0000
  C   C3759     1.0  0.87795  0.72677  0.76016  1.0000
  C   C3760     1.0  0.88138  0.71714  0.75182  1.0000
  H   H6005     1.0  0.76070  0.73824  0.86825  1.0000
  H   H6006     1.0  0.88186  0.70639  0.75633  1.0000
  C   C3761     1.0  0.81445  0.69584  0.85573  1.0000
  C   C3762     1.0  0.82112  0.68397  0.86368  1.0000
  C   C3763     1.0  0.83503  0.67792  0.85873  1.0000
  C   C3764     1.0  0.84231  0.68391  0.84596  1.0000
  C   C3765     1.0  0.83589  0.69627  0.83848  1.0000
  C   C3766     1.0  0.82195  0.70222  0.84333  1.0000
  H   H6007     1.0  0.81551  0.67931  0.87352  1.0000
  H   H6008     1.0  0.67524  0.83956  0.83234  1.0000
  H   H6009     1.0  0.84165  0.70127  0.82895  1.0000
  H   H6010     1.0  0.81688  0.71155  0.83727  1.0000
  C   C3767     1.0  0.73281  0.70891  0.89222  1.0000
  C   C3768     1.0  0.72131  0.71777  0.89859  1.0000
  H   H6011     1.0  0.67059  0.82568  0.75875  1.0000
  C   C3769     1.0  0.74040  0.71392  0.87921  1.0000
  H   H6012     1.0  0.71535  0.71392  0.90864  1.0000
  C   C3770     1.0  0.87998  0.74505  0.73963  1.0000
  H   H6013     1.0  0.90773  0.68126  0.77709  1.0000
  C   C3771     1.0  0.70323  0.90092  0.82720  1.0000
  C   C3772     1.0  0.76088  0.84365  0.74582  1.0000
  H   H6014     1.0  0.90602  0.71890  0.76503  1.0000
  H   H6015     1.0  0.87490  0.74822  0.76043  1.0000
  H   H6016     1.0  0.68467  0.94884  0.88898  1.0000
  H   H6017     1.0  0.73826  0.86425  0.74527  1.0000
  C   C3773     1.0  0.82180  0.66224  0.83989  1.0000
  H   H6018     1.0  0.91329  0.69043  0.79452  1.0000
  N   N377      1.0  0.77114  0.73069  0.88515  1.0000
  H   H6019     1.0  0.67813  0.90965  0.85465  1.0000
  C   C3774     1.0  0.68751  0.71916  0.85788  1.0000
  C   C3775     1.0  0.67013  0.80755  0.78304  1.0000
  Fe  Fe761     1.0  0.67053  0.87453  0.78919  1.0000
  H   H6020     1.0  0.77874  0.74940  0.87879  1.0000
  H   H6021     1.0  0.68380  0.70938  0.86226  1.0000
  H   H6022     1.0  0.82705  0.74785  0.75935  1.0000
  H   H6023     1.0  0.70658  0.88984  0.83182  1.0000
  H   H6024     1.0  0.92021  0.70573  0.78926  1.0000
  H   H6025     1.0  0.71271  0.71239  0.87603  1.0000
  C   C3776     1.0  0.82886  0.66069  0.93011  1.0000
  H   H6026     1.0  0.72677  0.85447  0.74395  1.0000
  H   H6027     1.0  0.75433  0.82294  0.73943  1.0000
  H   H6028     1.0  0.89065  0.67394  0.89959  1.0000
  H   H6029     1.0  0.76368  0.85391  0.74299  1.0000
  H   H6030     1.0  0.67345  0.83145  0.95729  1.0000
  C   C3777     1.0  0.82045  0.67033  0.92168  1.0000
  C   C3778     1.0  0.81129  0.66614  0.91640  1.0000
  H   H6031     1.0  0.82094  0.68107  0.91929  1.0000
  H   H6032     1.0  0.80474  0.67364  0.91001  1.0000
  H   H6033     1.0  0.80834  0.68783  0.83002  1.0000
  H   H6034     1.0  0.83262  0.66396  0.83590  1.0000
  H   H6035     1.0  0.73400  0.85017  0.75893  1.0000
  H   H6036     1.0  0.88627  0.65843  0.88684  1.0000
  C   C3779     1.0  0.67014  0.76390  0.81256  1.0000
  C   C3780     1.0  0.67819  0.76084  0.83350  1.0000
  H   H6037     1.0  0.70069  0.79602  0.76205  1.0000
  H   H6038     1.0  0.68558  0.81965  0.96691  1.0000
  H   H6039     1.0  0.83993  0.66832  0.86450  1.0000
  H   H6040     1.0  0.67429  0.81299  0.78849  1.0000
  C   C3781     1.0  0.67373  0.79834  0.76284  1.0000
  H   H6041     1.0  0.89655  0.69761  0.77252  1.0000
  H   H6042     1.0  0.67595  0.73157  0.87938  1.0000
  H   H6043     1.0  0.68476  0.92272  0.81669  1.0000
  C   C3782     1.0  0.92405  0.65798  0.90135  1.0000
  H   H6044     1.0  0.67185  0.95574  0.87079  1.0000
  H   H6045     1.0  0.81911  0.75663  0.74493  1.0000
  H   H6046     1.0  0.84418  0.65887  0.98547  1.0000
  C   C3783     1.0  0.67224  0.91130  0.91390  1.0000
  H   H6047     1.0  0.90252  0.66333  0.81210  1.0000
  H   H6048     1.0  0.99927  0.65809  0.92432  1.0000
  H   H6049     1.0  0.77106  0.74515  0.89685  1.0000
  H   H6050     1.0  0.82432  0.68306  0.81805  1.0000
  H   H6051     1.0  0.83395  0.65872  0.96645  1.0000
  C   C3784     1.0  0.67100  0.91799  0.88984  1.0000
  C   C3785     1.0  0.90743  0.69165  0.77033  1.0000
  H   H6052     1.0  0.90991  0.69033  0.75950  1.0000
  C   C3786     1.0  0.91305  0.65867  0.80782  1.0000
  H   H6053     1.0  0.97752  0.66092  0.86347  1.0000
  H   H6054     1.0  0.73609  0.83045  0.74058  1.0000
  C   C3787     1.0  0.68525  0.72305  0.88053  1.0000
  H   H6055     1.0  0.71828  0.66399  0.79798  1.0000
  C   C3788     1.0  0.66720  0.80573  0.98510  1.0000
  H   H6056     1.0  0.69808  0.80292  0.77702  1.0000
  H   H6057     1.0  0.67669  0.81349  0.95763  1.0000
  H   H6058     1.0  0.69046  0.72514  0.88772  1.0000
  C   C3789     1.0  0.68062  0.76355  0.81909  1.0000
  H   H6059     1.0  0.71457  0.70949  0.85920  1.0000
  N   N378      1.0  0.69484  0.72192  0.86708  1.0000
  H   H6060     1.0  0.74911  0.70715  0.87410  1.0000
  H   H6061     1.0  0.90234  0.70689  0.78929  1.0000
  N   N379      1.0  0.91717  0.69861  0.77269  1.0000
  H   H6062     1.0  0.70482  0.73758  0.86756  1.0000
  C   C3790     1.0  0.93143  0.69006  0.77020  1.0000
  H   H6063     1.0  0.77935  0.73387  0.86326  1.0000
  H   H6064     1.0  0.99303  0.67665  0.86114  1.0000
  C   C3791     1.0  0.86078  0.66269  0.88212  1.0000
  H   H6065     1.0  0.91934  0.71123  0.75225  1.0000
  S   S1520     1.0  0.79646  0.66268  0.87669  1.0000
  C   C3792     1.0  0.87742  0.74072  0.75403  1.0000
  C   C3793     1.0  0.89940  0.66798  0.90404  1.0000
  H   H6066     1.0  0.68143  0.71341  0.88557  1.0000
  H   H6067     1.0  0.70916  0.73860  0.89739  1.0000
  S   S1521     1.0  0.70862  0.88474  0.74792  1.0000
  N   N380      1.0  0.86488  0.65696  0.89553  1.0000
  H   H6068     1.0  0.79356  0.72571  0.88043  1.0000
  H   H6069     1.0  0.78565  0.72135  0.89845  1.0000
  N   N381      1.0  0.74840  0.84423  0.74086  1.0000
  H   H6070     1.0  0.68500  0.82535  0.76567  1.0000
  C   C3794     1.0  0.71775  0.73171  0.89221  1.0000
  H   H6071     1.0  0.76444  0.66655  0.84857  1.0000
  H   H6072     1.0  0.75951  0.67096  0.82528  1.0000
  H   H6073     1.0  0.67821  0.72755  0.85624  1.0000
  C   C3795     1.0  0.77026  0.74487  0.88638  1.0000
  H   H6074     1.0  0.74263  0.73157  0.86270  1.0000
  C   C3796     1.0  0.82083  0.65795  0.81833  1.0000
  H   H6075     1.0  0.67445  0.92625  0.83285  1.0000
  H   H6076     1.0  0.76016  0.75174  0.88449  1.0000
  C   C3797     1.0  0.78457  0.72189  0.88787  1.0000
  H   H6077     1.0  0.77010  0.83644  0.74115  1.0000
  C   C3798     1.0  0.76743  0.65832  0.84299  1.0000
  H   H6078     1.0  0.81668  0.66830  0.84804  1.0000
  C   C3799     1.0  0.69955  0.73497  0.86080  1.0000
  S   S1522     1.0  0.67622  0.92772  0.87338  1.0000
  C   C3800     1.0  0.72569  0.73677  0.87943  1.0000
  H   H6079     1.0  0.88730  0.66518  0.92487  1.0000
  S   S1523     1.0  0.84017  0.66625  0.93662  1.0000
  C   C3801     1.0  0.77018  0.73085  0.87107  1.0000
  Fe  Fe762     1.0  0.68118  0.79286  0.86426  1.0000
  S   S1524     1.0  0.76665  0.65742  0.89712  1.0000
  H   H6080     1.0  0.69437  0.71844  0.84757  1.0000
  Fe  Fe763     1.0  0.70000  0.76587  0.87498  1.0000
  S   S1525     1.0  0.68198  0.75621  0.88720  1.0000
  H   H6081     1.0  0.79401  0.67064  0.84256  1.0000
  H   H6082     1.0  0.70698  0.73450  0.85073  1.0000
  H   H6083     1.0  0.69063  0.76541  0.81299  1.0000
  H   H6084     1.0  0.70389  0.70055  0.87387  1.0000
  H   H6085     1.0  0.71098  0.90641  0.82783  1.0000
  S   S1526     1.0  0.69162  0.77394  0.85573  1.0000
  S   S1527     1.0  0.69144  0.78583  0.88231  1.0000
  C   C3802     1.0  0.92370  0.65708  0.81475  1.0000
  S   S1528     1.0  0.69332  0.86534  0.78342  1.0000
  C   C3803     1.0  0.89752  0.66303  0.91831  1.0000
  C   C3804     1.0  0.76465  0.66080  0.82983  1.0000
  S   S1529     1.0  0.68612  0.85623  0.75803  1.0000
  H   H6086     1.0  0.69206  0.89475  0.85420  1.0000
  Fe  Fe764     1.0  0.68651  0.84776  0.78029  1.0000
  S   S1530     1.0  0.69579  0.82572  0.78817  1.0000
  Fe  Fe765     1.0  0.69114  0.87474  0.76158  1.0000
  C   C3805     1.0  0.91666  0.71221  0.76321  1.0000
  H   H6087     1.0  0.68034  0.95851  0.90228  1.0000
  H   H6088     1.0  0.68549  0.92331  0.89827  1.0000
  C   C3806     1.0  0.67807  0.80823  0.91879  1.0000
  C   C3807     1.0  0.70702  0.71058  0.86910  1.0000
  H   H6089     1.0  0.74925  0.73159  0.89346  1.0000
  C   C3808     1.0  0.68249  0.81758  0.83495  1.0000
  C   C3809     1.0  0.68013  0.83101  0.82722  1.0000
  C   C3810     1.0  0.68426  0.83350  0.81286  1.0000
  C   C3811     1.0  0.69075  0.82255  0.80615  1.0000
  C   C3812     1.0  0.69297  0.80907  0.81384  1.0000
  C   C3813     1.0  0.68881  0.80659  0.82824  1.0000
  S   S1531     1.0  0.72241  0.75432  0.87164  1.0000
  H   H6090     1.0  0.68264  0.84395  0.80704  1.0000
  H   H6091     1.0  0.69799  0.80057  0.80869  1.0000
  H   H6092     1.0  0.69067  0.79622  0.83408  1.0000
  H   H6093     1.0  0.83166  0.65934  0.81359  1.0000
  H   H6094     1.0  0.67333  0.97329  0.86689  1.0000
  H   H6095     1.0  0.68839  0.81040  0.91589  1.0000
  S   S1532     1.0  0.67322  0.76778  0.79451  1.0000
  C   C3814     1.0  0.67917  0.89915  0.83324  1.0000
  C   C3815     1.0  0.68084  0.81939  0.76078  1.0000
  H   H6096     1.0  0.70374  0.90172  0.81610  1.0000
  N   N382      1.0  0.81397  0.66643  0.82881  1.0000
  H   H6097     1.0  0.80804  0.68458  0.81379  1.0000
  H   H6098     1.0  0.98890  0.66171  0.82718  1.0000
  H   H6099     1.0  0.75925  0.84019  0.75719  1.0000
  C   C3816     1.0  0.81636  0.66665  0.78078  1.0000
  H   H6100     1.0  0.85043  0.67274  0.90544  1.0000
  S   S1533     1.0  0.86349  0.66407  0.80607  1.0000
  H   H6101     1.0  0.93480  0.68838  0.75946  1.0000
  H   H6102     1.0  0.66883  0.79744  0.78989  1.0000
  H   H6103     1.0  0.76977  0.72049  0.87003  1.0000
  C   C3817     1.0  0.68502  0.92143  0.82770  1.0000
  H   H6104     1.0  0.68457  0.79010  0.91012  1.0000
  N   N383      1.0  0.68905  0.90678  0.83428  1.0000
  Fe  Fe766     1.0  0.67303  0.76569  0.86836  1.0000
  Fe  Fe767     1.0  0.78634  0.66186  0.89892  1.0000
  H   H6105     1.0  0.78562  0.71119  0.88678  1.0000
  N   N384      1.0  0.83813  0.74186  0.74023  1.0000
  H   H6106     1.0  0.67914  0.89977  0.82231  1.0000
  C   C3818     1.0  0.75955  0.72520  0.89523  1.0000
  C   C3819     1.0  0.68878  0.90563  0.84894  1.0000
  C   C3820     1.0  0.67591  0.79679  0.91542  1.0000
  H   H6107     1.0  0.85015  0.75296  0.74576  1.0000
  C   C3821     1.0  0.82970  0.66869  0.77948  1.0000
  H   H6108     1.0  0.68031  0.79713  0.75253  1.0000
  C   C3822     1.0  0.69335  0.79766  0.77191  1.0000
  C   C3823     1.0  0.99711  0.66565  0.86281  1.0000
  H   H6109     1.0  0.84954  0.66779  0.88353  1.0000
  H   H6110     1.0  0.67298  0.78786  0.76908  1.0000
  C   C3824     1.0  0.79960  0.66438  0.83463  1.0000
  H   H6111     1.0  0.75984  0.71451  0.89458  1.0000
  H   H6112     1.0  0.92399  0.71774  0.76456  1.0000
  H   H6113     1.0  0.93206  0.67972  0.77723  1.0000
  Fe  Fe768     1.0  0.67268  0.77680  0.89310  1.0000
  H   H6114     1.0  0.68784  0.96593  0.88488  1.0000
  H   H6115     1.0  0.92135  0.66076  0.82419  1.0000
  H   H6116     1.0  0.69575  0.91165  0.85019  1.0000
  H   H6117     1.0  0.86510  0.66436  0.91311  1.0000
  H   H6118     1.0  0.75994  0.72490  0.90598  1.0000
  C   C3825     1.0  0.91309  0.70049  0.78707  1.0000
  H   H6119     1.0  0.68641  0.76045  0.83835  1.0000
  S   S1534     1.0  0.67004  0.83162  0.92895  1.0000
  H   H6120     1.0  0.84853  0.72924  0.75633  1.0000
  C   C3826     1.0  0.86179  0.66815  0.90309  1.0000
  S   S1535     1.0  0.91444  0.66971  0.87756  1.0000
  H   H6121     1.0  0.67673  0.91164  0.92215  1.0000
  C   C3827     1.0  0.67716  0.91793  0.90041  1.0000
  H   H6122     1.0  0.86676  0.67057  0.87559  1.0000
  H   H6123     1.0  0.69064  0.74369  0.85903  1.0000
  H   H6124     1.0  0.68796  0.81845  0.75064  1.0000
  H   H6125     1.0  0.82414  0.67583  0.96703  1.0000
  C   C3828     1.0  0.73636  0.85367  0.74754  1.0000
  H   H6126     1.0  0.80741  0.67243  0.78681  1.0000
  H   H6127     1.0  0.79342  0.66732  0.82651  1.0000
  C   C3829     1.0  0.84568  0.72846  0.74691  1.0000
  H   H6128     1.0  0.86722  0.67659  0.89708  1.0000
  H   H6129     1.0  0.83933  0.72047  0.75000  1.0000
  C   C3830     1.0  0.67546  0.82107  0.96406  1.0000
  H   H6130     1.0  0.66841  0.79753  0.97943  1.0000
  H   H6131     1.0  0.66790  0.98616  0.88502  1.0000
  H   H6132     1.0  0.69231  0.92753  0.82812  1.0000
  S   S1536     1.0  0.95126  0.65739  0.85204  1.0000
  C   C3831     1.0  0.84120  0.66133  0.77151  1.0000
  C   C3832     1.0  0.81362  0.68112  0.82241  1.0000
  H   H6133     1.0  0.85150  0.66298  0.77037  1.0000
  H   H6134     1.0  0.69262  0.78734  0.77865  1.0000
  H   H6135     1.0  0.68181  0.88806  0.83812  1.0000
  C   C3833     1.0  0.82400  0.66477  0.97148  1.0000
  H   H6136     1.0  0.67162  0.90455  0.79029  1.0000
  H   H6137     1.0  0.74334  0.82624  0.75561  1.0000
  H   H6138     1.0  0.81548  0.66234  0.96833  1.0000
  C   C3834     1.0  0.68043  0.95934  0.89128  1.0000
  H   H6139     1.0  0.66972  0.92830  0.79300  1.0000
  C   C3835     1.0  0.66693  0.81700  0.92565  1.0000
  H   H6140     1.0  0.81813  0.73902  0.75277  1.0000
  H   H6141     1.0  0.81514  0.66086  0.80984  1.0000
  C   C3836     1.0  0.74541  0.83033  0.74429  1.0000
  C   C3837     1.0  0.91259  0.66507  0.89550  1.0000
  C   C3838     1.0  0.66702  0.96584  0.87374  1.0000
  H   H6142     1.0  0.80340  0.79342  0.73697  1.0000
  H   H6143     1.0  0.79041  0.81749  0.73675  1.0000
  C   C3839     1.0  0.84688  0.75212  0.73662  1.0000
  C   C3840     1.0  0.81450  0.65707  0.77443  1.0000
  H   H6144     1.0  0.83429  0.67592  0.98642  1.0000
