data_image0
_chemical_formula_structural       HCH2CH4C2HCH3NHCFeS2FeS2FeSFeS3CS2HC2H2C3NH2C6H4C2H6C2H2CH2FeCHC3NFeCHCH6C3NSHCH3CHCH3NHSH6C2S2FeSHCSFeHCH5CH2CH3C2H7C2H2FeS2FeSHFeSFeS3H2SHFeC3H3C6SH4C2H2SC3NC4H4SH7CH3FeCHCSC3H2FeSFeS2CH4SC2HNH3NCH3CHCHC2H6C2HCH3FeS2FeH2SH2CH2C2HCHCH4CHSNCH3C2HSC2SHFe2SHCH3CH2FeS2FeS2FeHFeS3H3C2HC3H2CH2CHC2HCNCSC5HCHCH3C2HCH3CH2CSHCNH4NH2CH7FeS2FeSHFeSFeS3C2H3C2H4C2H5CH7CHNHSCHCHCHNHC9H3CH10CH2S2CFeSH2CH5NCHCHFeC3HCHCFeHCHSCHSFeS2HSH2CHCH5CHCHCNCH3C2FeS2HC4H2SCSHFeS2Fe2CHCSHSHCHCH3CH3CH6C2H2CH3CFeS2FeS2FeSFeS3H3CHCH2NC2H3C2HC2HCNH3CHNH2CH2C2HC2HC2H2CH3CH2CH6CHC2NH5FeS2FeS2FeHFeS3C4HCHC3H3CH6CHCH2CHCSH5CNCHC4H3CH3C2HCHFeSNFeS2HCH3C2H2CSCSFeSC4H3C2H2NH7C2SCH3FeC2SH6CHCH3CNHC2H5CH6CH2CS2Fe2SCSCHCHC2H3C2HCH3C2H2CH5FeH2NSH3FeS2FeS2FeHFeS3CHCSCHC2H4CHC3HFeC3H2C6HCHN2SH3CHSH2C2H3SH3CHC2H2CHNH5CH4CH2SH2CS2FeHCFeHS2HSNSFeS2Fe2SFeS3CNCSHC3HC6H2SHC3H2C2H2FeCHC3H2NHNH2CHSH3CH2C2H4CH6FeCHCH8C2HC3HCH7C2
_chemical_formula_sum              "H512 C320 N32 Fe64 S128"
_cell_length_a       44.2633
_cell_length_b       43.9553
_cell_length_c       39.4501
_cell_angle_alpha    88.3429
_cell_angle_beta     88.9541
_cell_angle_gamma    120.871

_space_group_name_H-M_alt    "P 1"
_space_group_IT_number       1

loop_
  _space_group_symop_operation_xyz
  'x, y, z'

loop_
  _atom_site_type_symbol
  _atom_site_label
  _atom_site_symmetry_multiplicity
  _atom_site_fract_x
  _atom_site_fract_y
  _atom_site_fract_z
  _atom_site_occupancy
  H   H1        1.0  0.23332  0.47378  0.20024  1.0000
  C   C1        1.0  0.23938  0.48436  0.22525  1.0000
  H   H2        1.0  0.21252  0.43251  0.25122  1.0000
  H   H3        1.0  0.49691  0.28416  0.20206  1.0000
  C   C2        1.0  0.40604  0.11817  0.23836  1.0000
  H   H4        1.0  0.46665  0.12670  0.21222  1.0000
  H   H5        1.0  0.38702  0.12695  0.24412  1.0000
  H   H6        1.0  0.40432  0.11231  0.21098  1.0000
  H   H7        1.0  0.48116  0.19917  0.23195  1.0000
  C   C3        1.0  0.50500  0.27667  0.22502  1.0000
  C   C4        1.0  0.45368  0.17836  0.22651  1.0000
  H   H8        1.0  0.49399  0.15215  0.24579  1.0000
  C   C5        1.0  0.46643  0.13223  0.23957  1.0000
  H   H9        1.0  0.45300  0.17402  0.19882  1.0000
  H   H10       1.0  0.28090  0.41744  0.24616  1.0000
  H   H11       1.0  0.43648  0.18940  0.23201  1.0000
  N   N1        1.0  0.44226  0.14526  0.24695  1.0000
  H   H12       1.0  0.45479  0.25721  0.25177  1.0000
  C   C6        1.0  0.48103  0.26134  0.25314  1.0000
  Fe  Fe1       1.0  0.21334  0.32775  0.33117  1.0000
  S   S1        1.0  0.22022  0.36775  0.36925  1.0000
  S   S2        1.0  0.26483  0.32796  0.32403  1.0000
  Fe  Fe2       1.0  0.13707  0.30951  0.31937  1.0000
  S   S3        1.0  0.14033  0.34948  0.35548  1.0000
  S   S4        1.0  0.08558  0.27039  0.29525  1.0000
  Fe  Fe3       1.0  0.19456  0.38584  0.33136  1.0000
  S   S5        1.0  0.22177  0.44619  0.32411  1.0000
  Fe  Fe4       1.0  0.16595  0.32799  0.38935  1.0000
  S   S6        1.0  0.14376  0.30624  0.44259  1.0000
  S   S7        1.0  0.18960  0.34737  0.29234  1.0000
  S   S8        1.0  0.16074  0.28643  0.35420  1.0000
  C   C7        1.0  0.29155  0.05217  0.45585  1.0000
  S   S9        1.0  0.28804  0.20020  0.28942  1.0000
  S   S10       1.0  0.30291  0.13620  0.34087  1.0000
  H   H13       1.0  0.33075  0.09995  0.40692  1.0000
  C   C8        1.0  0.16516  0.33002  0.47848  1.0000
  C   C9        1.0  0.19712  0.36233  0.47550  1.0000
  H   H14       1.0  0.33531  0.27117  0.31374  1.0000
  H   H15       1.0  0.20919  0.37350  0.45067  1.0000
  C   C10       1.0  0.44292  0.15235  0.28341  1.0000
  C   C11       1.0  0.04395  0.26298  0.30951  1.0000
  C   C12       1.0  0.04113  0.28650  0.33058  1.0000
  N   N2        1.0  0.04403  0.22612  0.41531  1.0000
  H   H16       1.0  0.06463  0.31031  0.33775  1.0000
  H   H17       1.0  0.28212  0.43770  0.33680  1.0000
  C   C13       1.0  0.27024  0.29162  0.31526  1.0000
  C   C14       1.0  0.30361  0.29548  0.31878  1.0000
  C   C15       1.0  0.30937  0.26760  0.31149  1.0000
  C   C16       1.0  0.28187  0.23566  0.30012  1.0000
  C   C17       1.0  0.24851  0.23179  0.29660  1.0000
  C   C18       1.0  0.24258  0.25947  0.30444  1.0000
  H   H18       1.0  0.32524  0.32033  0.32689  1.0000
  H   H19       1.0  0.31237  0.04757  0.46561  1.0000
  H   H20       1.0  0.22715  0.20731  0.28750  1.0000
  H   H21       1.0  0.21685  0.25621  0.30133  1.0000
  C   C19       1.0  0.26583  0.03004  0.31672  1.0000
  C   C20       1.0  0.29824  0.03259  0.31036  1.0000
  H   H22       1.0  0.46984  0.17267  0.29094  1.0000
  H   H23       1.0  0.26411  0.05372  0.31538  1.0000
  H   H24       1.0  0.25559  0.41835  0.28169  1.0000
  H   H25       1.0  0.26777  0.38522  0.28082  1.0000
  H   H26       1.0  0.06709  0.23687  0.36461  1.0000
  H   H27       1.0  0.31968  0.07000  0.37310  1.0000
  C   C21       1.0  0.30295  0.43207  0.32868  1.0000
  C   C22       1.0  0.07356  0.24725  0.39053  1.0000
  H   H28       1.0  0.27169  0.22194  0.46035  1.0000
  H   H29       1.0  0.02720  0.17731  0.39062  1.0000
  C   C23       1.0  0.23492  0.47421  0.28667  1.0000
  H   H30       1.0  0.32697  0.44975  0.34265  1.0000
  H   H31       1.0  0.31594  0.24253  0.37469  1.0000
  Fe  Fe5       1.0  0.32849  0.18813  0.31062  1.0000
  C   C24       1.0  0.27711  0.41357  0.27424  1.0000
  H   H32       1.0  0.34289  0.06680  0.40849  1.0000
  C   C25       1.0  0.32177  0.07202  0.40110  1.0000
  C   C26       1.0  0.33721  0.42926  0.28190  1.0000
  C   C27       1.0  0.03519  0.18879  0.41603  1.0000
  N   N3        1.0  0.27005  0.21123  0.40737  1.0000
  Fe  Fe6       1.0  0.34280  0.12645  0.31624  1.0000
  C   C28       1.0  0.34062  0.16345  0.46842  1.0000
  H   H33       1.0  0.23285  0.18185  0.44862  1.0000
  C   C29       1.0  0.27766  0.01028  0.41173  1.0000
  H   H34       1.0  0.25718  0.05102  0.37928  1.0000
  H   H35       1.0  0.08072  0.27553  0.38880  1.0000
  H   H36       1.0  0.43385  0.12786  0.29969  1.0000
  H   H37       1.0  0.26304  0.25583  0.41326  1.0000
  H   H38       1.0  0.25891  0.24103  0.37090  1.0000
  H   H39       1.0  0.26267  0.18828  0.35858  1.0000
  C   C30       1.0  0.26043  0.05419  0.40706  1.0000
  C   C31       1.0  0.25326  0.23181  0.39807  1.0000
  C   C32       1.0  0.49134  0.25206  0.28311  1.0000
  N   N4        1.0  0.28782  0.04711  0.41895  1.0000
  S   S11       1.0  0.31641  0.15271  0.43125  1.0000
  H   H40       1.0  0.03267  0.22584  0.46866  1.0000
  C   C33       1.0  0.39561  0.18782  0.49750  1.0000
  H   H41       1.0  0.32221  0.21942  0.40947  1.0000
  H   H42       1.0  0.22760  0.16248  0.38926  1.0000
  H   H43       1.0  0.26883  0.16403  0.39217  1.0000
  C   C34       1.0  0.30864  0.23385  0.40187  1.0000
  H   H44       1.0  0.31964  0.25811  0.41685  1.0000
  C   C35       1.0  0.25665  0.18012  0.38599  1.0000
  H   H45       1.0  0.23436  0.03574  0.41980  1.0000
  H   H46       1.0  0.36228  0.44663  0.29459  1.0000
  H   H47       1.0  0.09758  0.24701  0.39788  1.0000
  N   N5        1.0  0.30981  0.43746  0.29154  1.0000
  H   H48       1.0  0.07757  0.23903  0.45786  1.0000
  S   S12       1.0  0.33729  0.07420  0.30161  1.0000
  H   H49       1.0  0.06257  0.26909  0.44921  1.0000
  H   H50       1.0  0.22412  0.21564  0.40186  1.0000
  H   H51       1.0  0.05818  0.18652  0.42327  1.0000
  H   H52       1.0  0.01302  0.17201  0.43451  1.0000
  H   H53       1.0  0.29387  0.40419  0.33718  1.0000
  H   H54       1.0  0.32866  0.40118  0.28928  1.0000
  C   C36       1.0  0.37729  0.17983  0.46717  1.0000
  C   C37       1.0  0.26174  0.19912  0.44349  1.0000
  S   S13       1.0  0.38165  0.15305  0.35671  1.0000
  S   S14       1.0  0.36719  0.21904  0.35022  1.0000
  Fe  Fe7       1.0  0.40254  0.20302  0.32373  1.0000
  S   S15       1.0  0.46270  0.23358  0.31964  1.0000
  H   H55       1.0  0.39159  0.18645  0.44296  1.0000
  C   C38       1.0  0.32236  0.15496  0.49997  1.0000
  S   S16       1.0  0.36543  0.17566  0.28178  1.0000
  Fe  Fe8       1.0  0.34332  0.16645  0.37907  1.0000
  H   H56       1.0  0.26731  0.08178  0.41204  1.0000
  C   C39       1.0  0.05448  0.24051  0.44932  1.0000
  H   H57       1.0  0.27416  0.18355  0.45122  1.0000
  H   H58       1.0  0.42535  0.16268  0.28974  1.0000
  H   H59       1.0  0.34665  0.49355  0.29356  1.0000
  H   H60       1.0  0.29914  0.07981  0.46194  1.0000
  H   H61       1.0  0.42403  0.20060  0.49651  1.0000
  C   C40       1.0  0.32173  0.47471  0.28140  1.0000
  H   H62       1.0  0.30172  0.48166  0.28901  1.0000
  H   H63       1.0  0.26646  0.03381  0.47022  1.0000
  C   C41       1.0  0.01302  0.22799  0.40524  1.0000
  H   H64       1.0  0.00603  0.29782  0.35864  1.0000
  H   H65       1.0  0.01484  0.21416  0.28356  1.0000
  H   H66       1.0  0.01872  0.25579  0.40468  1.0000
  C   C42       1.0  0.01295  0.23248  0.29998  1.0000
  C   C43       1.0  0.00780  0.27943  0.34225  1.0000
  H   H67       1.0  0.27559  0.00605  0.38398  1.0000
  H   H68       1.0  0.29741  0.00376  0.42080  1.0000
  H   H69       1.0  0.23811  0.40541  0.50236  1.0000
  H   H70       1.0  0.29396  0.14218  0.50112  1.0000
  H   H71       1.0  0.32623  0.47960  0.25341  1.0000
  H   H72       1.0  0.34290  0.43288  0.25400  1.0000
  H   H73       1.0  0.32470  0.00305  0.30610  1.0000
  C   C44       1.0  0.29980  0.00141  0.31122  1.0000
  C   C45       1.0  0.22759  0.46087  0.25414  1.0000
  H   H74       1.0  0.39658  0.09275  0.25325  1.0000
  H   H75       1.0  0.45860  0.10728  0.25461  1.0000
  Fe  Fe9       1.0  0.19550  0.36703  0.62608  1.0000
  S   S17       1.0  0.15124  0.31123  0.63780  1.0000
  S   S18       1.0  0.21975  0.38905  0.57340  1.0000
  Fe  Fe10      1.0  0.20518  0.38592  0.70100  1.0000
  S   S19       1.0  0.16259  0.33039  0.71787  1.0000
  H   H76       1.0  0.15354  0.32297  0.56476  1.0000
  Fe  Fe11      1.0  0.18624  0.31139  0.67883  1.0000
  S   S20       1.0  0.19079  0.26206  0.68450  1.0000
  Fe  Fe12      1.0  0.13162  0.33517  0.67561  1.0000
  S   S21       1.0  0.07753  0.32839  0.68614  1.0000
  S   S22       1.0  0.23132  0.36619  0.66544  1.0000
  S   S23       1.0  0.17346  0.39157  0.66031  1.0000
  H   H77       1.0  0.31612  0.05424  0.69166  1.0000
  H   H78       1.0  0.21584  0.29402  0.62040  1.0000
  S   S24       1.0  0.26505  0.07404  0.67012  1.0000
  H   H79       1.0  0.28820  0.34174  0.53535  1.0000
  Fe  Fe13      1.0  0.31495  0.12891  0.66708  1.0000
  C   C46       1.0  0.21343  0.38037  0.50480  1.0000
  C   C47       1.0  0.26121  0.03309  0.68268  1.0000
  C   C48       1.0  0.29030  0.03050  0.69156  1.0000
  H   H80       1.0  0.31956  0.31289  0.68566  1.0000
  H   H81       1.0  0.12495  0.29091  0.51333  1.0000
  H   H82       1.0  0.20282  0.20452  0.67504  1.0000
  C   C49       1.0  0.23030  0.26087  0.68198  1.0000
  C   C50       1.0  0.26341  0.29137  0.68485  1.0000
  C   C51       1.0  0.29412  0.28921  0.68299  1.0000
  C   C52       1.0  0.29213  0.25663  0.67819  1.0000
  C   C53       1.0  0.25904  0.22618  0.67505  1.0000
  C   C54       1.0  0.22832  0.22832  0.67709  1.0000
  S   S25       1.0  0.33168  0.25546  0.67685  1.0000
  H   H83       1.0  0.14932  0.38854  0.72790  1.0000
  H   H84       1.0  0.25706  0.20091  0.67148  1.0000
  H   H85       1.0  0.26531  0.31646  0.68925  1.0000
  H   H86       1.0  0.21496  0.47141  0.70607  1.0000
  C   C55       1.0  0.03557  0.28947  0.68285  1.0000
  C   C56       1.0  0.03169  0.25665  0.67592  1.0000
  H   H87       1.0  0.26470  0.28264  0.61297  1.0000
  H   H88       1.0  0.05481  0.25450  0.67230  1.0000
  S   S26       1.0  0.42434  0.19118  0.73671  1.0000
  C   C57       1.0  0.19784  0.36632  0.53716  1.0000
  C   C58       1.0  0.16590  0.33398  0.54007  1.0000
  C   C59       1.0  0.34069  0.16303  0.53023  1.0000
  N   N6        1.0  0.25678  0.31850  0.58143  1.0000
  C   C60       1.0  0.21956  0.30234  0.59306  1.0000
  C   C61       1.0  0.26057  0.32997  0.54522  1.0000
  C   C62       1.0  0.26783  0.29213  0.58592  1.0000
  C   C63       1.0  0.27903  0.34962  0.60162  1.0000
  H   H89       1.0  0.00787  0.31686  0.69338  1.0000
  H   H90       1.0  0.20187  0.27850  0.57880  1.0000
  H   H91       1.0  0.47007  0.25867  0.69852  1.0000
  H   H92       1.0  0.43014  0.27515  0.73821  1.0000
  S   S27       1.0  0.31725  0.16781  0.62672  1.0000
  H   H93       1.0  0.29601  0.30351  0.57808  1.0000
  H   H94       1.0  0.32644  0.15638  0.55443  1.0000
  H   H95       1.0  0.38996  0.24268  0.72047  1.0000
  H   H96       1.0  0.40023  0.28761  0.72111  1.0000
  H   H97       1.0  0.33245  0.22502  0.74893  1.0000
  H   H98       1.0  0.25173  0.26836  0.57092  1.0000
  H   H99       1.0  0.27123  0.36998  0.59892  1.0000
  C   C64       1.0  0.24237  0.46825  0.74925  1.0000
  H   H100      1.0  0.25318  0.35052  0.54138  1.0000
  H   H101      1.0  0.26160  0.00609  0.61026  1.0000
  H   H102      1.0  0.27670  0.34198  0.62910  1.0000
  Fe  Fe14      1.0  0.33865  0.20830  0.66693  1.0000
  C   C65       1.0  0.46689  0.22812  0.74349  1.0000
  H   H103      1.0  0.24322  0.30745  0.52930  1.0000
  C   C66       1.0  0.37741  0.17959  0.52912  1.0000
  S   S28       1.0  0.33191  0.16857  0.70812  1.0000
  C   C67       1.0  0.48327  0.25788  0.72107  1.0000
  C   C68       1.0  0.40186  0.26653  0.73586  1.0000
  C   C69       1.0  0.14969  0.31587  0.51084  1.0000
  H   H104      1.0  0.20511  0.00385  0.67653  1.0000
  H   H105      1.0  0.21025  0.32135  0.58982  1.0000
  Fe  Fe15      1.0  0.37298  0.18091  0.61769  1.0000
  S   S29       1.0  0.40127  0.19007  0.56660  1.0000
  Fe  Fe16      1.0  0.38745  0.18323  0.69349  1.0000
  S   S30       1.0  0.36973  0.14007  0.65579  1.0000
  S   S31       1.0  0.39513  0.22477  0.65438  1.0000
  C   C70       1.0  0.22991  0.48496  0.72776  1.0000
  H   H106      1.0  0.11551  0.39928  0.72777  1.0000
  H   H107      1.0  0.29574  0.00266  0.58851  1.0000
  H   H108      1.0  0.30732  0.36258  0.59357  1.0000
  H   H109      1.0  0.15805  0.42950  0.74439  1.0000
  S   S32       1.0  0.23292  0.42417  0.74341  1.0000
  C   C71       1.0  0.13741  0.40104  0.74275  1.0000
  C   C72       1.0  0.22782  0.00203  0.68294  1.0000
  H   H110      1.0  0.34461  0.27031  0.75156  1.0000
  N   N7        1.0  0.38339  0.25856  0.76939  1.0000
  H   H111      1.0  0.10100  0.38893  0.82212  1.0000
  H   H112      1.0  0.40094  0.31323  0.77724  1.0000
  H   H113      1.0  0.08676  0.33144  0.79817  1.0000
  N   N8        1.0  0.12488  0.38326  0.77672  1.0000
  C   C73       1.0  0.40103  0.29030  0.78992  1.0000
  H   H114      1.0  0.14641  0.37172  0.82042  1.0000
  H   H115      1.0  0.13162  0.42998  0.79962  1.0000
  H   H116      1.0  0.08867  0.40159  0.78339  1.0000
  C   C74       1.0  0.11089  0.40177  0.79638  1.0000
  H   H117      1.0  0.27194  0.47399  0.79390  1.0000
  C   C75       1.0  0.15459  0.38446  0.79450  1.0000
  H   H118      1.0  0.37114  0.22222  0.81237  1.0000
  C   C76       1.0  0.09673  0.34592  0.77312  1.0000
  C   C77       1.0  0.38444  0.22886  0.78678  1.0000
  H   H119      1.0  0.07396  0.34405  0.75962  1.0000
  H   H120      1.0  0.17671  0.41229  0.79682  1.0000
  H   H121      1.0  0.47209  0.20476  0.79018  1.0000
  H   H122      1.0  0.38767  0.28531  0.81537  1.0000
  H   H123      1.0  0.37118  0.20440  0.77200  1.0000
  H   H124      1.0  0.33136  0.24200  0.78951  1.0000
  C   C78       1.0  0.34636  0.24856  0.76482  1.0000
  C   C79       1.0  0.26211  0.48658  0.77710  1.0000
  H   H125      1.0  0.10623  0.33132  0.75791  1.0000
  C   C80       1.0  0.48459  0.22758  0.77257  1.0000
  H   H126      1.0  0.42900  0.29840  0.79385  1.0000
  H   H127      1.0  0.16567  0.37055  0.78040  1.0000
  H   H128      1.0  0.41205  0.23520  0.78982  1.0000
  Fe  Fe17      1.0  0.31487  0.68138  0.21344  1.0000
  S   S33       1.0  0.28493  0.64407  0.17231  1.0000
  S   S34       1.0  0.35562  0.63826  0.15741  1.0000
  Fe  Fe18      1.0  0.30652  0.61044  0.19138  1.0000
  H   H129      1.0  0.21911  0.52964  0.13624  1.0000
  H   H130      1.0  0.24883  0.77403  0.20871  1.0000
  S   S35       1.0  0.27251  0.54993  0.19137  1.0000
  H   H131      1.0  0.20337  0.53521  0.06148  1.0000
  H   H132      1.0  0.19528  0.54980  0.12022  1.0000
  C   C81       1.0  0.28027  0.57363  0.10262  1.0000
  H   H133      1.0  0.34571  0.63680  0.05584  1.0000
  H   H134      1.0  0.22710  0.51501  0.07750  1.0000
  C   C82       1.0  0.24878  0.60105  0.08106  1.0000
  C   C83       1.0  0.22202  0.55472  0.12532  1.0000
  H   H135      1.0  0.27854  0.54928  0.11405  1.0000
  C   C84       1.0  0.26908  0.74207  0.22896  1.0000
  H   H136      1.0  0.36950  0.73621  0.25289  1.0000
  C   C85       1.0  0.25869  0.52138  0.22850  1.0000
  H   H137      1.0  0.13102  0.70946  0.21487  1.0000
  H   H138      1.0  0.24684  0.54953  0.04461  1.0000
  H   H139      1.0  0.29291  0.59454  0.12141  1.0000
  H   H140      1.0  0.17250  0.73284  0.23473  1.0000
  C   C86       1.0  0.25354  0.76311  0.23157  1.0000
  H   H141      1.0  0.22281  0.59777  0.07526  1.0000
  S   S36       1.0  0.33252  0.64504  0.23468  1.0000
  N   N9        1.0  0.24521  0.56750  0.09433  1.0000
  C   C87       1.0  0.22990  0.54058  0.06833  1.0000
  H   H142      1.0  0.27619  0.73694  0.20430  1.0000
  H   H143      1.0  0.46277  0.76245  0.21869  1.0000
  H   H144      1.0  0.15029  0.68557  0.23320  1.0000
  C   C88       1.0  0.47912  0.75645  0.23417  1.0000
  C   C89       1.0  0.32298  0.69085  0.01526  1.0000
  H   H145      1.0  0.29826  0.58230  0.07976  1.0000
  S   S37       1.0  0.43103  0.68460  0.22444  1.0000
  C   C90       1.0  0.33107  0.67513  0.04254  1.0000
  C   C91       1.0  0.33847  0.64852  0.03549  1.0000
  S   S38       1.0  0.33062  0.68917  0.08473  1.0000
  H   H146      1.0  0.23304  0.57431  0.14555  1.0000
  Fe  Fe19      1.0  0.33541  0.67363  0.14006  1.0000
  Fe  Fe20      1.0  0.38055  0.67578  0.20005  1.0000
  S   S39       1.0  0.36427  0.71381  0.18038  1.0000
  H   H147      1.0  0.26558  0.61108  0.05731  1.0000
  C   C92       1.0  0.47001  0.72111  0.24003  1.0000
  H   H148      1.0  0.31734  0.71157  0.02020  1.0000
  H   H149      1.0  0.26132  0.62238  0.09959  1.0000
  H   H150      1.0  0.40387  0.72645  0.24843  1.0000
  C   C93       1.0  0.14604  0.70817  0.23660  1.0000
  H   H151      1.0  0.07617  0.67207  0.25005  1.0000
  H   H152      1.0  0.10711  0.73743  0.25267  1.0000
  Fe  Fe21      1.0  0.13170  0.79097  0.34642  1.0000
  S   S40       1.0  0.17049  0.77296  0.35361  1.0000
  S   S41       1.0  0.07491  0.74554  0.35636  1.0000
  Fe  Fe22      1.0  0.19170  0.86955  0.33902  1.0000
  S   S42       1.0  0.23445  0.85667  0.34565  1.0000
  S   S43       1.0  0.19783  0.92442  0.33577  1.0000
  Fe  Fe23      1.0  0.20305  0.81165  0.31109  1.0000
  H   H153      1.0  0.13548  0.70009  0.32262  1.0000
  Fe  Fe24      1.0  0.19828  0.81870  0.38755  1.0000
  S   S44       1.0  0.21457  0.80668  0.43785  1.0000
  S   S45       1.0  0.16229  0.82715  0.30135  1.0000
  S   S46       1.0  0.15760  0.83422  0.38339  1.0000
  H   H154      1.0  0.07708  0.77035  0.42839  1.0000
  H   H155      1.0  0.24391  0.76157  0.31739  1.0000
  H   H156      1.0  0.36645  0.68881  0.33421  1.0000
  C   C94       1.0  0.37888  0.75411  0.31708  1.0000
  C   C95       1.0  0.10409  0.77455  0.49030  1.0000
  H   H157      1.0  0.06445  0.68789  0.47071  1.0000
  C   C96       1.0  0.20370  0.82076  0.47507  1.0000
  C   C97       1.0  0.19189  0.84475  0.47344  1.0000
  C   C98       1.0  0.07433  0.71088  0.48738  1.0000
  H   H158      1.0  0.19065  0.85602  0.44917  1.0000
  H   H159      1.0  0.28097  0.56302  0.26397  1.0000
  C   C99       1.0  0.23690  0.96548  0.32524  1.0000
  H   H160      1.0  0.37648  0.74868  0.34502  1.0000
  H   H161      1.0  0.26019  0.52183  0.31487  1.0000
  C   C100      1.0  0.27561  0.72799  0.25827  1.0000
  H   H162      1.0  0.27088  0.94422  0.31943  1.0000
  C   C101      1.0  0.26623  0.53466  0.26101  1.0000
  C   C102      1.0  0.03487  0.73771  0.33894  1.0000
  H   H163      1.0  0.17195  0.87235  0.50178  1.0000
  C   C103      1.0  0.24436  0.77040  0.26341  1.0000
  N   N10       1.0  0.09105  0.74483  0.46720  1.0000
  C   C104      1.0  0.03409  0.75658  0.31012  1.0000
  S   S47       1.0  0.29548  0.70158  0.25691  1.0000
  C   C105      1.0  0.23536  0.99668  0.32413  1.0000
  C   C106      1.0  0.39537  0.74240  0.26264  1.0000
  C   C107      1.0  0.26626  0.73515  0.29010  1.0000
  C   C108      1.0  0.09268  0.67193  0.27094  1.0000
  C   C109      1.0  0.14876  0.70326  0.29742  1.0000
  H   H164      1.0  0.42766  0.74020  0.33959  1.0000
  C   C110      1.0  0.42829  0.74506  0.31169  1.0000
  H   H165      1.0  0.43899  0.72982  0.29946  1.0000
  C   C111      1.0  0.25072  0.75618  0.29271  1.0000
  H   H166      1.0  0.05852  0.77745  0.29819  1.0000
  H   H167      1.0  0.37879  0.68026  0.29351  1.0000
  H   H168      1.0  0.27114  0.72441  0.31297  1.0000
  C   C112      1.0  0.26932  0.96801  0.31877  1.0000
  C   C113      1.0  0.25434  0.51120  0.28986  1.0000
  H   H169      1.0  0.11196  0.72724  0.42762  1.0000
  C   C114      1.0  0.06498  0.74553  0.44480  1.0000
  H   H170      1.0  0.05402  0.72301  0.42748  1.0000
  H   H171      1.0  0.13486  0.77425  0.43168  1.0000
  H   H172      1.0  0.14921  0.76091  0.27132  1.0000
  C   C115      1.0  0.12088  0.74840  0.44632  1.0000
  H   H173      1.0  0.48569  0.68694  0.26409  1.0000
  H   H174      1.0  0.11632  0.80053  0.47585  1.0000
  C   C116      1.0  0.12331  0.73567  0.27299  1.0000
  S   S48       1.0  0.22394  0.79632  0.26504  1.0000
  H   H175      1.0  0.41452  0.77088  0.25604  1.0000
  C   C117      1.0  0.36901  0.69591  0.30660  1.0000
  N   N11       1.0  0.12770  0.70475  0.26947  1.0000
  H   H176      1.0  0.35214  0.74642  0.30826  1.0000
  H   H177      1.0  0.39614  0.78324  0.31206  1.0000
  H   H178      1.0  0.14083  0.74722  0.46225  1.0000
  H   H179      1.0  0.44750  0.77369  0.30572  1.0000
  N   N12       1.0  0.39292  0.73440  0.29955  1.0000
  H   H180      1.0  0.17502  0.72802  0.29755  1.0000
  H   H181      1.0  0.11030  0.73448  0.29784  1.0000
  C   C118      1.0  0.49230  0.71410  0.25948  1.0000
  H   H182      1.0  0.25160  0.99063  0.42385  1.0000
  H   H183      1.0  0.04248  0.74380  0.45961  1.0000
  H   H184      1.0  0.21034  0.99495  0.32877  1.0000
  H   H185      1.0  0.09498  0.64800  0.26876  1.0000
  H   H186      1.0  0.34208  0.68691  0.29764  1.0000
  H   H187      1.0  0.07812  0.66897  0.29534  1.0000
  H   H188      1.0  0.15356  0.68090  0.29508  1.0000
  Fe  Fe25      1.0  0.17185  0.83350  0.62483  1.0000
  S   S49       1.0  0.15492  0.85854  0.66400  1.0000
  S   S50       1.0  0.16735  0.85053  0.57124  1.0000
  Fe  Fe26      1.0  0.19431  0.79786  0.67907  1.0000
  S   S51       1.0  0.17854  0.82033  0.72160  1.0000
  H   H189      1.0  0.42902  0.73571  0.74100  1.0000
  Fe  Fe27      1.0  0.12986  0.80520  0.69161  1.0000
  S   S52       1.0  0.07556  0.78173  0.71787  1.0000
  Fe  Fe28      1.0  0.20459  0.87157  0.68983  1.0000
  S   S53       1.0  0.24874  0.92417  0.70839  1.0000
  S   S54       1.0  0.14391  0.77917  0.65090  1.0000
  S   S55       1.0  0.22313  0.84996  0.64884  1.0000
  C   C119      1.0  0.25263  0.96593  0.69974  1.0000
  C   C120      1.0  0.22349  0.96867  0.69157  1.0000
  H   H190      1.0  0.25728  0.97443  0.54024  1.0000
  H   H191      1.0  0.19755  0.94507  0.69190  1.0000
  H   H192      1.0  0.19192  0.59264  0.70242  1.0000
  C   C121      1.0  0.03426  0.75029  0.66263  1.0000
  C   C122      1.0  0.03514  0.75696  0.69715  1.0000
  H   H193      1.0  0.21426  0.93570  0.54773  1.0000
  H   H194      1.0  0.05867  0.76032  0.64797  1.0000
  H   H195      1.0  0.22705  0.53193  0.71752  1.0000
  H   H196      1.0  0.34097  0.91761  0.74703  1.0000
  C   C123      1.0  0.18298  0.83969  0.53498  1.0000
  C   C124      1.0  0.19552  0.81630  0.53679  1.0000
  H   H197      1.0  0.23709  0.61456  0.71468  1.0000
  H   H198      1.0  0.19672  0.80505  0.56115  1.0000
  H   H199      1.0  0.49156  0.79505  0.58522  1.0000
  H   H200      1.0  0.47449  0.76716  0.69455  1.0000
  H   H201      1.0  0.48975  0.76434  0.55501  1.0000
  C   C125      1.0  0.45605  0.74318  0.74490  1.0000
  H   H202      1.0  0.26820  0.92535  0.61274  1.0000
  H   H203      1.0  0.21520  0.78844  0.50825  1.0000
  H   H204      1.0  0.28094  0.98368  0.63070  1.0000
  H   H205      1.0  0.24002  0.90486  0.57811  1.0000
  H   H206      1.0  0.19107  0.64841  0.70069  1.0000
  H   H207      1.0  0.23688  0.67162  0.71025  1.0000
  H   H208      1.0  0.27565  0.87722  0.70599  1.0000
  C   C126      1.0  0.20926  0.60205  0.72447  1.0000
  H   H209      1.0  0.20603  0.67671  0.73603  1.0000
  N   N13       1.0  0.24514  0.95423  0.59200  1.0000
  H   H210      1.0  0.27580  0.74780  0.69260  1.0000
  S   S56       1.0  0.22408  0.76801  0.68415  1.0000
  C   C127      1.0  0.26534  0.74762  0.71767  1.0000
  H   H211      1.0  0.26885  0.83382  0.71388  1.0000
  C   C128      1.0  0.27204  0.98816  0.60584  1.0000
  H   H212      1.0  0.28318  0.94312  0.57009  1.0000
  C   C129      1.0  0.28595  0.99707  0.70028  1.0000
  H   H213      1.0  0.31249  0.87068  0.70488  1.0000
  N   N14       1.0  0.20381  0.62702  0.74425  1.0000
  H   H214      1.0  0.09332  0.70971  0.50474  1.0000
  C   C130      1.0  0.23950  0.75704  0.72119  1.0000
  C   C131      1.0  0.23688  0.51936  0.73431  1.0000
  C   C132      1.0  0.20588  0.80689  0.50684  1.0000
  C   C133      1.0  0.28695  0.86241  0.71833  1.0000
  C   C134      1.0  0.48195  0.76102  0.71858  1.0000
  C   C135      1.0  0.25985  0.93092  0.58800  1.0000
  C   C136      1.0  0.23446  0.96102  0.55871  1.0000
  C   C137      1.0  0.27774  0.73785  0.74627  1.0000
  C   C138      1.0  0.20967  0.65722  0.72180  1.0000
  H   H215      1.0  0.14773  0.59807  0.73876  1.0000
  H   H216      1.0  0.30864  0.99534  0.70694  1.0000
  H   H217      1.0  0.22030  0.92786  0.63980  1.0000
  C   C139      1.0  0.21403  0.93662  0.61560  1.0000
  H   H218      1.0  0.20374  0.57827  0.74040  1.0000
  H   H219      1.0  0.19197  0.91263  0.60479  1.0000
  H   H220      1.0  0.29773  0.73084  0.74312  1.0000
  H   H221      1.0  0.22282  0.97814  0.56107  1.0000
  H   H222      1.0  0.20400  0.95451  0.62172  1.0000
  H   H223      1.0  0.30326  0.92273  0.74862  1.0000
  H   H224      1.0  0.50065  0.73152  0.60088  1.0000
  H   H225      1.0  0.50268  0.76237  0.63112  1.0000
  H   H226      1.0  0.12442  0.77530  0.50706  1.0000
  H   H227      1.0  0.08251  0.77246  0.50701  1.0000
  C   C140      1.0  0.18158  0.85418  0.50331  1.0000
  H   H228      1.0  0.05155  0.70721  0.50329  1.0000
  H   H229      1.0  0.24406  0.87106  0.76092  1.0000
  S   S57       1.0  0.27581  0.63996  0.84628  1.0000
  S   S58       1.0  0.27960  0.72617  0.81587  1.0000
  C   C141      1.0  0.26951  0.52119  0.78338  1.0000
  Fe  Fe29      1.0  0.30030  0.62410  0.80497  1.0000
  S   S59       1.0  0.26373  0.58071  0.76953  1.0000
  H   H230      1.0  0.38980  0.71580  0.92779  1.0000
  H   H231      1.0  0.46627  0.77126  0.90466  1.0000
  C   C142      1.0  0.26453  0.73756  0.77884  1.0000
  H   H232      1.0  0.34254  0.61660  0.99699  1.0000
  H   H233      1.0  0.28480  0.53488  0.80486  1.0000
  H   H234      1.0  0.48486  0.71357  0.91701  1.0000
  H   H235      1.0  0.39607  0.68090  0.88385  1.0000
  H   H236      1.0  0.45559  0.69215  0.95343  1.0000
  N   N15       1.0  0.43707  0.71494  0.91638  1.0000
  C   C143      1.0  0.45186  0.74568  0.89183  1.0000
  H   H237      1.0  0.22836  0.74699  0.80744  1.0000
  C   C144      1.0  0.41253  0.71705  0.94079  1.0000
  H   H238      1.0  0.31553  0.69242  0.96113  1.0000
  Fe  Fe30      1.0  0.30791  0.69489  0.82157  1.0000
  C   C145      1.0  0.32188  0.68000  0.98162  1.0000
  C   C146      1.0  0.46532  0.73539  0.77628  1.0000
  C   C147      1.0  0.23884  0.74720  0.78237  1.0000
  H   H239      1.0  0.40138  0.69452  0.95999  1.0000
  C   C148      1.0  0.25683  0.53779  0.76207  1.0000
  H   H240      1.0  0.25667  0.65489  0.76184  1.0000
  C   C149      1.0  0.22891  0.64021  0.77193  1.0000
  Fe  Fe31      1.0  0.32333  0.65380  0.87733  1.0000
  H   H241      1.0  0.31849  0.91311  0.78701  1.0000
  C   C150      1.0  0.41789  0.68176  0.89805  1.0000
  H   H242      1.0  0.22583  0.61800  0.78884  1.0000
  S   S60       1.0  0.32764  0.63774  0.93274  1.0000
  C   C151      1.0  0.32852  0.65285  0.97469  1.0000
  H   H243      1.0  0.42572  0.74205  0.95468  1.0000
  S   S61       1.0  0.33116  0.67896  0.77943  1.0000
  Fe  Fe32      1.0  0.37428  0.68913  0.81529  1.0000
  S   S62       1.0  0.34504  0.63305  0.83764  1.0000
  S   S63       1.0  0.43418  0.71401  0.81089  1.0000
  H   H244      1.0  0.22523  0.65861  0.78793  1.0000
  S   S64       1.0  0.35363  0.70992  0.85573  1.0000
  H   H245      1.0  0.25864  0.86078  0.79942  1.0000
  H   H246      1.0  0.30990  0.85269  0.79794  1.0000
  C   C152      1.0  0.46593  0.71515  0.93482  1.0000
  H   H247      1.0  0.40583  0.65789  0.91570  1.0000
  C   C153      1.0  0.33689  0.63730  0.00194  1.0000
  H   H248      1.0  0.43079  0.74594  0.87704  1.0000
  H   H249      1.0  0.47048  0.74489  0.87297  1.0000
  H   H250      1.0  0.43536  0.67927  0.87907  1.0000
  H   H251      1.0  0.48092  0.73978  0.94905  1.0000
  H   H252      1.0  0.16234  0.58591  0.77630  1.0000
  C   C154      1.0  0.25651  0.85656  0.77169  1.0000
  H   H253      1.0  0.29037  0.82023  0.76635  1.0000
  C   C155      1.0  0.50070  0.74546  0.78086  1.0000
  H   H254      1.0  0.23808  0.82777  0.76836  1.0000
  C   C156      1.0  0.31460  0.90726  0.75965  1.0000
  N   N16       1.0  0.29129  0.86885  0.75497  1.0000
  C   C157      1.0  0.30699  0.84920  0.77012  1.0000
  H   H255      1.0  0.16253  0.62688  0.77387  1.0000
  H   H256      1.0  0.33347  0.85814  0.75843  1.0000
  H   H257      1.0  0.20589  0.76320  0.75686  1.0000
  C   C158      1.0  0.16743  0.60861  0.75891  1.0000
  C   C159      1.0  0.22624  0.75670  0.75375  1.0000
  Fe  Fe33      1.0  0.62579  0.31643  0.18334  1.0000
  S   S65       1.0  0.56871  0.30307  0.19057  1.0000
  S   S66       1.0  0.64282  0.28530  0.15199  1.0000
  H   H258      1.0  0.63243  0.32117  0.04619  1.0000
  C   C160      1.0  0.65031  0.32655  0.02473  1.0000
  C   C161      1.0  0.53937  0.28263  0.22639  1.0000
  C   C162      1.0  0.75296  0.27807  0.23906  1.0000
  C   C163      1.0  0.71523  0.21467  0.24839  1.0000
  H   H259      1.0  0.68995  0.19072  0.24598  1.0000
  H   H260      1.0  0.66444  0.40402  0.22436  1.0000
  S   S67       1.0  0.66534  0.36924  0.15735  1.0000
  C   C164      1.0  0.72965  0.47731  0.22416  1.0000
  S   S68       1.0  0.66068  0.32197  0.22600  1.0000
  H   H261      1.0  0.63011  0.41281  0.21452  1.0000
  Fe  Fe34      1.0  0.68454  0.33824  0.12828  1.0000
  S   S69       1.0  0.72412  0.34587  0.16822  1.0000
  S   S70       1.0  0.68418  0.24811  0.21710  1.0000
  Fe  Fe35      1.0  0.70149  0.37290  0.19866  1.0000
  Fe  Fe36      1.0  0.68119  0.29485  0.19341  1.0000
  C   C165      1.0  0.63595  0.39427  0.22867  1.0000
  H   H262      1.0  0.90151  0.27187  0.21113  1.0000
  C   C166      1.0  0.68603  0.33968  0.03025  1.0000
  S   S71       1.0  0.70428  0.34939  0.07169  1.0000
  H   H263      1.0  0.71490  0.46497  0.20199  1.0000
  S   S72       1.0  0.73447  0.41683  0.23530  1.0000
  H   H264      1.0  0.95245  0.27047  0.23475  1.0000
  C   C167      1.0  0.74235  0.45976  0.24414  1.0000
  H   H265      1.0  0.75711  0.30335  0.22966  1.0000
  C   C168      1.0  0.72007  0.24733  0.23597  1.0000
  H   H266      1.0  0.95611  0.32848  0.22305  1.0000
  H   H267      1.0  0.62100  0.36809  0.21694  1.0000
  H   H268      1.0  0.73624  0.35629  0.00545  1.0000
  C   C169      1.0  0.89215  0.27118  0.23765  1.0000
  H   H269      1.0  0.87601  0.28402  0.23743  1.0000
  H   H270      1.0  0.87389  0.24287  0.24571  1.0000
  H   H271      1.0  0.93046  0.34066  0.24897  1.0000
  C   C170      1.0  0.94503  0.32620  0.24919  1.0000
  H   H272      1.0  0.61969  0.33959  0.27284  1.0000
  H   H273      1.0  0.66362  0.37570  0.27890  1.0000
  H   H274      1.0  0.63975  0.42573  0.30713  1.0000
  H   H275      1.0  0.89036  0.25905  0.30485  1.0000
  H   H276      1.0  0.80593  0.30004  0.25619  1.0000
  H   H277      1.0  0.53402  0.25114  0.30764  1.0000
  C   C171      1.0  0.52576  0.25815  0.28454  1.0000
  C   C172      1.0  0.90785  0.28697  0.29548  1.0000
  H   H278      1.0  0.77703  0.00719  0.26815  1.0000
  H   H279      1.0  0.79796  0.24761  0.36194  1.0000
  C   C173      1.0  0.84530  0.21983  0.49491  1.0000
  H   H280      1.0  0.74045  0.16889  0.37519  1.0000
  H   H281      1.0  0.64199  0.44641  0.26637  1.0000
  H   H282      1.0  0.89193  0.29999  0.29658  1.0000
  C   C174      1.0  0.78077  0.15605  0.49909  1.0000
  Fe  Fe37      1.0  0.81671  0.12808  0.31864  1.0000
  S   S73       1.0  0.77694  0.14332  0.33299  1.0000
  S   S74       1.0  0.80063  0.07701  0.29171  1.0000
  Fe  Fe38      1.0  0.87924  0.19703  0.34243  1.0000
  S   S75       1.0  0.84330  0.21591  0.35998  1.0000
  S   S76       1.0  0.93610  0.24024  0.35111  1.0000
  Fe  Fe39      1.0  0.80719  0.16096  0.38086  1.0000
  S   S77       1.0  0.77560  0.14955  0.43017  1.0000
  Fe  Fe40      1.0  0.81608  0.19781  0.31089  1.0000
  S   S78       1.0  0.81178  0.24275  0.28521  1.0000
  S   S79       1.0  0.84491  0.14267  0.36798  1.0000
  S   S80       1.0  0.85388  0.18148  0.29209  1.0000
  H   H283      1.0  0.78792  0.26279  0.39991  1.0000
  H   H284      1.0  0.75119  0.25054  0.33212  1.0000
  H   H285      1.0  0.69307  0.19280  0.40497  1.0000
  C   C175      1.0  0.79729  0.17056  0.46713  1.0000
  H   H286      1.0  0.72759  0.19085  0.42642  1.0000
  C   C176      1.0  0.82986  0.20230  0.46514  1.0000
  H   H287      1.0  0.58001  0.37430  0.29692  1.0000
  H   H288      1.0  0.84277  0.21376  0.44066  1.0000
  N   N17       1.0  0.74324  0.21899  0.37782  1.0000
  C   C177      1.0  0.97688  0.24849  0.33352  1.0000
  C   C178      1.0  0.97952  0.22514  0.31201  1.0000
  H   H289      1.0  0.62919  0.36443  0.31047  1.0000
  H   H290      1.0  0.95594  0.20124  0.30500  1.0000
  H   H291      1.0  0.70695  0.22763  0.34950  1.0000
  C   C179      1.0  0.77569  0.03429  0.31231  1.0000
  C   C180      1.0  0.76373  0.02989  0.34616  1.0000
  H   H292      1.0  0.72703  0.23146  0.42454  1.0000
  C   C181      1.0  0.73533  0.18710  0.35940  1.0000
  C   C182      1.0  0.78097  0.23875  0.38561  1.0000
  H   H293      1.0  0.74063  0.26619  0.36944  1.0000
  C   C183      1.0  0.64678  0.42671  0.27973  1.0000
  N   N18       1.0  0.62654  0.39136  0.26522  1.0000
  H   H294      1.0  0.77171  0.46321  0.28834  1.0000
  H   H295      1.0  0.98994  0.21198  0.42300  1.0000
  H   H296      1.0  0.70729  0.17187  0.35229  1.0000
  C   C184      1.0  0.72173  0.20809  0.40984  1.0000
  H   H297      1.0  0.76980  0.05291  0.36040  1.0000
  N   N19       1.0  0.92178  0.28868  0.26071  1.0000
  H   H298      1.0  0.75182  0.19435  0.33554  1.0000
  H   H299      1.0  0.78807  0.22199  0.40136  1.0000
  C   C185      1.0  0.73510  0.24185  0.35638  1.0000
  H   H300      1.0  0.92935  0.29961  0.31377  1.0000
  H   H301      1.0  0.96756  0.34019  0.26619  1.0000
  C   C186      1.0  0.76184  0.47656  0.27264  1.0000
  C   C187      1.0  0.58836  0.37763  0.26962  1.0000
  H   H302      1.0  0.67564  0.43716  0.27757  1.0000
  C   C188      1.0  0.74291  0.21263  0.26338  1.0000
  C   C189      1.0  0.76758  0.00399  0.29425  1.0000
  H   H303      1.0  0.87003  0.24483  0.49311  1.0000
  C   C190      1.0  0.54956  0.27303  0.25626  1.0000
  C   C191      1.0  0.63513  0.36670  0.28269  1.0000
  H   H304      1.0  0.92564  0.24234  0.27020  1.0000
  H   H305      1.0  0.96493  0.28339  0.27745  1.0000
  C   C192      1.0  0.77586  0.24336  0.26622  1.0000
  H   H306      1.0  0.75553  0.13156  0.50079  1.0000
  H   H307      1.0  0.57577  0.27711  0.25759  1.0000
  H   H308      1.0  0.73881  0.18722  0.27221  1.0000
  C   C193      1.0  0.94209  0.27047  0.26065  1.0000
  H   H309      1.0  0.58099  0.39573  0.25696  1.0000
  H   H310      1.0  0.57253  0.35123  0.25829  1.0000
  C   C194      1.0  0.78063  0.27605  0.25411  1.0000
  H   H311      1.0  0.00485  0.21783  0.37943  1.0000
  H   H312      1.0  0.70816  0.47193  0.65296  1.0000
  H   H313      1.0  0.60924  0.25042  0.67470  1.0000
  H   H314      1.0  0.95852  0.29757  0.60337  1.0000
  H   H315      1.0  0.56977  0.17424  0.73812  1.0000
  H   H316      1.0  0.71856  0.15206  0.72807  1.0000
  C   C195      1.0  0.59762  0.26199  0.73843  1.0000
  H   H317      1.0  0.52911  0.30986  0.71050  1.0000
  C   C196      1.0  0.60649  0.23035  0.69432  1.0000
  C   C197      1.0  0.76984  0.24075  0.74070  1.0000
  N   N20       1.0  0.58299  0.22722  0.72303  1.0000
  H   H318      1.0  0.59639  0.20463  0.68196  1.0000
  H   H319      1.0  0.98655  0.24825  0.60888  1.0000
  H   H320      1.0  0.96828  0.29629  0.54050  1.0000
  H   H321      1.0  0.91323  0.26544  0.59674  1.0000
  H   H322      1.0  0.76242  0.09957  0.73905  1.0000
  Fe  Fe41      1.0  0.79340  0.13280  0.66087  1.0000
  S   S81       1.0  0.78212  0.17624  0.64687  1.0000
  S   S82       1.0  0.74444  0.07726  0.66311  1.0000
  Fe  Fe42      1.0  0.87242  0.18653  0.66955  1.0000
  S   S83       1.0  0.86574  0.23288  0.65820  1.0000
  S   S84       1.0  0.92532  0.18988  0.67504  1.0000
  Fe  Fe43      1.0  0.81565  0.20416  0.69075  1.0000
  H   H323      1.0  0.75385  0.01357  0.56794  1.0000
  Fe  Fe44      1.0  0.83277  0.20069  0.61550  1.0000
  S   S85       1.0  0.84831  0.22887  0.56347  1.0000
  S   S86       1.0  0.82514  0.15987  0.70594  1.0000
  S   S87       1.0  0.84118  0.15521  0.62560  1.0000
  C   C198      1.0  0.71350  0.23510  0.72818  1.0000
  C   C199      1.0  0.96736  0.22859  0.67890  1.0000
  C   C200      1.0  0.93926  0.26865  0.60219  1.0000
  C   C201      1.0  0.71163  0.49790  0.64427  1.0000
  H   H324      1.0  0.94817  0.26347  0.69012  1.0000
  C   C202      1.0  0.74041  0.22782  0.72050  1.0000
  H   H325      1.0  0.70690  0.11087  0.70863  1.0000
  C   C203      1.0  0.79667  0.17309  0.52892  1.0000
  C   C204      1.0  0.82876  0.20530  0.52687  1.0000
  C   C205      1.0  0.76862  0.03361  0.68720  1.0000
  H   H326      1.0  0.78365  0.16177  0.55342  1.0000
  H   H327      1.0  0.75203  0.14486  0.71146  1.0000
  H   H328      1.0  0.89790  0.20693  0.57292  1.0000
  C   C206      1.0  0.74092  0.03596  0.67352  1.0000
  H   H329      1.0  0.59818  0.28236  0.72056  1.0000
  H   H330      1.0  0.79342  0.05756  0.69137  1.0000
  H   H331      1.0  0.62498  0.27212  0.74631  1.0000
  H   H332      1.0  0.00541  0.28835  0.58296  1.0000
  H   H333      1.0  0.68745  0.49260  0.63116  1.0000
  H   H334      1.0  0.95801  0.25513  0.52216  1.0000
  C   C207      1.0  0.95003  0.26703  0.54236  1.0000
  H   H335      1.0  0.92320  0.26175  0.53659  1.0000
  C   C208      1.0  0.98590  0.25934  0.58334  1.0000
  H   H336      1.0  0.63348  0.23887  0.70298  1.0000
  H   H337      1.0  0.54819  0.23585  0.69217  1.0000
  C   C209      1.0  0.51681  0.28685  0.72789  1.0000
  H   H338      1.0  0.93244  0.19987  0.55871  1.0000
  C   C210      1.0  0.97127  0.26142  0.68586  1.0000
  S   S88       1.0  0.80332  0.23016  0.73410  1.0000
  H   H339      1.0  0.73827  0.21205  0.69914  1.0000
  H   H340      1.0  0.73761  0.47245  0.59799  1.0000
  H   H341      1.0  0.69067  0.22454  0.71266  1.0000
  H   H342      1.0  0.93679  0.25631  0.62784  1.0000
  H   H343      1.0  0.99503  0.20103  0.66902  1.0000
  C   C211      1.0  0.92519  0.21334  0.57783  1.0000
  N   N21       1.0  0.95014  0.25210  0.57639  1.0000
  C   C212      1.0  0.70883  0.00452  0.66850  1.0000
  H   H344      1.0  0.92440  0.20119  0.60325  1.0000
  C   C213      1.0  0.99775  0.22636  0.67416  1.0000
  C   C214      1.0  0.58057  0.20086  0.74878  1.0000
  C   C215      1.0  0.54751  0.21595  0.71081  1.0000
  C   C216      1.0  0.72605  0.13163  0.72523  1.0000
  H   H345      1.0  0.68713  0.00605  0.65820  1.0000
  H   H346      1.0  0.52911  0.21284  0.73206  1.0000
  H   H347      1.0  0.53579  0.19009  0.69841  1.0000
  C   C217      1.0  0.73673  0.08868  0.75323  1.0000
  H   H348      1.0  0.99510  0.24728  0.56445  1.0000
  H   H349      1.0  0.71677  0.06695  0.73795  1.0000
  H   H350      1.0  0.71702  0.49350  0.57671  1.0000
  C   C218      1.0  0.00518  0.29165  0.68781  1.0000
  C   C219      1.0  0.76407  0.00009  0.69593  1.0000
  H   H351      1.0  0.77264  0.49914  0.64887  1.0000
  C   C220      1.0  0.74035  0.49855  0.59129  1.0000
  H   H352      1.0  0.78088  0.00016  0.54622  1.0000
  Fe  Fe45      1.0  0.62177  0.32751  0.79551  1.0000
  S   S89       1.0  0.64270  0.32111  0.92103  1.0000
  N   N22       1.0  0.72780  0.11640  0.75848  1.0000
  Fe  Fe46      1.0  0.65668  0.32733  0.86325  1.0000
  S   S90       1.0  0.64983  0.36852  0.83446  1.0000
  S   S91       1.0  0.62453  0.28502  0.82589  1.0000
  H   H353      1.0  0.67444  0.40964  0.89553  1.0000
  C   C221      1.0  0.63766  0.32073  0.99136  1.0000
  H   H354      1.0  0.53143  0.25565  0.80181  1.0000
  H   H355      1.0  0.69325  0.40210  0.95089  1.0000
  H   H356      1.0  0.79484  0.27173  0.78397  1.0000
  C   C222      1.0  0.66025  0.32751  0.96280  1.0000
  C   C223      1.0  0.75508  0.14482  0.77854  1.0000
  H   H357      1.0  0.74189  0.41185  0.86898  1.0000
  H   H358      1.0  0.75438  0.40470  0.91017  1.0000
  C   C224      1.0  0.77225  0.26160  0.76812  1.0000
  S   S92       1.0  0.67192  0.34486  0.76499  1.0000
  C   C225      1.0  0.51832  0.25635  0.77917  1.0000
  S   S93       1.0  0.70835  0.34270  0.83607  1.0000
  Fe  Fe47      1.0  0.69997  0.38242  0.80607  1.0000
  S   S94       1.0  0.74632  0.43948  0.79850  1.0000
  C   C226      1.0  0.73372  0.40673  0.89641  1.0000
  C   C227      1.0  0.69589  0.34010  0.96836  1.0000
  C   C228      1.0  0.71598  0.25607  0.75557  1.0000
  C   C229      1.0  0.69325  0.10056  0.77679  1.0000
  H   H359      1.0  0.78157  0.15729  0.76556  1.0000
  H   H360      1.0  0.74798  0.28549  0.79661  1.0000
  H   H361      1.0  0.74960  0.16664  0.78215  1.0000
  C   C230      1.0  0.69979  0.43532  0.89133  1.0000
  C   C231      1.0  0.76135  0.46949  0.90403  1.0000
  H   H362      1.0  0.68587  0.12088  0.78125  1.0000
  H   H363      1.0  0.75699  0.13459  0.80402  1.0000
  N   N23       1.0  0.72841  0.43483  0.90957  1.0000
  H   H364      1.0  0.71367  0.34476  0.94708  1.0000
  H   H365      1.0  0.76911  0.47542  0.87646  1.0000
  H   H366      1.0  0.69147  0.44966  0.76923  1.0000
  H   H367      1.0  0.70909  0.38035  0.89917  1.0000
  H   H368      1.0  0.70585  0.43980  0.86342  1.0000
  H   H369      1.0  0.69541  0.45663  0.90007  1.0000
  H   H370      1.0  0.71549  0.44878  0.95732  1.0000
  C   C232      1.0  0.71870  0.42759  0.94623  1.0000
  C   C233      1.0  0.74759  0.47422  0.77293  1.0000
  S   S95       1.0  0.68024  0.26269  0.76501  1.0000
  C   C234      1.0  0.74572  0.26954  0.77534  1.0000
  H   H371      1.0  0.61004  0.31089  0.98769  1.0000
  H   H372      1.0  0.73886  0.42533  0.96074  1.0000
  H   H373      1.0  0.56328  0.19815  0.77095  1.0000
  Fe  Fe48      1.0  0.67607  0.30373  0.79662  1.0000
  C   C235      1.0  0.70864  0.34645  0.00167  1.0000
  C   C236      1.0  0.71688  0.47289  0.76258  1.0000
  S   S96       1.0  0.57682  0.32361  0.76416  1.0000
  H   H374      1.0  0.73854  0.07664  0.77772  1.0000
  H   H375      1.0  0.69356  0.08863  0.80197  1.0000
  H   H376      1.0  0.60695  0.20887  0.75871  1.0000
  H   H377      1.0  0.58196  0.26023  0.76150  1.0000
  H   H378      1.0  0.78352  0.46987  0.91728  1.0000
  H   H379      1.0  0.75841  0.49146  0.91352  1.0000
  C   C237      1.0  0.53464  0.28623  0.75685  1.0000
  H   H380      1.0  0.67206  0.07926  0.76214  1.0000
  C   C238      1.0  0.83510  0.61708  0.21025  1.0000
  H   H381      1.0  0.81176  0.59412  0.19935  1.0000
  H   H382      1.0  0.88903  0.62617  0.16983  1.0000
  H   H383      1.0  0.82504  0.55290  0.22894  1.0000
  C   C239      1.0  0.87665  0.60223  0.18739  1.0000
  N   N24       1.0  0.86236  0.60849  0.21882  1.0000
  H   H384      1.0  0.85549  0.57993  0.17357  1.0000
  C   C240      1.0  0.73644  0.51121  0.23268  1.0000
  C   C241      1.0  0.89100  0.63843  0.23630  1.0000
  H   H385      1.0  0.72666  0.52462  0.21694  1.0000
  H   H386      1.0  0.89702  0.59530  0.19300  1.0000
  H   H387      1.0  0.90336  0.66349  0.22032  1.0000
  H   H388      1.0  0.84545  0.64013  0.19176  1.0000
  H   H389      1.0  0.64798  0.90874  0.21601  1.0000
  C   C242      1.0  0.84659  0.57617  0.24138  1.0000
  H   H390      1.0  0.86641  0.56915  0.24900  1.0000
  H   H391      1.0  0.66981  0.97020  0.23558  1.0000
  H   H392      1.0  0.67700  0.90415  0.24423  1.0000
  H   H393      1.0  0.91212  0.63307  0.24335  1.0000
  H   H394      1.0  0.82527  0.62401  0.23317  1.0000
  H   H395      1.0  0.60593  0.92543  0.23862  1.0000
  C   C243      1.0  0.65045  0.90098  0.24243  1.0000
  H   H396      1.0  0.51684  0.81141  0.24289  1.0000
  H   H397      1.0  0.63072  0.87215  0.24666  1.0000
  C   C244      1.0  0.50997  0.78422  0.24780  1.0000
  S   S97       1.0  0.61731  0.76509  0.33568  1.0000
  S   S98       1.0  0.62473  0.83715  0.36520  1.0000
  Fe  Fe49      1.0  0.63387  0.79421  0.38416  1.0000
  Fe  Fe50      1.0  0.61309  0.81094  0.31499  1.0000
  S   S99       1.0  0.57095  0.81324  0.28367  1.0000
  C   C245      1.0  0.62904  0.79233  0.47033  1.0000
  S   S100      1.0  0.61677  0.76483  0.43540  1.0000
  C   C246      1.0  0.63867  0.82790  0.46606  1.0000
  H   H398      1.0  0.86079  0.77273  0.30390  1.0000
  C   C247      1.0  0.83654  0.61335  0.49812  1.0000
  H   H399      1.0  0.63945  0.83904  0.44103  1.0000
  C   C248      1.0  0.78471  0.63145  0.49540  1.0000
  C   C249      1.0  0.76859  0.51040  0.28117  1.0000
  H   H400      1.0  0.68256  0.76666  0.42868  1.0000
  H   H401      1.0  0.00302  0.69578  0.37627  1.0000
  H   H402      1.0  0.87698  0.75997  0.37630  1.0000
  C   C250      1.0  0.65148  0.71571  0.38357  1.0000
  C   C251      1.0  0.60950  0.91706  0.26439  1.0000
  H   H403      1.0  0.66921  0.73099  0.36130  1.0000
  C   C252      1.0  0.69659  0.75254  0.42190  1.0000
  H   H404      1.0  0.58876  0.88855  0.26894  1.0000
  H   H405      1.0  0.90773  0.80565  0.38399  1.0000
  H   H406      1.0  0.70897  0.71088  0.38148  1.0000
  C   C253      1.0  0.75601  0.52801  0.26116  1.0000
  C   C254      1.0  0.64708  0.69636  0.44230  1.0000
  H   H407      1.0  0.71528  0.76800  0.40033  1.0000
  H   H408      1.0  0.63300  0.68839  0.37548  1.0000
  C   C255      1.0  0.64843  0.91085  0.30202  1.0000
  H   H409      1.0  0.83486  0.57968  0.26503  1.0000
  H   H410      1.0  0.95547  0.80034  0.35500  1.0000
  H   H411      1.0  0.63565  0.72809  0.38953  1.0000
  H   H412      1.0  0.67318  0.66960  0.39840  1.0000
  H   H413      1.0  0.89516  0.76856  0.28314  1.0000
  Fe  Fe51      1.0  0.67509  0.79798  0.32059  1.0000
  H   H414      1.0  0.66140  0.69568  0.46494  1.0000
  H   H415      1.0  0.63205  0.70933  0.44964  1.0000
  N   N25       1.0  0.67162  0.71560  0.41301  1.0000
  S   S101      1.0  0.67003  0.84240  0.29611  1.0000
  H   H416      1.0  0.86934  0.73909  0.31800  1.0000
  H   H417      1.0  0.71236  0.75357  0.44394  1.0000
  H   H418      1.0  0.64629  0.92731  0.32175  1.0000
  Fe  Fe52      1.0  0.81127  0.67701  0.34418  1.0000
  S   S102      1.0  0.77969  0.61858  0.35929  1.0000
  S   S103      1.0  0.80122  0.72161  0.35699  1.0000
  Fe  Fe53      1.0  0.87541  0.67294  0.31865  1.0000
  S   S104      1.0  0.84888  0.61427  0.33075  1.0000
  S   S105      1.0  0.92916  0.71001  0.29258  1.0000
  Fe  Fe54      1.0  0.79999  0.60999  0.30952  1.0000
  H   H419      1.0  0.78352  0.52280  0.30325  1.0000
  Fe  Fe55      1.0  0.83042  0.62650  0.37945  1.0000
  S   S106      1.0  0.83908  0.60619  0.42937  1.0000
  S   S107      1.0  0.82815  0.66821  0.29318  1.0000
  S   S108      1.0  0.86038  0.68512  0.36856  1.0000
  C   C256      1.0  0.53227  0.77714  0.26722  1.0000
  H   H420      1.0  0.86779  0.79325  0.36228  1.0000
  C   C257      1.0  0.88226  0.76701  0.30813  1.0000
  S   S109      1.0  0.71121  0.92300  0.36519  1.0000
  C   C258      1.0  0.00154  0.74797  0.29631  1.0000
  H   H421      1.0  0.92429  0.75479  0.34744  1.0000
  C   C259      1.0  0.73592  0.96533  0.34378  1.0000
  C   C260      1.0  0.74783  0.96966  0.30988  1.0000
  H   H422      1.0  0.65291  0.87623  0.49088  1.0000
  H   H423      1.0  0.74241  0.94669  0.29592  1.0000
  H   H424      1.0  0.74980  0.79732  0.34724  1.0000
  H   H425      1.0  0.70793  0.69842  0.42535  1.0000
  C   C261      1.0  0.00280  0.71066  0.35405  1.0000
  H   H426      1.0  0.78969  0.77849  0.37091  1.0000
  C   C262      1.0  0.96949  0.72079  0.31140  1.0000
  C   C263      1.0  0.97030  0.70242  0.34057  1.0000
  C   C264      1.0  0.93557  0.78250  0.33708  1.0000
  H   H427      1.0  0.94590  0.68143  0.35248  1.0000
  Fe  Fe56      1.0  0.68179  0.86610  0.34763  1.0000
  C   C265      1.0  0.82366  0.61604  0.46658  1.0000
  C   C266      1.0  0.79799  0.62553  0.46528  1.0000
  C   C267      1.0  0.64639  0.84898  0.49436  1.0000
  H   H428      1.0  0.78784  0.62757  0.44113  1.0000
  H   H429      1.0  0.62751  0.66852  0.43642  1.0000
  C   C268      1.0  0.77266  0.73417  0.33865  1.0000
  C   C269      1.0  0.75022  0.71548  0.31273  1.0000
  C   C270      1.0  0.72759  0.72623  0.29944  1.0000
  C   C271      1.0  0.72685  0.75545  0.31211  1.0000
  C   C272      1.0  0.74949  0.77428  0.33786  1.0000
  C   C273      1.0  0.77231  0.76372  0.35099  1.0000
  H   H430      1.0  0.75023  0.69275  0.30293  1.0000
  C   C274      1.0  0.92395  0.82825  0.31846  1.0000
  H   H431      1.0  0.67433  0.91290  0.30476  1.0000
  N   N26       1.0  0.90783  0.79134  0.33222  1.0000
  N   N27       1.0  0.64510  0.92235  0.26747  1.0000
  S   S110      1.0  0.69159  0.82430  0.37033  1.0000
  H   H432      1.0  0.54002  0.73590  0.28778  1.0000
  H   H433      1.0  0.00125  0.76237  0.27374  1.0000
  H   H434      1.0  0.71039  0.71169  0.27930  1.0000
  C   C275      1.0  0.88943  0.78754  0.36515  1.0000
  H   H435      1.0  0.76433  0.63808  0.49427  1.0000
  S   S111      1.0  0.69770  0.76775  0.29469  1.0000
  H   H436      1.0  0.94967  0.78455  0.31265  1.0000
  H   H437      1.0  0.66951  0.97711  0.28033  1.0000
  C   C276      1.0  0.69126  0.69783  0.40428  1.0000
  C   C277      1.0  0.52317  0.74185  0.27302  1.0000
  H   H438      1.0  0.60447  0.93249  0.28322  1.0000
  H   H439      1.0  0.94341  0.84739  0.33597  1.0000
  H   H440      1.0  0.62767  0.88275  0.30808  1.0000
  S   S112      1.0  0.76503  0.57138  0.26980  1.0000
  H   H441      1.0  0.85644  0.60607  0.49922  1.0000
  H   H442      1.0  0.73515  0.99261  0.38804  1.0000
  H   H443      1.0  0.69908  0.96492  0.26262  1.0000
  C   C278      1.0  0.67196  0.96029  0.26116  1.0000
  H   H444      1.0  0.88098  0.64363  0.26019  1.0000
  C   C279      1.0  0.74406  0.99562  0.36177  1.0000
  C   C280      1.0  0.62839  0.77830  0.50294  1.0000
  H   H445      1.0  0.90362  0.83565  0.31449  1.0000
  H   H446      1.0  0.93794  0.83194  0.29355  1.0000
  C   C281      1.0  0.55631  0.77930  0.56148  1.0000
  H   H447      1.0  0.54372  0.82679  0.62073  1.0000
  N   N28       1.0  0.74350  0.51847  0.62189  1.0000
  H   H448      1.0  0.63675  0.78879  0.55623  1.0000
  H   H449      1.0  0.70399  0.60570  0.70148  1.0000
  H   H450      1.0  0.57709  0.77692  0.57461  1.0000
  H   H451      1.0  0.90806  0.81642  0.70126  1.0000
  H   H452      1.0  0.56991  0.80105  0.54157  1.0000
  C   C282      1.0  0.74731  0.55292  0.61162  1.0000
  H   H453      1.0  0.71321  0.51249  0.66744  1.0000
  H   H454      1.0  0.74955  0.56866  0.63404  1.0000
  H   H455      1.0  0.88644  0.75261  0.70061  1.0000
  H   H456      1.0  0.77807  0.53976  0.66352  1.0000
  C   C283      1.0  0.91772  0.79178  0.64313  1.0000
  H   H457      1.0  0.68563  0.93989  0.56997  1.0000
  H   H458      1.0  0.76717  0.93774  0.55336  1.0000
  S   S113      1.0  0.65216  0.86151  0.56193  1.0000
  H   H459      1.0  0.93186  0.81758  0.62838  1.0000
  H   H460      1.0  0.75334  0.94667  0.62798  1.0000
  C   C284      1.0  0.64533  0.83491  0.52700  1.0000
  S   S114      1.0  0.54872  0.79398  0.68902  1.0000
  S   S115      1.0  0.61989  0.78747  0.63873  1.0000
  Fe  Fe57      1.0  0.65328  0.84201  0.61516  1.0000
  H   H461      1.0  0.71349  0.69134  0.72588  1.0000
  C   C285      1.0  0.63708  0.79971  0.53120  1.0000
  Fe  Fe58      1.0  0.60741  0.81318  0.68091  1.0000
  H   H462      1.0  0.98739  0.82741  0.65518  1.0000
  S   S116      1.0  0.63842  0.86760  0.65516  1.0000
  S   S117      1.0  0.65357  0.82117  0.71156  1.0000
  H   H463      1.0  0.51973  0.81117  0.54750  1.0000
  S   S118      1.0  0.70249  0.85191  0.63990  1.0000
  N   N29       1.0  0.53523  0.78663  0.58573  1.0000
  S   S119      1.0  0.72787  0.92702  0.70104  1.0000
  Fe  Fe59      1.0  0.80765  0.64806  0.61306  1.0000
  S   S120      1.0  0.85154  0.70197  0.62543  1.0000
  S   S121      1.0  0.77881  0.63465  0.56414  1.0000
  Fe  Fe60      1.0  0.79797  0.61823  0.68629  1.0000
  Fe  Fe61      1.0  0.81914  0.69636  0.67204  1.0000
  S   S122      1.0  0.81615  0.74365  0.68964  1.0000
  Fe  Fe62      1.0  0.87177  0.67286  0.65656  1.0000
  S   S123      1.0  0.92969  0.69236  0.64420  1.0000
  S   S124      1.0  0.77373  0.64472  0.65738  1.0000
  S   S125      1.0  0.82947  0.61865  0.64054  1.0000
  C   C286      1.0  0.96966  0.71683  0.66571  1.0000
  N   N30       1.0  0.74020  0.95980  0.57961  1.0000
  C   C287      1.0  0.97046  0.72363  0.70022  1.0000
  S   S126      1.0  0.67833  0.75274  0.66737  1.0000
  H   H464      1.0  0.94609  0.71290  0.71506  1.0000
  C   C288      1.0  0.73205  0.96863  0.69060  1.0000
  C   C289      1.0  0.70391  0.94849  0.59137  1.0000
  C   C290      1.0  0.70446  0.97105  0.67676  1.0000
  H   H465      1.0  0.92601  0.75916  0.71929  1.0000
  C   C291      1.0  0.71841  0.75298  0.67127  1.0000
  C   C292      1.0  0.74695  0.77907  0.68846  1.0000
  C   C293      1.0  0.77694  0.77623  0.69354  1.0000
  C   C294      1.0  0.77897  0.74765  0.68104  1.0000
  C   C295      1.0  0.75090  0.72218  0.66298  1.0000
  C   C296      1.0  0.72064  0.72457  0.65858  1.0000
  H   H466      1.0  0.72441  0.54953  0.59730  1.0000
  H   H467      1.0  0.75240  0.70056  0.65245  1.0000
  S   S127      1.0  0.84180  0.67039  0.70469  1.0000
  H   H468      1.0  0.94756  0.82361  0.72066  1.0000
  C   C297      1.0  0.79764  0.62889  0.52691  1.0000
  C   C298      1.0  0.82389  0.62019  0.52822  1.0000
  C   C299      1.0  0.75354  0.99089  0.55566  1.0000
  H   H469      1.0  0.83404  0.61816  0.55237  1.0000
  H   H470      1.0  0.72982  0.90635  0.57969  1.0000
  C   C300      1.0  0.71896  0.50215  0.74451  1.0000
  C   C301      1.0  0.91390  0.75914  0.69481  1.0000
  H   H471      1.0  0.76191  0.67911  0.71931  1.0000
  H   H472      1.0  0.78557  0.99851  0.70671  1.0000
  Fe  Fe63      1.0  0.66819  0.79889  0.66726  1.0000
  C   C302      1.0  0.00306  0.74364  0.71581  1.0000
  H   H473      1.0  0.67956  0.94714  0.67291  1.0000
  C   C303      1.0  0.75172  0.53281  0.73597  1.0000
  C   C304      1.0  0.74021  0.93037  0.56239  1.0000
  C   C305      1.0  0.93522  0.82172  0.69585  1.0000
  H   H474      1.0  0.72314  0.92234  0.54003  1.0000
  H   H475      1.0  0.91234  0.73723  0.68007  1.0000
  N   N31       1.0  0.93447  0.79354  0.67568  1.0000
  H   H476      1.0  0.57219  0.84302  0.58288  1.0000
  N   N32       1.0  0.71012  0.64195  0.73996  1.0000
  H   H477      1.0  0.91764  0.77138  0.62694  1.0000
  H   H478      1.0  0.74552  0.80094  0.69857  1.0000
  C   C306      1.0  0.77477  0.52457  0.64038  1.0000
  H   H479      1.0  0.97101  0.78080  0.65312  1.0000
  S   S128      1.0  0.75250  0.56942  0.71447  1.0000
  H   H480      1.0  0.79851  0.79617  0.70747  1.0000
  H   H481      1.0  0.69883  0.70438  0.64507  1.0000
  H   H482      1.0  0.76382  0.99176  0.62249  1.0000
  C   C307      1.0  0.51734  0.77109  0.72315  1.0000
  H   H483      1.0  0.70272  0.97029  0.60378  1.0000
  H   H484      1.0  0.76398  0.51362  0.57382  1.0000
  C   C308      1.0  0.55852  0.82042  0.60191  1.0000
  C   C309      1.0  0.74878  0.65821  0.73993  1.0000
  H   H485      1.0  0.80789  0.55716  0.73925  1.0000
  H   H486      1.0  0.73676  0.98450  0.53318  1.0000
  H   H487      1.0  0.57929  0.81904  0.61596  1.0000
  H   H488      1.0  0.69342  0.92564  0.61013  1.0000
  C   C310      1.0  0.97079  0.80129  0.66895  1.0000
  H   H489      1.0  0.95048  0.84813  0.68223  1.0000
  H   H490      1.0  0.79057  0.97768  0.60139  1.0000
  H   H491      1.0  0.70865  0.64673  0.68571  1.0000
  H   H492      1.0  0.79937  0.53995  0.62429  1.0000
  H   H493      1.0  0.77119  0.56926  0.59479  1.0000
  H   H494      1.0  0.88978  0.78464  0.64726  1.0000
  Fe  Fe64      1.0  0.68522  0.87398  0.68187  1.0000
  C   C311      1.0  0.78248  0.53378  0.74548  1.0000
  H   H495      1.0  0.53848  0.75484  0.62639  1.0000
  C   C312      1.0  0.00172  0.73029  0.64708  1.0000
  H   H496      1.0  0.69495  0.50107  0.73742  1.0000
  H   H497      1.0  0.00142  0.72513  0.62040  1.0000
  H   H498      1.0  0.67206  0.65836  0.74529  1.0000
  H   H499      1.0  0.98392  0.80161  0.69289  1.0000
  H   H500      1.0  0.53977  0.75415  0.54848  1.0000
  H   H501      1.0  0.66794  0.61342  0.70606  1.0000
  H   H502      1.0  0.62121  0.75085  0.50636  1.0000
  H   H503      1.0  0.75665  0.63817  0.73601  1.0000
  C   C313      1.0  0.51843  0.75750  0.61204  1.0000
  C   C314      1.0  0.69708  0.62621  0.70687  1.0000
  H   H504      1.0  0.00350  0.74843  0.74259  1.0000
  C   C315      1.0  0.50781  0.78941  0.56753  1.0000
  C   C316      1.0  0.76303  0.96942  0.60909  1.0000
  C   C317      1.0  0.70100  0.66945  0.74576  1.0000
  H   H505      1.0  0.66451  0.60091  0.76805  1.0000
  C   C318      1.0  0.69372  0.61383  0.76722  1.0000
  H   H506      1.0  0.70312  0.62470  0.79256  1.0000
  H   H507      1.0  0.70022  0.59274  0.76337  1.0000
  H   H508      1.0  0.75972  0.67100  0.76422  1.0000
  H   H509      1.0  0.50821  0.73958  0.80499  1.0000
  H   H510      1.0  0.55361  0.77064  0.75840  1.0000
  H   H511      1.0  0.71015  0.68173  0.77063  1.0000
  H   H512      1.0  0.80428  0.50616  0.77209  1.0000
  C   C319      1.0  0.78035  0.50480  0.76417  1.0000
  C   C320      1.0  0.52655  0.76307  0.75445  1.0000
