data_image0
_chemical_formula_structural       FeH2S2FeSCH2CH2FeS2C2HC7H4CH7CSH2C2H2CHSH2CH2FeH4NCH2SCHN2CHCFeSHCSH2CSC6H6SH2FeHC3H6NCFeHSH3CSHFeS2HC6SH5CH3SCHCSHCH2CH2CHFeSFeNSH4C6H4SH3CHSC2FeCHCH3CFeH2CH2C5H2Fe2S3CFeCHCSHSNC2H2SHCHC4H5CHCHCH5SHSCH4C4SH3FeCHNHFeSH4C2SHFeCHCSCH2CSH6CFeNS2FeSCH3CHCH5CHC2H5CH3CH2CFeH2C3H2CHCHCHC2SFeNHSCFeH2CSFeS2HSHC6H5SHCH3SHSC2SCSHC2H2SH3FeHCH2CHFeSHC2HC2H4SH3CHSFeSFeHSHSH4NCH2C6H4CFeH2NC4SCHCHSFeSCH3C2HNHCHC2H2SHCHSCSCHCHCHCH2C2FeH5FeS2CSH2FeS2H2C6H4CH4SCH2CH2CH2CHCHNHCH8FeCNH2SCHNC2HC2H3CNCH2SCNSHCSHC2H4CHSHC2H2FeCHFeSHFeC2H2NC4H12FeHC2SC2SHSHC2HCHC2SH5CH3CHSH2C2H2FeSHCHCFeHCSC2H2NH2SHCH3CFeHNH2SC2HCH3FeHC2HCH3CH2C2H4NH4C2H3CSH3CH2Fe2C2H2C3NS2CSC2H3FeCH2CSCH3SHCSH2SC2SHNH2CH4CHCH4CHFeS2HS3FeSHSFeSC2H2C6H6FeH2NC4H12NC4H10CH2C4HFeSCH2CSHFeSH3NCFeS2HCHSFeS2CH3C7H4SFeH4CNC3SCH4C3HSH3CHC2H6FeCFeSH5CS2CHCNCH4FeH2CH2C2Fe2S3FeNSFeS2HCH2CH2C6H6C2SH2CHCH3FeSHNHCH2CH2CH7CH4CH2CHCH5CHCH2CH2NSCSCHCH4FeCHCH2CSCH3CHC2HSNFeC2H2CHCSHSCSFeS2Fe2HSFeS2C2H3C6H4C2H3SH2SCH2C2HNCHCHNCHCH4SCHCH5CH4C2HCH2SHSC2H2C2H2SCFeHSH6C2HC6H4NH6FeHCSHCH4CHSFeS2FeCSC6H7NH3CNHC3HSCSH2C2SC2HCHFe2SNH4CSHCHFeH3CHCH3FeS3H2C7H7CH4CHS2FeS2H4NHFeSHC6H2FeCH3CNHNHSCHC2H2CHCH4C3H2SH4NHCHCHCHCHCFe2HC2HS2HSH2SFeSHFeC6H3S2HCH2SHSHNC2S2FeS2Fe2SC6H4CFeHCHFeCSHNC4H15CSC3FeHFeSHSHFeS2H3C7H3SH2NH2FeC2H2CH4C3SFeS2HSH4FeSC7H6NH7NCH5CHCH5C3HNH2CH3SCS2FeH2FeHSC2
_chemical_formula_sum              "Fe96 H768 S192 C480 N48"
_cell_length_a       48.17
_cell_length_b       48.2005
_cell_length_c       46.0856
_cell_angle_alpha    90.397
_cell_angle_beta     88.9235
_cell_angle_gamma    119.906

_space_group_name_H-M_alt    "P 1"
_space_group_IT_number       1

loop_
  _space_group_symop_operation_xyz
  'x, y, z'

loop_
  _atom_site_type_symbol
  _atom_site_label
  _atom_site_symmetry_multiplicity
  _atom_site_fract_x
  _atom_site_fract_y
  _atom_site_fract_z
  _atom_site_occupancy
  Fe  Fe1       1.0  0.50343  0.25155  0.02758  1.0000
  H   H1        1.0  0.32525  0.06883  0.23679  1.0000
  H   H2        1.0  0.41850  0.16341  0.06175  1.0000
  S   S1        1.0  0.37672  0.23385  0.24867  1.0000
  S   S2        1.0  0.16782  0.31959  0.21379  1.0000
  Fe  Fe2       1.0  0.28487  0.48998  0.02885  1.0000
  S   S3        1.0  0.48285  0.22361  0.07001  1.0000
  C   C1        1.0  0.25659  0.28511  0.23580  1.0000
  H   H3        1.0  0.28011  0.38521  0.13016  1.0000
  H   H4        1.0  0.20409  0.28832  0.12484  1.0000
  C   C2        1.0  0.05658  0.28527  0.23550  1.0000
  H   H5        1.0  0.36536  0.15782  0.05176  1.0000
  H   H6        1.0  0.35632  0.12547  0.02705  1.0000
  Fe  Fe3       1.0  0.36713  0.20343  0.20860  1.0000
  S   S4        1.0  0.39069  0.23184  0.16701  1.0000
  S   S5        1.0  0.31369  0.17739  0.21647  1.0000
  C   C3        1.0  0.27859  0.27861  0.22114  1.0000
  C   C4        1.0  0.36803  0.15197  0.02880  1.0000
  H   H7        1.0  0.02301  0.28614  0.20567  1.0000
  C   C5        1.0  0.45300  0.22211  0.21589  1.0000
  C   C6        1.0  0.45696  0.22617  0.09650  1.0000
  C   C7        1.0  0.44825  0.24980  0.09550  1.0000
  C   C8        1.0  0.42770  0.25089  0.11712  1.0000
  C   C9        1.0  0.41544  0.22831  0.13985  1.0000
  C   C10       1.0  0.42383  0.20441  0.14062  1.0000
  C   C11       1.0  0.44461  0.20349  0.11914  1.0000
  H   H8        1.0  0.29506  0.44825  0.12688  1.0000
  H   H9        1.0  0.42140  0.26951  0.11632  1.0000
  H   H10       1.0  0.41428  0.18659  0.15769  1.0000
  H   H11       1.0  0.45112  0.18503  0.12004  1.0000
  C   C12       1.0  0.30153  0.04801  0.23791  1.0000
  H   H12       1.0  0.40550  0.21217  0.00709  1.0000
  H   H13       1.0  0.24700  0.37499  0.10677  1.0000
  H   H14       1.0  0.27567  0.36273  0.09765  1.0000
  H   H15       1.0  0.27785  0.32090  0.12679  1.0000
  H   H16       1.0  0.40894  0.13032  0.03771  1.0000
  H   H17       1.0  0.22310  0.02723  0.24292  1.0000
  H   H18       1.0  0.28768  0.28887  0.19989  1.0000
  C   C13       1.0  0.26226  0.36600  0.11602  1.0000
  S   S6        1.0  0.27781  0.09040  0.24039  1.0000
  H   H19       1.0  0.07718  0.30570  0.22576  1.0000
  H   H20       1.0  0.24987  0.30183  0.15638  1.0000
  C   C14       1.0  0.02578  0.27413  0.22419  1.0000
  C   C15       1.0  0.41648  0.20264  0.02226  1.0000
  H   H21       1.0  0.18034  0.41176  0.11231  1.0000
  H   H22       1.0  0.45762  0.26746  0.07827  1.0000
  C   C16       1.0  0.45935  0.27256  0.23215  1.0000
  H   H23       1.0  0.41408  0.20992  0.04473  1.0000
  S   S7        1.0  0.37346  0.16537  0.23051  1.0000
  H   H24       1.0  0.20287  0.31894  0.10387  1.0000
  H   H25       1.0  0.44509  0.16796  0.03226  1.0000
  C   C17       1.0  0.27470  0.05197  0.23999  1.0000
  H   H26       1.0  0.46423  0.20937  0.20504  1.0000
  H   H27       1.0  0.43227  0.21817  0.20269  1.0000
  Fe  Fe4       1.0  0.32068  0.14145  0.24186  1.0000
  H   H28       1.0  0.21897  0.50172  0.15008  1.0000
  H   H29       1.0  0.44246  0.21487  0.01697  1.0000
  H   H30       1.0  0.22552  0.49088  0.08555  1.0000
  H   H31       1.0  0.43965  0.27002  0.21805  1.0000
  N   N1        1.0  0.47599  0.25660  0.21915  1.0000
  C   C18       1.0  0.29764  0.01697  0.23702  1.0000
  H   H32       1.0  0.21960  0.43773  0.07171  1.0000
  H   H33       1.0  0.31857  0.01423  0.23527  1.0000
  S   S8        1.0  0.24116  0.49333  0.01900  1.0000
  C   C19       1.0  0.24405  0.02452  0.24146  1.0000
  H   H34       1.0  0.28125  0.34239  0.15988  1.0000
  N   N2        1.0  0.40211  0.16759  0.01975  1.0000
  N   N3        1.0  0.24281  0.33595  0.13245  1.0000
  C   C20       1.0  0.26392  0.32480  0.14426  1.0000
  H   H35       1.0  0.24264  0.36004  0.17187  1.0000
  C   C21       1.0  0.21924  0.31126  0.11300  1.0000
  Fe  Fe5       1.0  0.18958  0.37317  0.21303  1.0000
  S   S9        1.0  0.18610  0.39611  0.17089  1.0000
  H   H36       1.0  0.20937  0.35000  0.14871  1.0000
  C   C22       1.0  0.41928  0.15670  0.03868  1.0000
  S   S10       1.0  0.28895  0.46337  0.06801  1.0000
  H   H37       1.0  0.23127  0.30627  0.09450  1.0000
  H   H38       1.0  0.21098  0.31940  0.16946  1.0000
  C   C23       1.0  0.22569  0.34164  0.15660  1.0000
  S   S11       1.0  0.23499  0.38233  0.23367  1.0000
  C   C24       1.0  0.21520  0.41464  0.14265  1.0000
  C   C25       1.0  0.24767  0.42501  0.14657  1.0000
  C   C26       1.0  0.26997  0.44021  0.12361  1.0000
  C   C27       1.0  0.26011  0.44509  0.09649  1.0000
  C   C28       1.0  0.22766  0.43469  0.09259  1.0000
  C   C29       1.0  0.20541  0.41973  0.11559  1.0000
  H   H39       1.0  0.25565  0.42167  0.16738  1.0000
  H   H40       1.0  0.22945  0.11423  0.24710  1.0000
  H   H41       1.0  0.30598  0.25411  0.22217  1.0000
  H   H42       1.0  0.50154  0.25891  0.17956  1.0000
  H   H43       1.0  0.35456  0.16001  0.01507  1.0000
  H   H44       1.0  0.46998  0.26799  0.17552  1.0000
  S   S12       1.0  0.24450  0.31027  0.21885  1.0000
  H   H45       1.0  0.44339  0.21043  0.23734  1.0000
  H   H46       1.0  0.47598  0.29859  0.23531  1.0000
  Fe  Fe6       1.0  0.21242  0.32889  0.23694  1.0000
  H   H47       1.0  0.24226  0.48526  0.13525  1.0000
  C   C30       1.0  0.48927  0.27073  0.19030  1.0000
  C   C31       1.0  0.28904  0.25890  0.23372  1.0000
  C   C32       1.0  0.50204  0.26080  0.23836  1.0000
  H   H48       1.0  0.50685  0.29675  0.19186  1.0000
  H   H49       1.0  0.27107  0.37966  0.28404  1.0000
  H   H50       1.0  0.26488  0.10873  0.29885  1.0000
  H   H51       1.0  0.01540  0.28581  0.34147  1.0000
  H   H52       1.0  0.18364  0.09569  0.31704  1.0000
  H   H53       1.0  0.30400  0.33349  0.34153  1.0000
  N   N4        1.0  0.22818  0.12118  0.29325  1.0000
  C   C33       1.0  0.30660  0.38971  0.33077  1.0000
  Fe  Fe7       1.0  0.49006  0.25935  0.46154  1.0000
  H   H54       1.0  0.23769  0.31891  0.32211  1.0000
  S   S13       1.0  0.09863  0.28396  0.27550  1.0000
  H   H55       1.0  0.40012  0.24100  0.39164  1.0000
  H   H56       1.0  0.18450  0.12256  0.28967  1.0000
  H   H57       1.0  0.38915  0.22305  0.34031  1.0000
  C   C34       1.0  0.06062  0.27009  0.25949  1.0000
  S   S14       1.0  0.45111  0.25353  0.43022  1.0000
  H   H58       1.0  0.47615  0.21894  0.33655  1.0000
  Fe  Fe8       1.0  0.38102  0.19498  0.27116  1.0000
  S   S15       1.0  0.42555  0.20773  0.29759  1.0000
  S   S16       1.0  0.32893  0.16811  0.28409  1.0000
  H   H59       1.0  0.15228  0.48459  0.40541  1.0000
  C   C35       1.0  0.43182  0.21970  0.33472  1.0000
  C   C36       1.0  0.45944  0.22369  0.34850  1.0000
  C   C37       1.0  0.46561  0.23367  0.37773  1.0000
  C   C38       1.0  0.44431  0.24005  0.39352  1.0000
  C   C39       1.0  0.41673  0.23611  0.37969  1.0000
  C   C40       1.0  0.41043  0.22590  0.35054  1.0000
  S   S17       1.0  0.29010  0.22061  0.27807  1.0000
  H   H60       1.0  0.03642  0.23138  0.29019  1.0000
  H   H61       1.0  0.19914  0.48878  0.46954  1.0000
  H   H62       1.0  0.16675  0.46354  0.42670  1.0000
  H   H63       1.0  0.26893  0.16043  0.31328  1.0000
  H   H64       1.0  0.48690  0.23657  0.38801  1.0000
  C   C41       1.0  0.25562  0.25201  0.27590  1.0000
  H   H65       1.0  0.24653  0.24162  0.29711  1.0000
  H   H66       1.0  0.24227  0.35730  0.33098  1.0000
  H   H67       1.0  0.29589  0.40555  0.32990  1.0000
  S   S18       1.0  0.19121  0.32655  0.28129  1.0000
  C   C42       1.0  0.23834  0.09770  0.30026  1.0000
  H   H68       1.0  0.23060  0.08781  0.32253  1.0000
  C   C43       1.0  0.24226  0.14792  0.31417  1.0000
  S   S19       1.0  0.49650  0.21888  0.47788  1.0000
  H   H69       1.0  0.28535  0.31442  0.30816  1.0000
  C   C44       1.0  0.24507  0.27165  0.26327  1.0000
  H   H70       1.0  0.01398  0.31407  0.31710  1.0000
  H   H71       1.0  0.23544  0.16632  0.30930  1.0000
  C   C45       1.0  0.15866  0.48158  0.42779  1.0000
  H   H72       1.0  0.31038  0.38679  0.35404  1.0000
  H   H73       1.0  0.32432  0.34935  0.30737  1.0000
  C   C46       1.0  0.27763  0.24550  0.26120  1.0000
  H   H74       1.0  0.26497  0.34074  0.27518  1.0000
  Fe  Fe9       1.0  0.21077  0.37961  0.27689  1.0000
  S   S20       1.0  0.24421  0.41548  0.31052  1.0000
  Fe  Fe10      1.0  0.25482  0.48460  0.47244  1.0000
  N   N5        1.0  0.28569  0.35849  0.31690  1.0000
  S   S21       1.0  0.21926  0.44915  0.43978  1.0000
  H   H75       1.0  0.13649  0.47119  0.44154  1.0000
  H   H76       1.0  0.33049  0.40263  0.31973  1.0000
  H   H77       1.0  0.23455  0.13951  0.33685  1.0000
  H   H78       1.0  0.17018  0.49821  0.48432  1.0000
  C   C47       1.0  0.23653  0.42429  0.34643  1.0000
  C   C48       1.0  0.26219  0.44776  0.36250  1.0000
  C   C49       1.0  0.25743  0.45558  0.39107  1.0000
  C   C50       1.0  0.22685  0.43996  0.40398  1.0000
  C   C51       1.0  0.20119  0.41646  0.38792  1.0000
  C   C52       1.0  0.20596  0.40860  0.35936  1.0000
  H   H79       1.0  0.28593  0.46015  0.35274  1.0000
  H   H80       1.0  0.27742  0.47374  0.40304  1.0000
  H   H81       1.0  0.17744  0.40414  0.39766  1.0000
  H   H82       1.0  0.18597  0.39048  0.34736  1.0000
  S   S22       1.0  0.16658  0.37481  0.25590  1.0000
  H   H83       1.0  0.49243  0.25034  0.26032  1.0000
  H   H84       1.0  0.01170  0.27830  0.30321  1.0000
  H   H85       1.0  0.30452  0.37488  0.27376  1.0000
  C   C53       1.0  0.25415  0.34254  0.33202  1.0000
  H   H86       1.0  0.25643  0.33845  0.35537  1.0000
  S   S23       1.0  0.29952  0.48736  0.48978  1.0000
  C   C54       1.0  0.03351  0.24350  0.27182  1.0000
  C   C55       1.0  0.28141  0.36366  0.28613  1.0000
  Fe  Fe11      1.0  0.14795  0.32158  0.25780  1.0000
  C   C56       1.0  0.30050  0.33807  0.31862  1.0000
  H   H87       1.0  0.22784  0.27611  0.27465  1.0000
  C   C57       1.0  0.19288  0.10544  0.29493  1.0000
  H   H88       1.0  0.26569  0.14556  0.26157  1.0000
  H   H89       1.0  0.22836  0.07728  0.28475  1.0000
  H   H90       1.0  0.18164  0.08520  0.27931  1.0000
  C   C58       1.0  0.23924  0.13370  0.26356  1.0000
  Fe  Fe12      1.0  0.32384  0.20481  0.25810  1.0000
  H   H91       1.0  0.23252  0.15190  0.25758  1.0000
  H   H92       1.0  0.44858  0.26207  0.25379  1.0000
  C   C59       1.0  0.50492  0.28759  0.62875  1.0000
  H   H93       1.0  0.08712  0.30042  0.72510  1.0000
  H   H94       1.0  0.03426  0.28405  0.70352  1.0000
  C   C60       1.0  0.03527  0.27582  0.72505  1.0000
  C   C61       1.0  0.24393  0.32835  0.61253  1.0000
  C   C62       1.0  0.06532  0.28515  0.73725  1.0000
  C   C63       1.0  0.29626  0.02196  0.73030  1.0000
  C   C64       1.0  0.25657  0.42670  0.65225  1.0000
  H   H95       1.0  0.26096  0.06793  0.73230  1.0000
  H   H96       1.0  0.22604  0.31254  0.59638  1.0000
  Fe  Fe13      1.0  0.21788  0.32415  0.74174  1.0000
  Fe  Fe14      1.0  0.33846  0.13852  0.74078  1.0000
  S   S24       1.0  0.17519  0.32029  0.71866  1.0000
  S   S25       1.0  0.37147  0.23034  0.74240  1.0000
  S   S26       1.0  0.23533  0.48522  0.51745  1.0000
  C   C65       1.0  0.44561  0.19761  0.61790  1.0000
  Fe  Fe15      1.0  0.36976  0.19972  0.70464  1.0000
  C   C66       1.0  0.26334  0.04679  0.73086  1.0000
  H   H97       1.0  0.19165  0.27902  0.63737  1.0000
  C   C67       1.0  0.21053  0.29575  0.65231  1.0000
  S   S27       1.0  0.31814  0.16235  0.71323  1.0000
  H   H98       1.0  0.39963  0.24197  0.60011  1.0000
  S   S28       1.0  0.39013  0.17500  0.73037  1.0000
  N   N6        1.0  0.33682  0.10749  0.64536  1.0000
  C   C68       1.0  0.44930  0.21121  0.59016  1.0000
  C   C69       1.0  0.28619  0.24581  0.73106  1.0000
  H   H99       1.0  0.31965  0.02401  0.73118  1.0000
  H   H100      1.0  0.31794  0.13117  0.61953  1.0000
  S   S29       1.0  0.32917  0.08726  0.73616  1.0000
  H   H101      1.0  0.22560  0.45305  0.58648  1.0000
  C   C70       1.0  0.29366  0.04972  0.73236  1.0000
  H   H102      1.0  0.38737  0.13060  0.65352  1.0000
  C   C71       1.0  0.33895  0.08863  0.62088  1.0000
  C   C72       1.0  0.25290  0.34975  0.66108  1.0000
  C   C73       1.0  0.43235  0.22694  0.58385  1.0000
  C   C74       1.0  0.23595  0.01632  0.72759  1.0000
  H   H103      1.0  0.19868  0.29513  0.67343  1.0000
  H   H104      1.0  0.22684  0.28612  0.65660  1.0000
  H   H105      1.0  0.31885  0.08146  0.60564  1.0000
  H   H106      1.0  0.21255  0.01425  0.72664  1.0000
  H   H107      1.0  0.18626  0.32471  0.62060  1.0000
  C   C75       1.0  0.41260  0.22970  0.60524  1.0000
  H   H108      1.0  0.36083  0.15184  0.62151  1.0000
  C   C76       1.0  0.33824  0.13683  0.63408  1.0000
  H   H109      1.0  0.36311  0.09489  0.67467  1.0000
  C   C77       1.0  0.25688  0.27517  0.73636  1.0000
  H   H110      1.0  0.45867  0.18543  0.62301  1.0000
  H   H111      1.0  0.36320  0.13104  0.68340  1.0000
  H   H112      1.0  0.30423  0.10154  0.68047  1.0000
  H   H113      1.0  0.43443  0.23699  0.56245  1.0000
  H   H114      1.0  0.42390  0.19062  0.66082  1.0000
  S   S30       1.0  0.38404  0.22085  0.65903  1.0000
  H   H115      1.0  0.33736  0.15201  0.65200  1.0000
  S   S31       1.0  0.47647  0.20927  0.56476  1.0000
  C   C78       1.0  0.36388  0.11639  0.66499  1.0000
  H   H116      1.0  0.30112  0.23949  0.71803  1.0000
  H   H117      1.0  0.36174  0.10264  0.60823  1.0000
  H   H118      1.0  0.28524  0.08119  0.64762  1.0000
  H   H119      1.0  0.30447  0.06582  0.67036  1.0000
  C   C79       1.0  0.40936  0.21664  0.63311  1.0000
  C   C80       1.0  0.30631  0.08816  0.66155  1.0000
  C   C81       1.0  0.42594  0.20051  0.63937  1.0000
  C   C82       1.0  0.27652  0.26680  0.71988  1.0000
  S   S32       1.0  0.24455  0.30083  0.72060  1.0000
  H   H120      1.0  0.33812  0.06641  0.62868  1.0000
  H   H121      1.0  0.28420  0.27648  0.69824  1.0000
  H   H122      1.0  0.26118  0.31962  0.61556  1.0000
  Fe  Fe16      1.0  0.49643  0.23829  0.52276  1.0000
  C   C83       1.0  0.26567  0.45092  0.60376  1.0000
  H   H123      1.0  0.30083  0.44541  0.62743  1.0000
  N   N7        1.0  0.22826  0.32860  0.64034  1.0000
  H   H124      1.0  0.19006  0.42680  0.62931  1.0000
  Fe  Fe17      1.0  0.20057  0.37404  0.72192  1.0000
  S   S33       1.0  0.19807  0.40121  0.68242  1.0000
  H   H125      1.0  0.25744  0.35281  0.60288  1.0000
  H   H126      1.0  0.21828  0.36496  0.62560  1.0000
  H   H127      1.0  0.26926  0.34052  0.66655  1.0000
  H   H128      1.0  0.26779  0.37434  0.65223  1.0000
  C   C84       1.0  0.27660  0.44125  0.62771  1.0000
  C   C85       1.0  0.23440  0.44574  0.60464  1.0000
  S   S34       1.0  0.24417  0.37807  0.74282  1.0000
  H   H129      1.0  0.24182  0.35161  0.68188  1.0000
  Fe  Fe18      1.0  0.28172  0.49193  0.53437  1.0000
  C   C86       1.0  0.22511  0.42106  0.65289  1.0000
  H   H130      1.0  0.26549  0.42011  0.67079  1.0000
  C   C87       1.0  0.20582  0.34058  0.63541  1.0000
  S   S35       1.0  0.29164  0.46861  0.57306  1.0000
  C   C88       1.0  0.21428  0.43085  0.62901  1.0000
  H   H131      1.0  0.19442  0.34229  0.65609  1.0000
  H   H132      1.0  0.36028  0.47273  0.56447  1.0000
  C   C89       1.0  0.36640  0.48354  0.54235  1.0000
  S   S36       1.0  0.48681  0.27647  0.50681  1.0000
  H   H133      1.0  0.48084  0.30399  0.58539  1.0000
  H   H134      1.0  0.48503  0.29196  0.63523  1.0000
  H   H135      1.0  0.37673  0.47121  0.52939  1.0000
  H   H136      1.0  0.34332  0.47791  0.53227  1.0000
  H   H137      1.0  0.49394  0.26166  0.62375  1.0000
  H   H138      1.0  0.49205  0.27626  0.57086  1.0000
  C   C90       1.0  0.50160  0.30102  0.57906  1.0000
  Fe  Fe19      1.0  0.32162  0.19141  0.75310  1.0000
  N   N8        1.0  0.36752  0.27123  0.82359  1.0000
  S   S37       1.0  0.19508  0.31918  0.78577  1.0000
  S   S38       1.0  0.10431  0.28555  0.78135  1.0000
  Fe  Fe20      1.0  0.38714  0.20197  0.76934  1.0000
  S   S39       1.0  0.33730  0.16390  0.78175  1.0000
  C   C91       1.0  0.40165  0.28570  0.81485  1.0000
  H   H139      1.0  0.38829  0.18463  0.89767  1.0000
  H   H140      1.0  0.38336  0.18720  0.84421  1.0000
  H   H141      1.0  0.03936  0.24680  0.80204  1.0000
  C   C92       1.0  0.03834  0.25491  0.78048  1.0000
  H   H142      1.0  0.24850  0.23106  0.79684  1.0000
  C   C93       1.0  0.25659  0.24117  0.77539  1.0000
  H   H143      1.0  0.23200  0.26853  0.77722  1.0000
  H   H144      1.0  0.40449  0.27655  0.79339  1.0000
  H   H145      1.0  0.41526  0.27986  0.83065  1.0000
  H   H146      1.0  0.41346  0.31220  0.81319  1.0000
  H   H147      1.0  0.09438  0.31117  0.88083  1.0000
  C   C94       1.0  0.35021  0.27874  0.80163  1.0000
  H   H148      1.0  0.36041  0.30498  0.79900  1.0000
  C   C95       1.0  0.27599  0.23260  0.75879  1.0000
  C   C96       1.0  0.36494  0.28415  0.85205  1.0000
  H   H149      1.0  0.37534  0.31057  0.85110  1.0000
  H   H150      1.0  0.37795  0.27896  0.86902  1.0000
  H   H151      1.0  0.33948  0.27341  0.85939  1.0000
  H   H152      1.0  0.32548  0.50335  0.84269  1.0000
  H   H153      1.0  0.14680  0.36654  0.84586  1.0000
  C   C97       1.0  0.13850  0.34151  0.83888  1.0000
  H   H154      1.0  0.32434  0.26806  0.80752  1.0000
  H   H155      1.0  0.17608  0.32131  0.88923  1.0000
  H   H156      1.0  0.15376  0.34251  0.82010  1.0000
  C   C98       1.0  0.35325  0.23616  0.82591  1.0000
  H   H157      1.0  0.35597  0.22592  0.80514  1.0000
  H   H158      1.0  0.10330  0.27777  0.84479  1.0000
  C   C99       1.0  0.46269  0.24654  0.88225  1.0000
  Fe  Fe21      1.0  0.48509  0.24902  0.96352  1.0000
  H   H159      1.0  0.18989  0.33807  0.85362  1.0000
  H   H160      1.0  0.18281  0.36052  0.88099  1.0000
  C   C100      1.0  0.24718  0.26243  0.76432  1.0000
  C   C101      1.0  0.17365  0.33603  0.87207  1.0000
  C   C102      1.0  0.40539  0.20393  0.85467  1.0000
  H   H161      1.0  0.36505  0.22951  0.84285  1.0000
  H   H162      1.0  0.32712  0.22412  0.83112  1.0000
  C   C103      1.0  0.11982  0.32154  0.88733  1.0000
  H   H163      1.0  0.12044  0.30702  0.90571  1.0000
  C   C104      1.0  0.45966  0.24823  0.85201  1.0000
  H   H164      1.0  0.39451  0.13301  0.98646  1.0000
  C   C105      1.0  0.40830  0.20247  0.88499  1.0000
  H   H165      1.0  0.11366  0.33126  0.83069  1.0000
  C   C106      1.0  0.12848  0.28898  0.85231  1.0000
  C   C107      1.0  0.06704  0.27474  0.76505  1.0000
  S   S40       1.0  0.17661  0.37348  0.76492  1.0000
  Fe  Fe22      1.0  0.25466  0.49162  0.97175  1.0000
  N   N9        1.0  0.14012  0.32200  0.86267  1.0000
  H   H166      1.0  0.48489  0.26304  0.89263  1.0000
  S   S41       1.0  0.43931  0.22113  0.93730  1.0000
  C   C108      1.0  0.43698  0.22368  0.89897  1.0000
  Fe  Fe23      1.0  0.15436  0.31984  0.76278  1.0000
  H   H167      1.0  0.35123  0.26881  0.77999  1.0000
  H   H168      1.0  0.47972  0.26611  0.83937  1.0000
  C   C109      1.0  0.43108  0.22696  0.83801  1.0000
  S   S42       1.0  0.42850  0.23104  0.79993  1.0000
  Fe  Fe24      1.0  0.21828  0.37292  0.78567  1.0000
  S   S43       1.0  0.24577  0.39796  0.82672  1.0000
  S   S44       1.0  0.28675  0.20533  0.77363  1.0000
  H   H169      1.0  0.43026  0.17111  0.98168  1.0000
  S   S45       1.0  0.21963  0.46573  0.93511  1.0000
  H   H170      1.0  0.12797  0.34616  0.89559  1.0000
  C   C110      1.0  0.23692  0.41564  0.85682  1.0000
  C   C111      1.0  0.25566  0.42275  0.88177  1.0000
  C   C112      1.0  0.25019  0.43740  0.90609  1.0000
  C   C113      1.0  0.22597  0.44534  0.90571  1.0000
  C   C114      1.0  0.20682  0.43775  0.88094  1.0000
  C   C115      1.0  0.21236  0.42314  0.85654  1.0000
  H   H171      1.0  0.27459  0.41685  0.88229  1.0000
  H   H172      1.0  0.26478  0.44260  0.92511  1.0000
  H   H173      1.0  0.18805  0.44386  0.88039  1.0000
  H   H174      1.0  0.19805  0.41825  0.83736  1.0000
  H   H175      1.0  0.14310  0.28856  0.83346  1.0000
  S   S46       1.0  0.29645  0.48499  0.98177  1.0000
  H   H176      1.0  0.12937  0.27345  0.86957  1.0000
  C   C116      1.0  0.00827  0.24577  0.76836  1.0000
  H   H177      1.0  0.25809  0.01174  0.79265  1.0000
  H   H178      1.0  0.31327  0.48532  0.89330  1.0000
  H   H179      1.0  0.39228  0.16727  0.97431  1.0000
  S   S47       1.0  0.48565  0.27888  0.00172  1.0000
  H   H180      1.0  0.27227  0.48868  0.86231  1.0000
  S   S48       1.0  0.50019  0.21991  0.99001  1.0000
  C   C117      1.0  0.40478  0.15923  0.98929  1.0000
  C   C118      1.0  0.26181  0.66172  0.02738  1.0000
  S   S49       1.0  0.31822  0.54329  0.02834  1.0000
  C   C119      1.0  0.26264  0.61151  0.02664  1.0000
  S   S50       1.0  0.27624  0.58712  0.04188  1.0000
  H   H181      1.0  0.20282  0.50771  0.10118  1.0000
  C   C120      1.0  0.22701  0.51357  0.09295  1.0000
  C   C121      1.0  0.27376  0.64241  0.03776  1.0000
  H   H182      1.0  0.25942  0.57620  0.10504  1.0000
  H   H183      1.0  0.29126  0.65128  0.05478  1.0000
  S   S51       1.0  0.26362  0.95102  0.23634  1.0000
  H   H184      1.0  0.35651  0.66973  0.05096  1.0000
  H   H185      1.0  0.39186  0.70767  0.04355  1.0000
  H   H186      1.0  0.49542  0.80518  0.14179  1.0000
  Fe  Fe25      1.0  0.27519  0.54652  0.01606  1.0000
  H   H187      1.0  0.26072  0.51938  0.15853  1.0000
  C   C122      1.0  0.25317  0.55974  0.12400  1.0000
  H   H188      1.0  0.49188  0.80229  0.08799  1.0000
  H   H189      1.0  0.33973  0.62509  0.01583  1.0000
  C   C123      1.0  0.05966  0.80822  0.24159  1.0000
  H   H190      1.0  0.28254  0.51383  0.09617  1.0000
  Fe  Fe26      1.0  0.49789  0.77240  0.01398  1.0000
  S   S52       1.0  0.23429  0.86412  0.25250  1.0000
  H   H191      1.0  0.31038  0.95016  0.14442  1.0000
  C   C124      1.0  0.24299  0.50807  0.14096  1.0000
  C   C125      1.0  0.42833  0.77908  0.01596  1.0000
  H   H192      1.0  0.07672  0.77485  0.24587  1.0000
  C   C126      1.0  0.02511  0.75114  0.25075  1.0000
  C   C127      1.0  0.26699  0.98952  0.23847  1.0000
  H   H193      1.0  0.44997  0.61204  0.02816  1.0000
  H   H194      1.0  0.35613  0.77584  0.02487  1.0000
  H   H195      1.0  0.22979  0.55555  0.13302  1.0000
  H   H196      1.0  0.23256  0.52915  0.07348  1.0000
  S   S53       1.0  0.18696  0.87206  0.20620  1.0000
  H   H197      1.0  0.32435  0.90615  0.20317  1.0000
  H   H198      1.0  0.27006  0.68529  0.03641  1.0000
  H   H199      1.0  0.21645  0.97267  0.24180  1.0000
  C   C128      1.0  0.37816  0.78001  0.01437  1.0000
  H   H200      1.0  0.31001  0.95769  0.18264  1.0000
  S   S54       1.0  0.09814  0.84333  0.23858  1.0000
  Fe  Fe27      1.0  0.19984  0.83459  0.21767  1.0000
  S   S55       1.0  0.21726  0.80801  0.18786  1.0000
  Fe  Fe28      1.0  0.25827  0.79005  0.02017  1.0000
  H   H201      1.0  0.25350  0.90444  0.14749  1.0000
  S   S56       1.0  0.24581  0.81960  0.05118  1.0000
  H   H202      1.0  0.28432  0.86360  0.15360  1.0000
  S   S57       1.0  0.28460  0.76263  0.02697  1.0000
  H   H203      1.0  0.39730  0.57266  0.00788  1.0000
  H   H204      1.0  0.34016  0.95003  0.16739  1.0000
  H   H205      1.0  0.29450  0.89448  0.12728  1.0000
  H   H206      1.0  0.29401  0.91375  0.21796  1.0000
  N   N10       1.0  0.25155  0.52936  0.11540  1.0000
  C   C129      1.0  0.36440  0.63795  0.00628  1.0000
  H   H207      1.0  0.39348  0.76381  0.05102  1.0000
  H   H208      1.0  0.32503  0.89542  0.14991  1.0000
  C   C130      1.0  0.22274  0.80976  0.14949  1.0000
  C   C131      1.0  0.23642  0.79276  0.13648  1.0000
  C   C132      1.0  0.24292  0.79481  0.10634  1.0000
  C   C133      1.0  0.23615  0.81425  0.08889  1.0000
  C   C134      1.0  0.22232  0.83113  0.10188  1.0000
  C   C135      1.0  0.21526  0.82860  0.13191  1.0000
  H   H209      1.0  0.24221  0.77804  0.14984  1.0000
  H   H210      1.0  0.25362  0.78176  0.09669  1.0000
  H   H211      1.0  0.21676  0.84603  0.08853  1.0000
  H   H212      1.0  0.20396  0.84117  0.14135  1.0000
  C   C136      1.0  0.24017  0.99348  0.24082  1.0000
  Fe  Fe29      1.0  0.21986  0.90093  0.24242  1.0000
  H   H213      1.0  0.39560  0.67354  0.05244  1.0000
  H   H214      1.0  0.28341  0.87432  0.20552  1.0000
  N   N11       1.0  0.29327  0.90854  0.17156  1.0000
  C   C137      1.0  0.29967  0.88980  0.14961  1.0000
  C   C138      1.0  0.29909  0.90035  0.20083  1.0000
  C   C139      1.0  0.25958  0.90073  0.16977  1.0000
  C   C140      1.0  0.31447  0.94314  0.16620  1.0000
  S   S58       1.0  0.45457  0.77096  0.03562  1.0000
  C   C141      1.0  0.39937  0.77322  0.02914  1.0000
  H   H215      1.0  0.25435  0.91580  0.18476  1.0000
  C   C142      1.0  0.38076  0.68131  0.04049  1.0000
  H   H216      1.0  0.24302  0.87538  0.17586  1.0000
  S   S59       1.0  0.15879  0.80933  0.24978  1.0000
  Fe  Fe30      1.0  0.14828  0.84895  0.24109  1.0000
  S   S60       1.0  0.50143  0.67158  0.00617  1.0000
  C   C143      1.0  0.28306  0.53611  0.10358  1.0000
  H   H217      1.0  0.29052  0.55256  0.08459  1.0000
  H   H218      1.0  0.27165  0.57251  0.14072  1.0000
  H   H219      1.0  0.37874  0.62896  0.01734  1.0000
  C   C144      1.0  0.05591  0.77784  0.24607  1.0000
  C   C145      1.0  0.44249  0.61706  0.00780  1.0000
  H   H220      1.0  0.30211  0.54743  0.12005  1.0000
  N   N12       1.0  0.37896  0.67302  0.00938  1.0000
  H   H221      1.0  0.42744  0.68199  0.00768  1.0000
  C   C146      1.0  0.03205  0.81123  0.24092  1.0000
  H   H222      1.0  0.03459  0.83455  0.23734  1.0000
  C   C147      1.0  0.23789  0.64975  0.00654  1.0000
  C   C148      1.0  0.23976  0.60008  0.00489  1.0000
  H   H223      1.0  0.33431  0.67219  0.00365  1.0000
  H   H224      1.0  0.08339  0.77406  0.30194  1.0000
  S   S61       1.0  0.27745  0.53780  0.46615  1.0000
  H   H225      1.0  0.25880  0.59109  0.46789  1.0000
  C   C149      1.0  0.25173  0.65747  0.47983  1.0000
  H   H226      1.0  0.26228  0.63777  0.44185  1.0000
  S   S62       1.0  0.25205  0.68904  0.46026  1.0000
  C   C150      1.0  0.38383  0.67993  0.48651  1.0000
  S   S63       1.0  0.36929  0.57321  0.46628  1.0000
  C   C151      1.0  0.39874  0.60572  0.48602  1.0000
  H   H227      1.0  0.42921  0.62735  0.44841  1.0000
  C   C152      1.0  0.12098  0.84877  0.33096  1.0000
  H   H228      1.0  0.35805  0.66395  0.49219  1.0000
  C   C153      1.0  0.25682  0.63482  0.46488  1.0000
  H   H229      1.0  0.44599  0.71554  0.49853  1.0000
  C   C154      1.0  0.25479  0.60833  0.47955  1.0000
  H   H230      1.0  0.19121  0.55898  0.45008  1.0000
  H   H231      1.0  0.38409  0.73591  0.47946  1.0000
  C   C155      1.0  0.29955  0.77400  0.37206  1.0000
  C   C156      1.0  0.42642  0.62915  0.47159  1.0000
  Fe  Fe31      1.0  0.32068  0.54079  0.48685  1.0000
  H   H232      1.0  0.15070  0.52708  0.45451  1.0000
  H   H233      1.0  0.23245  0.54800  0.42916  1.0000
  H   H234      1.0  0.47171  0.67306  0.47565  1.0000
  H   H235      1.0  0.22982  0.71932  0.40505  1.0000
  H   H236      1.0  0.20811  0.52836  0.39832  1.0000
  Fe  Fe32      1.0  0.19256  0.84220  0.28370  1.0000
  S   S64       1.0  0.18624  0.82148  0.32952  1.0000
  S   S65       1.0  0.18046  0.88109  0.27635  1.0000
  C   C157      1.0  0.28452  0.72152  0.39055  1.0000
  S   S66       1.0  0.31061  0.77529  0.46365  1.0000
  H   H237      1.0  0.08570  0.81000  0.37489  1.0000
  H   H238      1.0  0.14464  0.85055  0.33464  1.0000
  Fe  Fe33      1.0  0.28394  0.80217  0.45848  1.0000
  S   S67       1.0  0.29216  0.82866  0.41555  1.0000
  S   S68       1.0  0.23714  0.76190  0.47492  1.0000
  H   H239      1.0  0.38238  0.80744  0.47188  1.0000
  H   H240      1.0  0.23500  0.70269  0.35434  1.0000
  C   C158      1.0  0.21621  0.82382  0.35297  1.0000
  C   C159      1.0  0.20686  0.80843  0.38016  1.0000
  C   C160      1.0  0.22976  0.80983  0.39965  1.0000
  C   C161      1.0  0.26234  0.82669  0.39212  1.0000
  C   C162      1.0  0.27170  0.84195  0.36489  1.0000
  C   C163      1.0  0.24879  0.84051  0.34537  1.0000
  H   H241      1.0  0.18175  0.79551  0.38630  1.0000
  H   H242      1.0  0.22220  0.79809  0.42056  1.0000
  H   H243      1.0  0.29685  0.85517  0.35889  1.0000
  H   H244      1.0  0.25636  0.85257  0.32460  1.0000
  C   C164      1.0  0.24967  0.74346  0.39864  1.0000
  H   H245      1.0  0.27221  0.72504  0.33444  1.0000
  H   H246      1.0  0.12485  0.79743  0.31068  1.0000
  H   H247      1.0  0.23898  0.75723  0.38944  1.0000
  H   H248      1.0  0.38555  0.68669  0.46324  1.0000
  S   S69       1.0  0.48569  0.81100  0.46944  1.0000
  C   C165      1.0  0.42784  0.80874  0.47121  1.0000
  H   H249      1.0  0.42901  0.80770  0.44778  1.0000
  H   H250      1.0  0.26185  0.75585  0.41884  1.0000
  C   C166      1.0  0.25585  0.72708  0.35057  1.0000
  H   H251      1.0  0.31277  0.78549  0.39227  1.0000
  H   H252      1.0  0.11646  0.86142  0.34908  1.0000
  C   C167      1.0  0.40138  0.80854  0.48482  1.0000
  H   H253      1.0  0.11483  0.79954  0.36231  1.0000
  H   H254      1.0  0.39591  0.66554  0.48865  1.0000
  C   C168      1.0  0.09191  0.79861  0.35674  1.0000
  H   H255      1.0  0.29119  0.79002  0.36328  1.0000
  C   C169      1.0  0.06477  0.81396  0.32201  1.0000
  H   H256      1.0  0.21079  0.52934  0.47886  1.0000
  N   N13       1.0  0.27241  0.74150  0.37794  1.0000
  H   H257      1.0  0.29680  0.73166  0.41143  1.0000
  C   C170      1.0  0.45287  0.81044  0.48766  1.0000
  H   H258      1.0  0.10827  0.81214  0.28479  1.0000
  H   H259      1.0  0.07305  0.77296  0.35575  1.0000
  H   H260      1.0  0.05768  0.82564  0.33920  1.0000
  H   H261      1.0  0.31702  0.77364  0.35618  1.0000
  H   H262      1.0  0.12317  0.86215  0.31062  1.0000
  H   H263      1.0  0.26466  0.69687  0.39550  1.0000
  H   H264      1.0  0.24666  0.74186  0.34052  1.0000
  H   H265      1.0  0.30193  0.71961  0.37569  1.0000
  Fe  Fe34      1.0  0.26452  0.73595  0.48244  1.0000
  C   C171      1.0  0.10319  0.79890  0.30560  1.0000
  N   N14       1.0  0.09516  0.81505  0.32888  1.0000
  H   H266      1.0  0.04487  0.78893  0.31934  1.0000
  H   H267      1.0  0.06699  0.82666  0.30119  1.0000
  S   S70       1.0  0.29907  0.82540  0.50228  1.0000
  C   C172      1.0  0.45051  0.65505  0.48696  1.0000
  H   H268      1.0  0.16718  0.54077  0.41866  1.0000
  N   N15       1.0  0.18388  0.51226  0.43970  1.0000
  C   C173      1.0  0.43272  0.72886  0.49691  1.0000
  C   C174      1.0  0.19131  0.50692  0.46938  1.0000
  H   H269      1.0  0.43566  0.73783  0.47421  1.0000
  C   C175      1.0  0.17270  0.53578  0.44070  1.0000
  C   C176      1.0  0.21298  0.52469  0.42104  1.0000
  H   H270      1.0  0.02261  0.72785  0.25447  1.0000
  H   H271      1.0  0.22244  0.50777  0.42031  1.0000
  H   H272      1.0  0.40512  0.52089  0.49934  1.0000
  C   C177      1.0  0.38168  0.72675  0.50201  1.0000
  N   N16       1.0  0.38857  0.51847  0.54352  1.0000
  C   C178      1.0  0.41917  0.52502  0.55625  1.0000
  H   H273      1.0  0.43631  0.55124  0.55746  1.0000
  H   H274      1.0  0.28857  0.81607  0.56978  1.0000
  S   S71       1.0  0.24001  0.56892  0.52762  1.0000
  C   C179      1.0  0.37404  0.53348  0.56164  1.0000
  N   N17       1.0  0.33093  0.85219  0.59044  1.0000
  S   S72       1.0  0.36752  0.81115  0.53278  1.0000
  H   H275      1.0  0.29927  0.80300  0.60215  1.0000
  C   C180      1.0  0.24172  0.62650  0.52406  1.0000
  S   S73       1.0  0.30624  0.54575  0.53218  1.0000
  H   H276      1.0  0.41547  0.51515  0.57866  1.0000
  C   C181      1.0  0.39632  0.69850  0.53594  1.0000
  C   C182      1.0  0.40011  0.81078  0.51502  1.0000
  H   H277      1.0  0.23527  0.62305  0.54690  1.0000
  H   H278      1.0  0.07454  0.83481  0.74627  1.0000
  H   H279      1.0  0.38987  0.55991  0.56285  1.0000
  H   H280      1.0  0.35079  0.52867  0.55276  1.0000
  C   C183      1.0  0.35891  0.85451  0.60536  1.0000
  H   H281      1.0  0.41738  0.63493  0.55473  1.0000
  S   S74       1.0  0.09502  0.78731  0.73597  1.0000
  H   H282      1.0  0.32139  0.87128  0.55228  1.0000
  C   C184      1.0  0.30900  0.81851  0.58258  1.0000
  C   C185      1.0  0.41991  0.63341  0.53147  1.0000
  H   H283      1.0  0.32948  0.88894  0.61612  1.0000
  H   H284      1.0  0.02040  0.82941  0.74736  1.0000
  Fe  Fe35      1.0  0.32108  0.79433  0.50880  1.0000
  C   C186      1.0  0.44738  0.65710  0.51701  1.0000
  H   H285      1.0  0.37100  0.68243  0.54294  1.0000
  Fe  Fe36      1.0  0.21045  0.84727  0.71250  1.0000
  S   S75       1.0  0.17288  0.85941  0.69980  1.0000
  H   H286      1.0  0.24053  0.67066  0.52127  1.0000
  Fe  Fe37      1.0  0.14537  0.83070  0.73919  1.0000
  C   C187      1.0  0.21858  0.82646  0.59766  1.0000
  C   C188      1.0  0.22069  0.83325  0.62763  1.0000
  H   H287      1.0  0.21154  0.83923  0.58300  1.0000
  H   H288      1.0  0.21552  0.85130  0.63591  1.0000
  N   N18       1.0  0.12340  0.75944  0.65769  1.0000
  C   C189      1.0  0.14502  0.76859  0.68268  1.0000
  C   C190      1.0  0.14199  0.77674  0.63148  1.0000
  C   C191      1.0  0.09823  0.76785  0.66373  1.0000
  C   C192      1.0  0.10838  0.72459  0.65286  1.0000
  H   H289      1.0  0.13165  0.75709  0.70316  1.0000
  H   H290      1.0  0.15761  0.79485  0.68630  1.0000
  H   H291      1.0  0.16397  0.76201  0.67926  1.0000
  H   H292      1.0  0.12663  0.77018  0.61204  1.0000
  H   H293      1.0  0.15330  0.80311  0.63435  1.0000
  H   H294      1.0  0.16150  0.77130  0.62651  1.0000
  H   H295      1.0  0.08240  0.76286  0.64482  1.0000
  H   H296      1.0  0.10876  0.79367  0.66928  1.0000
  H   H297      1.0  0.08269  0.75400  0.68251  1.0000
  H   H298      1.0  0.09164  0.71679  0.63433  1.0000
  H   H299      1.0  0.09447  0.71089  0.67240  1.0000
  H   H300      1.0  0.12675  0.71754  0.64794  1.0000
  Fe  Fe38      1.0  0.19772  0.90115  0.73076  1.0000
  H   H301      1.0  0.03201  0.73490  0.72596  1.0000
  C   C193      1.0  0.02961  0.75564  0.73061  1.0000
  C   C194      1.0  0.05713  0.78526  0.73613  1.0000
  S   S76       1.0  0.20309  0.95056  0.72383  1.0000
  C   C195      1.0  0.22969  0.81682  0.64672  1.0000
  C   C196      1.0  0.22582  0.80352  0.58646  1.0000
  S   S77       1.0  0.22211  0.79517  0.54874  1.0000
  H   H302      1.0  0.43091  0.51419  0.54304  1.0000
  S   S78       1.0  0.23346  0.82468  0.68446  1.0000
  H   H303      1.0  0.44494  0.75017  0.51120  1.0000
  C   C197      1.0  0.23439  0.78684  0.60566  1.0000
  C   C198      1.0  0.23852  0.98850  0.72600  1.0000
  H   H304      1.0  0.40969  0.68551  0.53936  1.0000
  C   C199      1.0  0.23665  0.79372  0.63555  1.0000
  H   H305      1.0  0.23895  0.76836  0.59747  1.0000
  C   C200      1.0  0.05362  0.81185  0.74203  1.0000
  C   C201      1.0  0.34187  0.87206  0.56384  1.0000
  S   S79       1.0  0.47683  0.68897  0.53729  1.0000
  H   H306      1.0  0.37425  0.59033  0.52730  1.0000
  H   H307      1.0  0.37602  0.87960  0.61172  1.0000
  H   H308      1.0  0.35907  0.89755  0.56883  1.0000
  H   H309      1.0  0.32128  0.80860  0.56910  1.0000
  H   H310      1.0  0.37222  0.84617  0.59102  1.0000
  C   C202      1.0  0.42526  0.81272  0.53152  1.0000
  H   H311      1.0  0.24349  0.78077  0.65018  1.0000
  H   H312      1.0  0.35149  0.83948  0.62534  1.0000
  H   H313      1.0  0.47076  0.81383  0.53076  1.0000
  C   C203      1.0  0.26890  0.99154  0.72709  1.0000
  H   H314      1.0  0.42451  0.81458  0.55490  1.0000
  S   S80       1.0  0.27653  0.75316  0.52856  1.0000
  H   H315      1.0  0.29234  0.86154  0.59921  1.0000
  H   H316      1.0  0.27133  0.97045  0.72546  1.0000
  C   C204      1.0  0.31384  0.86349  0.60986  1.0000
  C   C205      1.0  0.45140  0.81216  0.51792  1.0000
  H   H317      1.0  0.30523  0.84903  0.63019  1.0000
  H   H318      1.0  0.35411  0.86356  0.54838  1.0000
  Fe  Fe39      1.0  0.25370  0.78323  0.51953  1.0000
  S   S81       1.0  0.23752  0.89121  0.74032  1.0000
  H   H319      1.0  0.36888  0.52375  0.58417  1.0000
  C   C206      1.0  0.39543  0.60813  0.51598  1.0000
  H   H320      1.0  0.39154  0.74782  0.51667  1.0000
  C   C207      1.0  0.24662  0.60376  0.50912  1.0000
  Fe  Fe40      1.0  0.26133  0.53884  0.51185  1.0000
  H   H321      1.0  0.40686  0.71954  0.55072  1.0000
  C   C208      1.0  0.02286  0.80871  0.74263  1.0000
  S   S82       1.0  0.18198  0.81657  0.75054  1.0000
  C   C209      1.0  0.24475  0.65353  0.50960  1.0000
  C   C210      1.0  0.39457  0.53189  0.51383  1.0000
  H   H322      1.0  0.41135  0.55821  0.51373  1.0000
  H   H323      1.0  0.35566  0.71183  0.50732  1.0000
  N   N19       1.0  0.39862  0.70850  0.50533  1.0000
  H   H324      1.0  0.37201  0.52776  0.50375  1.0000
  H   H325      1.0  0.01162  0.75911  0.79603  1.0000
  S   S83       1.0  0.28405  0.54529  0.96842  1.0000
  H   H326      1.0  0.42306  0.71554  0.99789  1.0000
  C   C211      1.0  0.35916  0.68389  0.99443  1.0000
  H   H327      1.0  0.32504  0.57626  0.86980  1.0000
  H   H328      1.0  0.41712  0.63327  0.93344  1.0000
  H   H329      1.0  0.26531  0.95991  0.84863  1.0000
  C   C212      1.0  0.40365  0.60032  0.96932  1.0000
  Fe  Fe41      1.0  0.32519  0.53892  0.98090  1.0000
  H   H330      1.0  0.16923  0.72570  0.94851  1.0000
  N   N20       1.0  0.31638  0.52847  0.87690  1.0000
  H   H331      1.0  0.19021  0.93062  0.80738  1.0000
  H   H332      1.0  0.27759  0.52712  0.85324  1.0000
  S   S84       1.0  0.36816  0.57138  0.95276  1.0000
  C   C213      1.0  0.41160  0.68902  0.99641  1.0000
  C   C214      1.0  0.42394  0.62890  0.95441  1.0000
  H   H333      1.0  0.36031  0.53898  0.85492  1.0000
  C   C215      1.0  0.20781  0.94040  0.82524  1.0000
  H   H334      1.0  0.20982  0.92008  0.83424  1.0000
  H   H335      1.0  0.27555  0.97265  0.78331  1.0000
  H   H336      1.0  0.25556  0.93420  0.80069  1.0000
  Fe  Fe42      1.0  0.24693  0.72562  0.99788  1.0000
  H   H337      1.0  0.10954  0.64404  0.92372  1.0000
  C   C216      1.0  0.23516  0.99231  0.80210  1.0000
  C   C217      1.0  0.32847  0.56180  0.88656  1.0000
  H   H338      1.0  0.31593  0.56263  0.90684  1.0000
  C   C218      1.0  0.45328  0.65166  0.96631  1.0000
  H   H339      1.0  0.35739  0.67819  0.97087  1.0000
  H   H340      1.0  0.14011  0.65880  0.89575  1.0000
  H   H341      1.0  0.41132  0.68284  0.97308  1.0000
  C   C219      1.0  0.13500  0.65128  0.91894  1.0000
  H   H342      1.0  0.20845  0.60956  0.97917  1.0000
  H   H343      1.0  0.13751  0.62967  0.92145  1.0000
  C   C220      1.0  0.22705  0.61899  0.99521  1.0000
  C   C221      1.0  0.31617  0.82638  0.86011  1.0000
  H   H344      1.0  0.33057  0.86206  0.90814  1.0000
  H   H345      1.0  0.25082  0.87690  0.88038  1.0000
  H   H346      1.0  0.32340  0.77615  0.87374  1.0000
  H   H347      1.0  0.12800  0.69997  0.93955  1.0000
  N   N21       1.0  0.23918  0.96639  0.81462  1.0000
  H   H348      1.0  0.37681  0.83530  0.90316  1.0000
  H   H349      1.0  0.29104  0.77475  0.89494  1.0000
  H   H350      1.0  0.33316  0.83413  0.93190  1.0000
  H   H351      1.0  0.32489  0.85212  0.85562  1.0000
  C   C222      1.0  0.22711  0.84227  0.84655  1.0000
  C   C223      1.0  0.32209  0.83621  0.91162  1.0000
  H   H352      1.0  0.28955  0.81424  0.86216  1.0000
  H   H353      1.0  0.42115  0.80905  0.95161  1.0000
  H   H354      1.0  0.29572  0.82392  0.91542  1.0000
  C   C224      1.0  0.41265  0.59476  0.99636  1.0000
  S   S85       1.0  0.22783  0.76889  0.90958  1.0000
  H   H355      1.0  0.32776  0.78363  0.91208  1.0000
  H   H356      1.0  0.25103  0.83780  0.91513  1.0000
  H   H357      1.0  0.32201  0.81617  0.84078  1.0000
  C   C225      1.0  0.21429  0.78803  0.85845  1.0000
  H   H358      1.0  0.37287  0.82825  0.86471  1.0000
  H   H359      1.0  0.20405  0.76321  0.85217  1.0000
  Fe  Fe43      1.0  0.20574  0.86115  0.77738  1.0000
  Fe  Fe44      1.0  0.24924  0.77506  0.95453  1.0000
  C   C226      1.0  0.24093  0.82997  0.89385  1.0000
  C   C227      1.0  0.36562  0.83826  0.88327  1.0000
  H   H360      1.0  0.37614  0.86441  0.87948  1.0000
  H   H361      1.0  0.20348  0.80226  0.81762  1.0000
  C   C228      1.0  0.21396  0.81011  0.83877  1.0000
  C   C229      1.0  0.22766  0.79779  0.88608  1.0000
  C   C230      1.0  0.24069  0.85209  0.87413  1.0000
  N   N22       1.0  0.33038  0.82214  0.88670  1.0000
  S   S86       1.0  0.22726  0.87105  0.82263  1.0000
  S   S87       1.0  0.27486  0.74721  0.95714  1.0000
  C   C231      1.0  0.31759  0.78763  0.89205  1.0000
  S   S88       1.0  0.21940  0.67157  0.99575  1.0000
  C   C232      1.0  0.19029  0.68604  0.93118  1.0000
  C   C233      1.0  0.41485  0.79875  0.97316  1.0000
  H   H362      1.0  0.36270  0.63075  0.98308  1.0000
  H   H363      1.0  0.15263  0.64534  0.97274  1.0000
  H   H364      1.0  0.23092  0.57621  0.99636  1.0000
  Fe  Fe45      1.0  0.31046  0.78621  0.98505  1.0000
  C   C234      1.0  0.43581  0.79141  0.98774  1.0000
  H   H365      1.0  0.12434  0.65945  0.97511  1.0000
  H   H366      1.0  0.19440  0.66547  0.93425  1.0000
  C   C235      1.0  0.28197  0.51362  0.87030  1.0000
  S   S89       1.0  0.28687  0.81610  0.97992  1.0000
  C   C236      1.0  0.38606  0.79327  0.98648  1.0000
  H   H367      1.0  0.23538  0.94364  0.77359  1.0000
  H   H368      1.0  0.25283  0.98871  0.85646  1.0000
  H   H369      1.0  0.19750  0.94892  0.84256  1.0000
  S   S90       1.0  0.21885  0.75114  0.99406  1.0000
  H   H370      1.0  0.20730  0.70552  0.94548  1.0000
  C   C237      1.0  0.14937  0.66632  0.96884  1.0000
  S   S91       1.0  0.49584  0.74360  0.97492  1.0000
  H   H371      1.0  0.19704  0.69481  0.90844  1.0000
  H   H372      1.0  0.46896  0.67339  0.95450  1.0000
  S   S92       1.0  0.16695  0.87311  0.76916  1.0000
  C   C238      1.0  0.26175  0.97901  0.83892  1.0000
  C   C239      1.0  0.25202  0.95370  0.79208  1.0000
  S   S93       1.0  0.36103  0.80409  0.96806  1.0000
  H   H373      1.0  0.16555  0.68533  0.98408  1.0000
  N   N23       1.0  0.15686  0.67730  0.93833  1.0000
  H   H374      1.0  0.15874  0.71469  0.91160  1.0000
  H   H375      1.0  0.26755  0.51256  0.88991  1.0000
  C   C240      1.0  0.15289  0.70553  0.93432  1.0000
  H   H376      1.0  0.45810  0.79605  0.97742  1.0000
  H   H377      1.0  0.35448  0.57385  0.89144  1.0000
  H   H378      1.0  0.01720  0.76422  0.83450  1.0000
  H   H379      1.0  0.33165  0.54196  0.83256  1.0000
  C   C241      1.0  0.46294  0.64550  0.99278  1.0000
  H   H380      1.0  0.36942  0.71027  0.99651  1.0000
  C   C242      1.0  0.33429  0.52824  0.85059  1.0000
  H   H381      1.0  0.21741  0.98316  0.78432  1.0000
  H   H382      1.0  0.34630  0.52160  0.90678  1.0000
  H   H383      1.0  0.30648  0.50872  0.91999  1.0000
  H   H384      1.0  0.28566  0.99867  0.83153  1.0000
  C   C243      1.0  0.32079  0.51019  0.90022  1.0000
  H   H385      1.0  0.22648  0.00323  0.81867  1.0000
  Fe  Fe46      1.0  0.84275  0.18847  0.22661  1.0000
  S   S94       1.0  0.81851  0.20779  0.19707  1.0000
  S   S95       1.0  0.87024  0.16318  0.21529  1.0000
  H   H386      1.0  0.80399  0.06514  0.21587  1.0000
  S   S96       1.0  0.55586  0.28675  0.01875  1.0000
  S   S97       1.0  0.96038  0.23515  0.22177  1.0000
  S   S98       1.0  0.78934  0.28667  0.04522  1.0000
  Fe  Fe47      1.0  0.79899  0.24751  0.03107  1.0000
  S   S99       1.0  0.81319  0.21783  0.05937  1.0000
  H   H387      1.0  0.84317  0.50212  0.05370  1.0000
  S   S100      1.0  0.75359  0.22065  0.00557  1.0000
  Fe  Fe48      1.0  0.91044  0.20202  0.24119  1.0000
  S   S101      1.0  0.69876  0.25219  0.03908  1.0000
  C   C244      1.0  0.64178  0.25050  0.03048  1.0000
  C   C245      1.0  0.80000  0.04428  0.22799  1.0000
  H   H388      1.0  0.64051  0.25194  0.05386  1.0000
  H   H389      1.0  0.59699  0.24960  0.02395  1.0000
  C   C246      1.0  0.81767  0.21035  0.15872  1.0000
  C   C247      1.0  0.82065  0.18882  0.14022  1.0000
  C   C248      1.0  0.81948  0.19168  0.10989  1.0000
  C   C249      1.0  0.81526  0.21599  0.09769  1.0000
  C   C250      1.0  0.81254  0.23767  0.11619  1.0000
  C   C251      1.0  0.81331  0.23457  0.14653  1.0000
  H   H390      1.0  0.82332  0.16964  0.14927  1.0000
  H   H391      1.0  0.82151  0.17472  0.09577  1.0000
  H   H392      1.0  0.81010  0.25698  0.10716  1.0000
  H   H393      1.0  0.81097  0.25134  0.16066  1.0000
  H   H394      1.0  0.51989  0.28655  0.24141  1.0000
  H   H395      1.0  0.64848  0.39157  0.05102  1.0000
  Fe  Fe49      1.0  0.74527  0.26110  0.01782  1.0000
  H   H396      1.0  0.91783  0.21451  0.17388  1.0000
  H   H397      1.0  0.96647  0.26543  0.16529  1.0000
  N   N24       1.0  0.71399  0.19104  0.09579  1.0000
  C   C252      1.0  0.72591  0.17302  0.11233  1.0000
  C   C253      1.0  0.70380  0.17652  0.06679  1.0000
  C   C254      1.0  0.73990  0.22457  0.09249  1.0000
  C   C255      1.0  0.68655  0.19031  0.11141  1.0000
  H   H398      1.0  0.73445  0.18369  0.13414  1.0000
  H   H399      1.0  0.74656  0.17315  0.10082  1.0000
  H   H400      1.0  0.70699  0.14760  0.11548  1.0000
  H   H401      1.0  0.69586  0.19035  0.05331  1.0000
  H   H402      1.0  0.72379  0.17596  0.05475  1.0000
  H   H403      1.0  0.68357  0.15150  0.06832  1.0000
  H   H404      1.0  0.73148  0.23932  0.08132  1.0000
  H   H405      1.0  0.76019  0.22609  0.07934  1.0000
  H   H406      1.0  0.74935  0.23595  0.11385  1.0000
  H   H407      1.0  0.67718  0.20374  0.09917  1.0000
  H   H408      1.0  0.69355  0.20147  0.13324  1.0000
  H   H409      1.0  0.66648  0.16537  0.11442  1.0000
  N   N25       1.0  0.91948  0.25478  0.15244  1.0000
  C   C256      1.0  0.90557  0.21991  0.15642  1.0000
  C   C257      1.0  0.91370  0.26863  0.17903  1.0000
  C   C258      1.0  0.90431  0.26091  0.12756  1.0000
  C   C259      1.0  0.95434  0.26962  0.14683  1.0000
  H   H410      1.0  0.87981  0.20827  0.16278  1.0000
  H   H411      1.0  0.90759  0.20817  0.13626  1.0000
  H   H412      1.0  0.92346  0.29484  0.17678  1.0000
  H   H413      1.0  0.88758  0.25750  0.18421  1.0000
  H   H414      1.0  0.92514  0.26470  0.19813  1.0000
  H   H415      1.0  0.91453  0.28698  0.12363  1.0000
  H   H416      1.0  0.87816  0.25058  0.13142  1.0000
  H   H417      1.0  0.90735  0.25005  0.10721  1.0000
  H   H418      1.0  0.96571  0.29596  0.14379  1.0000
  H   H419      1.0  0.95951  0.25948  0.12705  1.0000
  C   C260      1.0  0.78229  0.01345  0.21581  1.0000
  H   H420      1.0  0.51489  0.24874  0.22939  1.0000
  H   H421      1.0  0.64215  0.34427  0.01451  1.0000
  C   C261      1.0  0.66817  0.25027  0.01725  1.0000
  C   C262      1.0  0.66284  0.42728  0.01746  1.0000
  C   C263      1.0  0.99865  0.24778  0.23672  1.0000
  C   C264      1.0  0.64105  0.39894  0.03193  1.0000
  H   H422      1.0  0.59333  0.35792  0.03294  1.0000
  Fe  Fe50      1.0  0.74403  0.49084  0.00747  1.0000
  S   S102      1.0  0.70231  0.44890  0.03032  1.0000
  C   C265      1.0  0.60983  0.37979  0.02169  1.0000
  H   H423      1.0  0.77271  0.01087  0.19428  1.0000
  H   H424      1.0  0.65940  0.31883  0.01213  1.0000
  C   C266      1.0  0.61710  0.24913  0.01360  1.0000
  S   S103      1.0  0.88376  0.22826  0.25012  1.0000
  H   H425      1.0  0.86682  0.50125  0.08291  1.0000
  Fe  Fe51      1.0  0.81370  0.31156  0.00352  1.0000
  S   S104      1.0  0.82538  0.27700  0.49281  1.0000
  H   H426      1.0  0.58076  0.37065  0.46478  1.0000
  H   H427      1.0  0.65250  0.25872  0.44459  1.0000
  H   H428      1.0  0.68904  0.48693  0.36081  1.0000
  N   N26       1.0  0.96867  0.27129  0.32473  1.0000
  C   C267      1.0  0.82675  0.41568  0.49439  1.0000
  Fe  Fe52      1.0  0.86426  0.19882  0.29066  1.0000
  S   S105      1.0  0.87136  0.22632  0.33308  1.0000
  S   S106      1.0  0.89382  0.17501  0.28323  1.0000
  H   H429      1.0  0.62401  0.41789  0.43877  1.0000
  C   C268      1.0  0.95654  0.23712  0.33130  1.0000
  H   H430      1.0  0.73559  0.00563  0.29034  1.0000
  S   S107      1.0  0.54302  0.29452  0.45694  1.0000
  Fe  Fe53      1.0  0.77906  0.24312  0.47159  1.0000
  S   S108      1.0  0.76885  0.21344  0.43018  1.0000
  S   S109      1.0  0.75931  0.27666  0.47639  1.0000
  C   C269      1.0  0.69048  0.20183  0.43740  1.0000
  H   H431      1.0  0.66107  0.35221  0.44421  1.0000
  H   H432      1.0  0.65886  0.31591  0.45609  1.0000
  H   H433      1.0  0.93291  0.27352  0.35167  1.0000
  C   C270      1.0  0.67139  0.34225  0.45965  1.0000
  C   C271      1.0  0.84226  0.22222  0.35967  1.0000
  C   C272      1.0  0.85237  0.24224  0.38419  1.0000
  C   C273      1.0  0.83027  0.23991  0.40591  1.0000
  C   C274      1.0  0.79772  0.21744  0.40338  1.0000
  C   C275      1.0  0.78760  0.19740  0.37887  1.0000
  C   C276      1.0  0.80971  0.19975  0.35711  1.0000
  H   H434      1.0  0.87745  0.25972  0.38641  1.0000
  H   H435      1.0  0.83842  0.25549  0.42461  1.0000
  H   H436      1.0  0.76250  0.17994  0.37666  1.0000
  H   H437      1.0  0.80158  0.18419  0.33840  1.0000
  S   S110      1.0  0.59063  0.25089  0.45670  1.0000
  Fe  Fe54      1.0  0.54933  0.25522  0.47609  1.0000
  H   H438      1.0  0.62081  0.34372  0.48191  1.0000
  H   H439      1.0  0.67584  0.21365  0.43505  1.0000
  H   H440      1.0  0.92995  0.22378  0.33393  1.0000
  H   H441      1.0  0.67924  0.13119  0.46379  1.0000
  C   C277      1.0  0.64733  0.25318  0.46745  1.0000
  N   N27       1.0  0.67200  0.17015  0.45151  1.0000
  C   C278      1.0  0.66153  0.17398  0.48089  1.0000
  C   C279      1.0  0.69243  0.15539  0.45373  1.0000
  C   C280      1.0  0.60027  0.38937  0.47679  1.0000
  S   S111      1.0  0.83535  0.08616  0.27235  1.0000
  C   C281      1.0  0.64365  0.14948  0.43398  1.0000
  H   H442      1.0  0.81725  0.02329  0.29248  1.0000
  H   H443      1.0  0.72846  0.49620  0.41415  1.0000
  H   H444      1.0  0.70172  0.15314  0.43204  1.0000
  H   H445      1.0  0.98221  0.21152  0.26983  1.0000
  C   C282      1.0  0.68332  0.38508  0.49350  1.0000
  C   C283      1.0  0.61812  0.24801  0.47940  1.0000
  C   C284      1.0  0.80733  0.02059  0.27109  1.0000
  H   H446      1.0  0.64807  0.15068  0.49250  1.0000
  S   S112      1.0  0.83269  0.36187  0.49575  1.0000
  H   H447      1.0  0.71189  0.21802  0.45019  1.0000
  H   H448      1.0  0.62783  0.16008  0.43187  1.0000
  H   H449      1.0  0.62906  0.12537  0.44402  1.0000
  C   C285      1.0  0.67002  0.25150  0.48495  1.0000
  H   H450      1.0  0.69245  0.25574  0.47555  1.0000
  C   C286      1.0  0.95468  0.27403  0.29737  1.0000
  C   C287      1.0  0.63288  0.33543  0.49710  1.0000
  H   H451      1.0  0.74178  0.49576  0.37764  1.0000
  H   H452      1.0  0.67699  0.48889  0.39751  1.0000
  H   H453      1.0  0.71380  0.17026  0.46719  1.0000
  H   H454      1.0  0.69953  0.20001  0.41544  1.0000
  H   H455      1.0  0.96273  0.22525  0.31359  1.0000
  H   H456      1.0  0.65079  0.14616  0.41167  1.0000
  Fe  Fe55      1.0  0.72816  0.50133  0.48034  1.0000
  C   C288      1.0  0.68991  0.50362  0.37803  1.0000
  Fe  Fe56      1.0  0.80356  0.30819  0.50139  1.0000
  S   S113      1.0  0.82081  0.16054  0.26822  1.0000
  H   H457      1.0  0.96041  0.26250  0.27902  1.0000
  H   H458      1.0  0.67328  0.39578  0.47858  1.0000
  H   H459      1.0  0.92812  0.26217  0.29923  1.0000
  H   H460      1.0  0.96662  0.23402  0.35174  1.0000
  H   H461      1.0  0.84722  0.42535  0.47967  1.0000
  C   C289      1.0  0.64996  0.44076  0.47752  1.0000
  S   S114      1.0  0.76427  0.48841  0.46420  1.0000
  S   S115      1.0  0.68016  0.47428  0.45866  1.0000
  C   C290      1.0  0.00270  0.23235  0.26049  1.0000
  H   H462      1.0  0.96956  0.28418  0.36962  1.0000
  C   C291      1.0  0.62473  0.41617  0.46211  1.0000
  N   N28       1.0  0.66742  0.34994  0.49001  1.0000
  C   C292      1.0  0.95943  0.28584  0.34864  1.0000
  H   H463      1.0  0.70958  0.39677  0.48892  1.0000
  H   H464      1.0  0.96370  0.29944  0.29133  1.0000
  H   H465      1.0  0.96777  0.31150  0.34427  1.0000
  H   H466      1.0  0.64568  0.18463  0.48010  1.0000
  Fe  Fe57      1.0  0.85115  0.13769  0.25841  1.0000
  H   H467      1.0  0.82341  0.45882  0.49447  1.0000
  H   H468      1.0  0.69711  0.35209  0.45365  1.0000
  C   C293      1.0  0.81268  0.04805  0.25573  1.0000
  H   H469      1.0  0.68236  0.19003  0.49450  1.0000
  H   H470      1.0  0.62037  0.30886  0.49547  1.0000
  C   C294      1.0  0.00397  0.28812  0.32156  1.0000
  C   C295      1.0  0.81325  0.43465  0.50269  1.0000
  Fe  Fe58      1.0  0.54035  0.30773  0.50322  1.0000
  Fe  Fe59      1.0  0.84904  0.19512  0.72752  1.0000
  S   S116      1.0  0.81316  0.19918  0.69852  1.0000
  S   S117      1.0  0.88206  0.17788  0.71165  1.0000
  S   S118      1.0  0.54985  0.27067  0.52189  1.0000
  Fe  Fe60      1.0  0.91843  0.21433  0.74187  1.0000
  N   N29       1.0  0.76918  0.10087  0.69156  1.0000
  S   S119      1.0  0.78247  0.28643  0.54472  1.0000
  Fe  Fe61      1.0  0.80136  0.25305  0.53530  1.0000
  S   S120      1.0  0.83406  0.24633  0.56637  1.0000
  S   S121      1.0  0.96946  0.24489  0.72374  1.0000
  H   H471      1.0  0.51412  0.31736  0.56044  1.0000
  C   C296      1.0  0.68205  0.33689  0.50967  1.0000
  H   H472      1.0  0.92109  0.09578  0.72914  1.0000
  H   H473      1.0  0.62852  0.23216  0.54903  1.0000
  C   C297      1.0  0.75917  0.10949  0.71912  1.0000
  H   H474      1.0  0.73294  0.10306  0.66668  1.0000
  H   H475      1.0  0.95692  0.09674  0.74086  1.0000
  C   C298      1.0  0.81959  0.21271  0.66188  1.0000
  C   C299      1.0  0.84826  0.22142  0.64681  1.0000
  C   C300      1.0  0.85213  0.23152  0.61761  1.0000
  C   C301      1.0  0.82747  0.23302  0.60309  1.0000
  C   C302      1.0  0.79881  0.22441  0.61817  1.0000
  C   C303      1.0  0.79491  0.21424  0.64737  1.0000
  H   H476      1.0  0.86748  0.22041  0.65764  1.0000
  H   H477      1.0  0.87442  0.23814  0.60619  1.0000
  H   H478      1.0  0.77963  0.22549  0.60734  1.0000
  H   H479      1.0  0.77264  0.20762  0.65882  1.0000
  H   H480      1.0  0.66963  0.45738  0.51980  1.0000
  H   H481      1.0  0.92186  0.38575  0.57317  1.0000
  C   C304      1.0  0.63400  0.23842  0.52631  1.0000
  C   C305      1.0  0.75936  0.11332  0.66690  1.0000
  S   S122      1.0  0.69006  0.23873  0.53635  1.0000
  H   H482      1.0  0.88882  0.31515  0.55585  1.0000
  H   H483      1.0  0.95575  0.16439  0.70263  1.0000
  C   C306      1.0  0.90654  0.36704  0.58937  1.0000
  H   H484      1.0  0.74263  0.46729  0.58558  1.0000
  C   C307      1.0  0.87721  0.32968  0.55144  1.0000
  H   H485      1.0  0.87241  0.38265  0.55371  1.0000
  H   H486      1.0  0.00281  0.18528  0.75110  1.0000
  H   H487      1.0  0.76088  0.05832  0.66888  1.0000
  Fe  Fe62      1.0  0.73953  0.25228  0.51914  1.0000
  S   S123      1.0  0.73842  0.49926  0.52697  1.0000
  H   H488      1.0  0.89112  0.34724  0.53394  1.0000
  N   N30       1.0  0.52338  0.30741  0.60349  1.0000
  H   H489      1.0  0.52038  0.29240  0.64790  1.0000
  C   C308      1.0  0.53880  0.34168  0.61118  1.0000
  H   H490      1.0  0.73650  0.50063  0.59238  1.0000
  H   H491      1.0  0.81281  0.10705  0.70953  1.0000
  C   C309      1.0  0.75396  0.06566  0.68948  1.0000
  H   H492      1.0  0.56243  0.31370  0.57569  1.0000
  H   H493      1.0  0.53718  0.27353  0.58860  1.0000
  C   C310      1.0  0.54816  0.29927  0.59479  1.0000
  H   H494      1.0  0.72883  0.47225  0.62079  1.0000
  H   H495      1.0  0.81284  0.10867  0.67062  1.0000
  H   H496      1.0  0.73276  0.09928  0.72045  1.0000
  H   H497      1.0  0.76697  0.10776  0.64574  1.0000
  H   H498      1.0  0.76634  0.10065  0.73822  1.0000
  H   H499      1.0  0.77035  0.13595  0.72140  1.0000
  H   H500      1.0  0.81648  0.14171  0.69156  1.0000
  C   C311      1.0  0.80436  0.11514  0.69079  1.0000
  H   H501      1.0  0.77038  0.13987  0.66805  1.0000
  H   H502      1.0  0.76127  0.05564  0.70762  1.0000
  H   H503      1.0  0.72736  0.05398  0.69033  1.0000
  H   H504      1.0  0.90526  0.37939  0.60943  1.0000
  C   C312      1.0  0.62585  0.41193  0.52242  1.0000
  H   H505      1.0  0.86585  0.30619  0.60568  1.0000
  H   H506      1.0  0.79905  0.50334  0.56993  1.0000
  C   C313      1.0  0.94609  0.15941  0.72528  1.0000
  H   H507      1.0  0.83431  0.34885  0.56202  1.0000
  C   C314      1.0  0.78914  0.48374  0.62489  1.0000
  H   H508      1.0  0.91891  0.35350  0.59488  1.0000
  H   H509      1.0  0.78754  0.46525  0.60923  1.0000
  H   H510      1.0  0.84543  0.03068  0.73054  1.0000
  H   H511      1.0  0.62870  0.34158  0.51946  1.0000
  H   H512      1.0  0.67057  0.31041  0.50765  1.0000
  C   C315      1.0  0.61161  0.24091  0.50896  1.0000
  H   H513      1.0  0.58902  0.23653  0.51832  1.0000
  C   C316      1.0  0.82338  0.02841  0.73926  1.0000
  H   H514      1.0  0.55297  0.35712  0.59243  1.0000
  H   H515      1.0  0.85328  0.31300  0.54268  1.0000
  C   C317      1.0  0.77460  0.39132  0.53305  1.0000
  H   H516      1.0  0.75475  0.38195  0.54844  1.0000
  H   H517      1.0  0.00401  0.16455  0.71916  1.0000
  N   N31       1.0  0.87430  0.34553  0.57793  1.0000
  S   S124      1.0  0.75631  0.21651  0.51336  1.0000
  C   C318      1.0  0.85868  0.36434  0.57078  1.0000
  S   S125      1.0  0.56986  0.35486  0.52642  1.0000
  C   C319      1.0  0.78744  0.42267  0.52243  1.0000
  H   H518      1.0  0.67952  0.34229  0.53276  1.0000
  C   C320      1.0  0.66323  0.24363  0.51435  1.0000
  H   H519      1.0  0.62616  0.41063  0.54582  1.0000
  H   H520      1.0  0.83045  0.30400  0.59197  1.0000
  H   H521      1.0  0.77406  0.47105  0.64425  1.0000
  H   H522      1.0  0.56503  0.30366  0.61268  1.0000
  Fe  Fe63      1.0  0.77683  0.48936  0.51082  1.0000
  C   C321      1.0  0.78752  0.37206  0.52412  1.0000
  H   H523      1.0  0.85191  0.33187  0.62035  1.0000
  C   C322      1.0  0.74515  0.48530  0.60221  1.0000
  H   H524      1.0  0.91952  0.14548  0.72418  1.0000
  H   H525      1.0  0.85614  0.37683  0.59014  1.0000
  C   C323      1.0  0.85482  0.32098  0.60001  1.0000
  S   S126      1.0  0.77190  0.44668  0.53589  1.0000
  C   C324      1.0  0.94779  0.11044  0.72889  1.0000
  H   H526      1.0  0.77750  0.34799  0.53252  1.0000
  H   H527      1.0  0.55544  0.34747  0.62957  1.0000
  H   H528      1.0  0.68020  0.39179  0.51599  1.0000
  C   C325      1.0  0.99405  0.16099  0.74169  1.0000
  H   H529      1.0  0.95263  0.18279  0.73541  1.0000
  C   C326      1.0  0.00658  0.25620  0.74051  1.0000
  C   C327      1.0  0.82228  0.05612  0.74717  1.0000
  H   H530      1.0  0.95606  0.11265  0.70587  1.0000
  S   S127      1.0  0.85732  0.09430  0.74236  1.0000
  N   N32       1.0  0.95865  0.14220  0.74205  1.0000
  Fe  Fe64      1.0  0.86383  0.14426  0.74993  1.0000
  C   C328      1.0  0.60062  0.38739  0.50704  1.0000
  C   C329      1.0  0.65060  0.43838  0.50770  1.0000
  H   H531      1.0  0.52066  0.34858  0.61753  1.0000
  H   H532      1.0  0.81446  0.49773  0.63198  1.0000
  C   C330      1.0  0.81400  0.38437  0.50510  1.0000
  H   H533      1.0  0.70810  0.34714  0.50480  1.0000
  C   C331      1.0  0.84484  0.31646  0.92314  1.0000
  S   S128      1.0  0.76590  0.48633  0.96541  1.0000
  H   H534      1.0  0.82536  0.37357  0.90827  1.0000
  S   S129      1.0  0.82792  0.27480  0.99163  1.0000
  C   C332      1.0  0.59988  0.38925  0.99725  1.0000
  S   S130      1.0  0.58921  0.24740  0.96117  1.0000
  Fe  Fe65      1.0  0.86841  0.19729  0.79081  1.0000
  S   S131      1.0  0.86929  0.20901  0.83906  1.0000
  S   S132      1.0  0.90266  0.17960  0.77893  1.0000
  Fe  Fe66      1.0  0.55086  0.25721  0.97928  1.0000
  Fe  Fe67      1.0  0.53774  0.31145  0.98978  1.0000
  H   H535      1.0  0.82569  0.30279  0.93949  1.0000
  S   S133      1.0  0.53562  0.28382  0.94961  1.0000
  Fe  Fe68      1.0  0.78190  0.25114  0.96728  1.0000
  S   S134      1.0  0.77599  0.23616  0.91968  1.0000
  S   S135      1.0  0.76908  0.28930  0.97741  1.0000
  C   C333      1.0  0.66959  0.24828  0.98704  1.0000
  C   C334      1.0  0.64471  0.24646  0.97020  1.0000
  H   H536      1.0  0.79245  0.07370  0.76507  1.0000
  H   H537      1.0  0.64585  0.24477  0.94683  1.0000
  H   H538      1.0  0.68966  0.24776  0.97666  1.0000
  C   C335      1.0  0.84311  0.21689  0.86081  1.0000
  C   C336      1.0  0.85004  0.22427  0.89034  1.0000
  C   C337      1.0  0.82982  0.23025  0.90866  1.0000
  C   C338      1.0  0.80231  0.22883  0.89761  1.0000
  C   C339      1.0  0.79550  0.22176  0.86803  1.0000
  C   C340      1.0  0.81577  0.21584  0.84969  1.0000
  H   H539      1.0  0.87109  0.22509  0.89917  1.0000
  H   H540      1.0  0.83535  0.23556  0.93136  1.0000
  H   H541      1.0  0.77426  0.22057  0.85926  1.0000
  H   H542      1.0  0.81012  0.21018  0.82704  1.0000
  C   C341      1.0  0.94652  0.13805  0.77234  1.0000
  C   C342      1.0  0.61857  0.24723  0.98337  1.0000
  H   H543      1.0  0.98644  0.23090  0.78061  1.0000
  H   H544      1.0  0.86714  0.33218  0.93518  1.0000
  H   H545      1.0  0.86332  0.33338  0.86774  1.0000
  S   S136      1.0  0.85238  0.36305  0.99670  1.0000
  H   H546      1.0  0.66275  0.37312  0.93783  1.0000
  H   H547      1.0  0.64410  0.37598  0.97070  1.0000
  S   S137      1.0  0.56110  0.36506  0.98355  1.0000
  C   C343      1.0  0.81983  0.39797  0.99711  1.0000
  H   H548      1.0  0.84850  0.29865  0.91062  1.0000
  H   H549      1.0  0.69268  0.39102  0.99882  1.0000
  C   C344      1.0  0.62134  0.41815  0.98324  1.0000
  C   C345      1.0  0.79357  0.05271  0.75846  1.0000
  H   H550      1.0  0.81448  0.34787  0.93950  1.0000
  N   N33       1.0  0.83570  0.33504  0.90417  1.0000
  C   C346      1.0  0.64904  0.35958  0.95746  1.0000
  H   H551      1.0  0.71243  0.38999  0.96589  1.0000
  C   C347      1.0  0.83263  0.35924  0.92168  1.0000
  H   H552      1.0  0.85561  0.37617  0.93225  1.0000
  N   N34       1.0  0.66687  0.34768  0.97420  1.0000
  C   C348      1.0  0.81950  0.42720  0.99517  1.0000
  H   H553      1.0  0.95505  0.12467  0.78559  1.0000
  C   C349      1.0  0.86062  0.35113  0.88136  1.0000
  H   H554      1.0  0.80595  0.29394  0.87799  1.0000
  H   H555      1.0  0.62369  0.30904  0.99265  1.0000
  H   H556      1.0  0.79772  0.37565  0.00052  1.0000
  H   H557      1.0  0.91981  0.12453  0.77331  1.0000
  S   S138      1.0  0.82837  0.15915  0.76442  1.0000
  C   C350      1.0  0.69720  0.37503  0.98434  1.0000
  H   H558      1.0  0.61369  0.42568  0.96440  1.0000
  C   C351      1.0  0.65295  0.43692  0.99305  1.0000
  H   H559      1.0  0.78533  0.30079  0.90728  1.0000
  H   H560      1.0  0.95452  0.16159  0.78303  1.0000
  H   H561      1.0  0.79716  0.32608  0.87568  1.0000
  H   H562      1.0  0.88434  0.36749  0.89099  1.0000
  H   H563      1.0  0.85463  0.36558  0.86670  1.0000
  C   C352      1.0  0.80472  0.31315  0.89060  1.0000
  H   H564      1.0  0.62546  0.33960  0.95035  1.0000
  H   H565      1.0  0.89998  0.42728  0.98868  1.0000
  H   H566      1.0  0.79715  0.42733  0.99709  1.0000
  H   H567      1.0  0.65135  0.30629  0.94711  1.0000
  C   C353      1.0  0.76632  0.02197  0.76155  1.0000
  C   C354      1.0  0.64722  0.32916  0.99950  1.0000
  H   H568      1.0  0.66954  0.45882  0.98185  1.0000
  C   C355      1.0  0.67385  0.32680  0.95550  1.0000
  H   H569      1.0  0.68909  0.34007  0.93644  1.0000
  H   H570      1.0  0.71134  0.36686  0.99688  1.0000
  S   S139      1.0  0.88654  0.23432  0.75508  1.0000
  H   H571      1.0  0.68647  0.31659  0.96766  1.0000
  S   S140      1.0  0.85101  0.49418  0.98862  1.0000
  C   C356      1.0  0.87707  0.45575  0.98858  1.0000
  C   C357      1.0  0.84899  0.39796  0.99486  1.0000
  H   H572      1.0  0.74426  0.01964  0.77031  1.0000
  H   H573      1.0  0.89940  0.47789  0.98524  1.0000
  C   C358      1.0  0.84833  0.45622  0.99091  1.0000
  C   C359      1.0  0.87739  0.42697  0.99049  1.0000
  H   H574      1.0  0.00451  0.14901  0.75443  1.0000
  H   H575      1.0  0.83447  0.54258  0.08051  1.0000
  S   S141      1.0  0.82070  0.61236  0.18835  1.0000
  C   C360      1.0  0.76286  0.67042  0.13388  1.0000
  Fe  Fe69      1.0  0.80075  0.55730  0.02102  1.0000
  H   H576      1.0  0.77045  0.62237  0.15420  1.0000
  S   S142      1.0  0.82916  0.60053  0.05056  1.0000
  H   H577      1.0  0.89594  0.56090  0.02297  1.0000
  H   H578      1.0  0.87739  0.95306  0.23648  1.0000
  H   H579      1.0  0.58393  0.85229  0.12723  1.0000
  H   H580      1.0  0.91340  0.55206  0.09983  1.0000
  H   H581      1.0  0.54936  0.79216  0.09237  1.0000
  H   H582      1.0  0.88991  0.59020  0.04263  1.0000
  C   C361      1.0  0.91303  0.56322  0.07888  1.0000
  C   C362      1.0  0.81523  0.92811  0.22396  1.0000
  H   H583      1.0  0.73622  0.65813  0.13407  1.0000
  C   C363      1.0  0.82578  0.60351  0.08880  1.0000
  C   C364      1.0  0.80309  0.57793  0.10567  1.0000
  C   C365      1.0  0.80207  0.58107  0.13608  1.0000
  C   C366      1.0  0.82359  0.60975  0.15001  1.0000
  C   C367      1.0  0.84627  0.63534  0.13315  1.0000
  C   C368      1.0  0.84730  0.63220  0.10273  1.0000
  H   H584      1.0  0.78634  0.55571  0.09531  1.0000
  H   H585      1.0  0.78440  0.56111  0.14889  1.0000
  H   H586      1.0  0.86507  0.65208  0.08991  1.0000
  H   H587      1.0  0.77037  0.65896  0.11673  1.0000
  N   N35       1.0  0.88024  0.54850  0.06749  1.0000
  H   H588      1.0  0.67667  0.93364  0.25094  1.0000
  H   H589      1.0  0.81993  0.88299  0.19303  1.0000
  H   H590      1.0  0.85771  0.54102  0.10979  1.0000
  H   H591      1.0  0.53388  0.82681  0.15855  1.0000
  H   H592      1.0  0.92308  0.58931  0.08277  1.0000
  H   H593      1.0  0.56785  0.87492  0.11059  1.0000
  Fe  Fe70      1.0  0.84688  0.65518  0.21865  1.0000
  H   H594      1.0  0.86317  0.65746  0.14353  1.0000
  C   C369      1.0  0.76258  0.63451  0.17030  1.0000
  S   S143      1.0  0.51912  0.75065  0.04268  1.0000
  H   H595      1.0  0.82527  0.95168  0.23507  1.0000
  C   C370      1.0  0.86780  0.51395  0.06253  1.0000
  H   H596      1.0  0.73596  0.62097  0.17141  1.0000
  H   H597      1.0  0.77209  0.69576  0.12730  1.0000
  H   H598      1.0  0.77370  0.68307  0.20652  1.0000
  H   H599      1.0  0.85654  0.55374  0.03085  1.0000
  C   C371      1.0  0.00115  0.78436  0.24492  1.0000
  H   H600      1.0  0.77359  0.70942  0.17959  1.0000
  S   S144      1.0  0.88288  0.70608  0.20726  1.0000
  Fe  Fe71      1.0  0.67545  0.82965  0.21775  1.0000
  S   S145      1.0  0.72897  0.85612  0.21044  1.0000
  S   S146      1.0  0.63841  0.79615  0.18519  1.0000
  Fe  Fe72      1.0  0.56705  0.79016  0.02761  1.0000
  C   C372      1.0  0.56825  0.85206  0.10963  1.0000
  S   S147      1.0  0.60827  0.82284  0.05704  1.0000
  C   C373      1.0  0.63124  0.80415  0.14932  1.0000
  C   C374      1.0  0.60834  0.77872  0.13261  1.0000
  C   C375      1.0  0.60147  0.78386  0.10419  1.0000
  C   C376      1.0  0.61720  0.81465  0.09220  1.0000
  C   C377      1.0  0.64015  0.84009  0.10885  1.0000
  C   C378      1.0  0.64716  0.83492  0.13724  1.0000
  H   H601      1.0  0.59601  0.75481  0.14170  1.0000
  H   H602      1.0  0.58402  0.76396  0.09159  1.0000
  H   H603      1.0  0.65263  0.86398  0.09974  1.0000
  H   H604      1.0  0.66488  0.85469  0.14978  1.0000
  H   H605      1.0  0.76848  0.80219  0.21157  1.0000
  H   H606      1.0  0.79157  0.86440  0.22224  1.0000
  H   H607      1.0  0.87899  0.91683  0.23146  1.0000
  N   N36       1.0  0.83153  0.91040  0.23256  1.0000
  H   H608      1.0  0.73792  0.67165  0.18653  1.0000
  H   H609      1.0  0.86812  0.57862  0.09301  1.0000
  H   H610      1.0  0.82084  0.71123  0.15664  1.0000
  C   C379      1.0  0.99751  0.75414  0.25009  1.0000
  N   N37       1.0  0.53564  0.82398  0.11208  1.0000
  H   H611      1.0  0.78925  0.91449  0.22958  1.0000
  C   C380      1.0  0.78093  0.79411  0.22542  1.0000
  C   C381      1.0  0.81263  0.76737  0.23095  1.0000
  C   C382      1.0  0.85928  0.55281  0.08869  1.0000
  H   H612      1.0  0.51789  0.84811  0.13957  1.0000
  S   S148      1.0  0.67468  0.87163  0.23821  1.0000
  C   C383      1.0  0.53767  0.79441  0.11255  1.0000
  S   S149      1.0  0.75392  0.94778  0.21489  1.0000
  H   H613      1.0  0.82027  0.68324  0.18219  1.0000
  H   H614      1.0  0.81932  0.67495  0.14422  1.0000
  C   C384      1.0  0.86603  0.92955  0.22516  1.0000
  C   C385      1.0  0.81041  0.68522  0.16123  1.0000
  S   S150      1.0  0.83293  0.74882  0.21435  1.0000
  C   C386      1.0  0.77682  0.98602  0.23124  1.0000
  C   C387      1.0  0.88091  0.56413  0.03981  1.0000
  H   H615      1.0  0.98023  0.78716  0.24443  1.0000
  C   C388      1.0  0.76447  0.68371  0.18470  1.0000
  H   H616      1.0  0.92943  0.56040  0.06334  1.0000
  Fe  Fe73      1.0  0.72838  0.89715  0.23400  1.0000
  Fe  Fe74      1.0  0.90784  0.70708  0.24869  1.0000
  S   S151      1.0  0.81504  0.66758  0.24545  1.0000
  N   N38       1.0  0.77505  0.66846  0.16254  1.0000
  H   H617      1.0  0.51357  0.77264  0.11422  1.0000
  H   H618      1.0  0.81722  0.93266  0.20015  1.0000
  H   H619      1.0  0.79585  0.77449  0.19013  1.0000
  H   H620      1.0  0.77142  0.63216  0.19180  1.0000
  C   C389      1.0  0.79640  0.77826  0.21332  1.0000
  S   S152      1.0  0.78908  0.50767  0.03286  1.0000
  H   H621      1.0  0.58011  0.85201  0.08870  1.0000
  C   C390      1.0  0.81751  0.87954  0.21697  1.0000
  H   H622      1.0  0.55210  0.79417  0.13108  1.0000
  Fe  Fe75      1.0  0.85169  0.71865  0.23560  1.0000
  H   H623      1.0  0.86997  0.93444  0.20141  1.0000
  H   H624      1.0  0.88286  0.50983  0.04637  1.0000
  H   H625      1.0  0.52769  0.82117  0.06610  1.0000
  C   C391      1.0  0.52000  0.82614  0.13922  1.0000
  H   H626      1.0  0.82901  0.86535  0.22314  1.0000
  C   C392      1.0  0.51666  0.82319  0.08690  1.0000
  H   H627      1.0  0.51475  0.84520  0.08555  1.0000
  H   H628      1.0  0.93411  0.73955  0.35223  1.0000
  H   H629      1.0  0.70845  0.84034  0.46945  1.0000
  Fe  Fe76      1.0  0.79866  0.54160  0.46378  1.0000
  S   S153      1.0  0.82972  0.56116  0.42266  1.0000
  S   S154      1.0  0.76150  0.55448  0.47713  1.0000
  S   S155      1.0  0.82428  0.65606  0.32976  1.0000
  H   H630      1.0  0.92422  0.67359  0.30261  1.0000
  H   H631      1.0  0.97251  0.72121  0.36409  1.0000
  C   C393      1.0  0.78216  0.79993  0.25530  1.0000
  C   C394      1.0  0.82431  0.62798  0.35456  1.0000
  C   C395      1.0  0.81372  0.62753  0.38331  1.0000
  C   C396      1.0  0.81475  0.60689  0.40426  1.0000
  C   C397      1.0  0.82661  0.58654  0.39675  1.0000
  C   C398      1.0  0.83694  0.58674  0.36794  1.0000
  C   C399      1.0  0.83541  0.60701  0.34686  1.0000
  H   H632      1.0  0.80510  0.64364  0.38955  1.0000
  H   H633      1.0  0.80712  0.60733  0.42642  1.0000
  H   H634      1.0  0.84597  0.57093  0.36187  1.0000
  H   H635      1.0  0.84285  0.60636  0.32469  1.0000
  H   H636      1.0  0.82567  0.76446  0.27474  1.0000
  H   H637      1.0  0.65155  0.94469  0.27137  1.0000
  H   H638      1.0  0.72039  0.88160  0.47589  1.0000
  C   C400      1.0  0.79839  0.78905  0.27288  1.0000
  H   H639      1.0  0.74793  0.56735  0.41403  1.0000
  H   H640      1.0  0.83848  0.92703  0.27677  1.0000
  H   H641      1.0  0.78624  0.96906  0.27087  1.0000
  H   H642      1.0  0.76492  0.56502  0.36306  1.0000
  C   C401      1.0  0.90989  0.67995  0.37415  1.0000
  H   H643      1.0  0.73950  0.95967  0.30641  1.0000
  S   S156      1.0  0.76593  0.82254  0.27156  1.0000
  S   S157      1.0  0.87970  0.72386  0.27602  1.0000
  Fe  Fe77      1.0  0.68084  0.85320  0.28109  1.0000
  S   S158      1.0  0.73472  0.88153  0.27789  1.0000
  S   S159      1.0  0.65379  0.85972  0.31961  1.0000
  H   H644      1.0  0.66827  0.96977  0.31962  1.0000
  H   H645      1.0  0.92097  0.69842  0.39133  1.0000
  H   H646      1.0  0.73984  0.53169  0.34057  1.0000
  H   H647      1.0  0.59048  0.82504  0.41071  1.0000
  N   N39       1.0  0.67030  0.84855  0.48313  1.0000
  H   H648      1.0  0.93417  0.72854  0.31483  1.0000
  Fe  Fe78      1.0  0.56566  0.77446  0.46950  1.0000
  S   S160      1.0  0.59877  0.77303  0.43400  1.0000
  H   H649      1.0  0.61290  0.85863  0.36637  1.0000
  C   C402      1.0  0.63756  0.83434  0.35060  1.0000
  C   C403      1.0  0.64409  0.80970  0.35628  1.0000
  C   C404      1.0  0.63161  0.79089  0.38164  1.0000
  C   C405      1.0  0.61217  0.79619  0.40149  1.0000
  C   C406      1.0  0.60545  0.82069  0.39573  1.0000
  C   C407      1.0  0.61823  0.83974  0.37053  1.0000
  H   H650      1.0  0.65891  0.80522  0.34122  1.0000
  H   H651      1.0  0.63702  0.77205  0.38585  1.0000
  Fe  Fe79      1.0  0.84507  0.67128  0.28368  1.0000
  C   C408      1.0  0.66868  0.93571  0.27330  1.0000
  H   H652      1.0  0.65527  0.91106  0.28263  1.0000
  H   H653      1.0  0.71054  0.56193  0.40134  1.0000
  H   H654      1.0  0.88419  0.67318  0.37327  1.0000
  C   C409      1.0  0.71767  0.94356  0.29401  1.0000
  N   N40       1.0  0.92614  0.69187  0.34567  1.0000
  H   H655      1.0  0.80154  0.89077  0.27060  1.0000
  N   N41       1.0  0.72327  0.52777  0.38487  1.0000
  H   H656      1.0  0.68048  0.89595  0.49509  1.0000
  S   S161      1.0  0.57119  0.82058  0.48636  1.0000
  C   C410      1.0  0.66161  0.85131  0.45312  1.0000
  H   H657      1.0  0.76544  0.52890  0.40098  1.0000
  C   C411      1.0  0.96044  0.70188  0.34780  1.0000
  C   C412      1.0  0.82735  0.90434  0.26419  1.0000
  H   H658      1.0  0.91061  0.65827  0.38123  1.0000
  H   H659      1.0  0.69885  0.00032  0.27580  1.0000
  C   C413      1.0  0.73956  0.54697  0.35866  1.0000
  H   H660      1.0  0.89711  0.71260  0.33508  1.0000
  C   C414      1.0  0.70420  0.85671  0.48366  1.0000
  H   H661      1.0  0.70550  0.92005  0.30537  1.0000
  H   H662      1.0  0.96365  0.68144  0.35425  1.0000
  H   H663      1.0  0.79953  0.79341  0.29601  1.0000
  H   H664      1.0  0.97312  0.71104  0.32649  1.0000
  C   C415      1.0  0.92283  0.71942  0.33659  1.0000
  C   C416      1.0  0.91128  0.66617  0.32391  1.0000
  C   C417      1.0  0.68457  0.95968  0.32064  1.0000
  H   H665      1.0  0.88614  0.65992  0.32007  1.0000
  H   H666      1.0  0.67637  0.87600  0.44441  1.0000
  S   S162      1.0  0.67764  0.80900  0.26114  1.0000
  H   H667      1.0  0.63600  0.84487  0.45195  1.0000
  H   H668      1.0  0.66475  0.83476  0.43818  1.0000
  H   H669      1.0  0.72769  0.56021  0.35084  1.0000
  H   H670      1.0  0.72544  0.93960  0.27228  1.0000
  N   N42       1.0  0.69623  0.95706  0.29143  1.0000
  H   H671      1.0  0.91104  0.64399  0.33087  1.0000
  C   C418      1.0  0.64977  0.81536  0.49353  1.0000
  H   H672      1.0  0.62415  0.80845  0.49283  1.0000
  C   C419      1.0  0.72315  0.54904  0.40808  1.0000
  H   H673      1.0  0.83797  0.88965  0.27130  1.0000
  C   C420      1.0  0.74047  0.51144  0.39479  1.0000
  H   H674      1.0  0.71090  0.53528  0.42815  1.0000
  C   C421      1.0  0.78962  0.98978  0.25893  1.0000
  H   H675      1.0  0.65259  0.79785  0.47969  1.0000
  C   C422      1.0  0.71405  0.98907  0.27772  1.0000
  Fe  Fe80      1.0  0.73128  0.83825  0.25494  1.0000
  Fe  Fe81      1.0  0.51734  0.79439  0.48986  1.0000
  H   H676      1.0  0.67101  0.93572  0.33135  1.0000
  C   C423      1.0  0.81323  0.77256  0.26088  1.0000
  C   C424      1.0  0.66550  0.87065  0.50221  1.0000
  H   H677      1.0  0.70481  0.97541  0.33494  1.0000
  S   S163      1.0  0.87378  0.65457  0.25785  1.0000
  S   S164      1.0  0.51178  0.74932  0.46971  1.0000
  H   H678      1.0  0.67620  0.51508  0.37046  1.0000
  S   S165      1.0  0.95959  0.71987  0.25811  1.0000
  H   H679      1.0  0.64004  0.86492  0.50244  1.0000
  H   H680      1.0  0.72268  0.98764  0.25545  1.0000
  S   S166      1.0  0.85787  0.63568  0.67366  1.0000
  Fe  Fe82      1.0  0.77551  0.55132  0.52312  1.0000
  S   S167      1.0  0.77451  0.58368  0.55918  1.0000
  H   H681      1.0  0.79962  0.63525  0.65503  1.0000
  Fe  Fe83      1.0  0.83519  0.70851  0.74338  1.0000
  C   C425      1.0  0.79965  0.60073  0.58965  1.0000
  C   C426      1.0  0.82835  0.60040  0.59250  1.0000
  C   C427      1.0  0.84608  0.61169  0.61816  1.0000
  C   C428      1.0  0.83589  0.62429  0.64096  1.0000
  C   C429      1.0  0.80779  0.62567  0.63769  1.0000
  C   C430      1.0  0.78975  0.61384  0.61222  1.0000
  H   H682      1.0  0.83691  0.59149  0.57495  1.0000
  H   H683      1.0  0.86797  0.61085  0.62035  1.0000
  H   H684      1.0  0.76773  0.61448  0.61018  1.0000
  S   S168      1.0  0.82203  0.65640  0.74662  1.0000
  S   S169      1.0  0.56692  0.75559  0.51400  1.0000
  H   H685      1.0  0.80635  0.54482  0.63962  1.0000
  C   C431      1.0  0.99892  0.75257  0.73091  1.0000
  H   H686      1.0  0.97805  0.72970  0.72628  1.0000
  H   H687      1.0  0.65485  0.81235  0.51641  1.0000
  S   S170      1.0  0.51664  0.77944  0.53600  1.0000
  H   H688      1.0  0.79132  0.53576  0.57455  1.0000
  S   S171      1.0  0.78070  0.84188  0.72868  1.0000
  H   H689      1.0  0.83571  0.77897  0.72266  1.0000
  N   N43       1.0  0.77872  0.50473  0.61150  1.0000
  C   C432      1.0  0.81122  0.80637  0.72579  1.0000
  C   C433      1.0  0.79121  0.75325  0.74658  1.0000
  S   S172      1.0  0.89873  0.68098  0.74190  1.0000
  S   S173      1.0  0.86937  0.71933  0.70521  1.0000
  Fe  Fe84      1.0  0.67616  0.83968  0.72308  1.0000
  S   S174      1.0  0.72633  0.87825  0.71190  1.0000
  S   S175      1.0  0.63889  0.80731  0.69006  1.0000
  Fe  Fe85      1.0  0.57020  0.80085  0.53104  1.0000
  Fe  Fe86      1.0  0.90759  0.73103  0.73854  1.0000
  S   S176      1.0  0.61124  0.83416  0.56071  1.0000
  C   C434      1.0  0.63175  0.81554  0.65416  1.0000
  C   C435      1.0  0.60611  0.79125  0.63870  1.0000
  C   C436      1.0  0.59945  0.79651  0.61019  1.0000
  C   C437      1.0  0.61849  0.82618  0.59668  1.0000
  C   C438      1.0  0.64442  0.85036  0.61199  1.0000
  C   C439      1.0  0.65102  0.84513  0.64056  1.0000
  H   H690      1.0  0.59103  0.76827  0.64895  1.0000
  H   H691      1.0  0.57945  0.77765  0.59876  1.0000
  H   H692      1.0  0.65928  0.87343  0.60182  1.0000
  H   H693      1.0  0.67079  0.86408  0.65211  1.0000
  C   C440      1.0  0.79942  0.52088  0.58595  1.0000
  Fe  Fe87      1.0  0.85862  0.66828  0.71045  1.0000
  H   H694      1.0  0.77290  0.54480  0.62333  1.0000
  C   C441      1.0  0.81478  0.77945  0.73092  1.0000
  H   H695      1.0  0.67140  0.86887  0.52514  1.0000
  Fe  Fe88      1.0  0.51352  0.73535  0.51565  1.0000
  C   C442      1.0  0.78118  0.52899  0.63272  1.0000
  S   S177      1.0  0.95702  0.77615  0.73980  1.0000
  H   H696      1.0  0.71140  0.85471  0.50602  1.0000
  N   N44       1.0  0.71224  0.78559  0.66418  1.0000
  C   C443      1.0  0.68712  0.76822  0.64252  1.0000
  C   C444      1.0  0.73996  0.78099  0.65821  1.0000
  C   C445      1.0  0.69910  0.77320  0.69347  1.0000
  C   C446      1.0  0.72275  0.82006  0.66275  1.0000
  H   H697      1.0  0.66604  0.77154  0.64666  1.0000
  H   H698      1.0  0.67837  0.74206  0.64311  1.0000
  H   H699      1.0  0.69612  0.77695  0.62012  1.0000
  H   H700      1.0  0.75919  0.79397  0.67439  1.0000
  H   H701      1.0  0.73304  0.75527  0.65937  1.0000
  H   H702      1.0  0.75066  0.79014  0.63633  1.0000
  H   H703      1.0  0.71733  0.78617  0.71036  1.0000
  H   H704      1.0  0.69136  0.74735  0.69555  1.0000
  H   H705      1.0  0.67793  0.77599  0.69864  1.0000
  H   H706      1.0  0.73257  0.83023  0.64090  1.0000
  H   H707      1.0  0.74183  0.83394  0.67873  1.0000
  H   H708      1.0  0.70250  0.82443  0.66755  1.0000
  H   H709      1.0  0.82477  0.53680  0.59217  1.0000
  H   H710      1.0  0.82960  0.82645  0.71360  1.0000
  H   H711      1.0  0.76635  0.51773  0.65256  1.0000
  C   C447      1.0  0.99532  0.77907  0.73719  1.0000
  S   S178      1.0  0.81512  0.54162  0.50973  1.0000
  C   C448      1.0  0.76071  0.78142  0.75215  1.0000
  C   C449      1.0  0.78426  0.80760  0.73643  1.0000
  C   C450      1.0  0.79618  0.99765  0.74251  1.0000
  Fe  Fe89      1.0  0.74093  0.85201  0.74325  1.0000
  H   H712      1.0  0.79746  0.97662  0.73631  1.0000
  Fe  Fe90      1.0  0.72249  0.90480  0.75104  1.0000
  S   S179      1.0  0.69103  0.81285  0.75330  1.0000
  H   H713      1.0  0.80596  0.65433  0.81056  1.0000
  S   S180      1.0  0.86806  0.65881  0.82366  1.0000
  H   H714      1.0  0.59540  0.74537  0.93401  1.0000
  Fe  Fe91      1.0  0.77898  0.53787  0.95777  1.0000
  S   S181      1.0  0.77019  0.55213  0.91290  1.0000
  S   S182      1.0  0.82639  0.55774  0.97937  1.0000
  H   H715      1.0  0.76310  0.63191  0.81417  1.0000
  H   H716      1.0  0.83702  0.70561  0.83418  1.0000
  H   H717      1.0  0.78202  0.66635  0.79084  1.0000
  C   C451      1.0  0.81546  0.70847  0.83366  1.0000
  C   C452      1.0  0.84097  0.62764  0.84745  1.0000
  C   C453      1.0  0.85038  0.62715  0.87609  1.0000
  C   C454      1.0  0.82933  0.60386  0.89623  1.0000
  C   C455      1.0  0.79841  0.58091  0.88803  1.0000
  C   C456      1.0  0.78904  0.58135  0.85934  1.0000
  C   C457      1.0  0.81027  0.60428  0.83906  1.0000
  H   H718      1.0  0.87406  0.64496  0.88287  1.0000
  H   H719      1.0  0.83686  0.60387  0.91820  1.0000
  H   H720      1.0  0.76527  0.56352  0.85272  1.0000
  S   S183      1.0  0.67056  0.86772  0.75993  1.0000
  H   H721      1.0  0.97573  0.78135  0.79861  1.0000
  H   H722      1.0  0.80682  0.65849  0.86545  1.0000
  N   N45       1.0  0.78568  0.67719  0.83639  1.0000
  H   H723      1.0  0.80286  0.60367  0.81696  1.0000
  H   H724      1.0  0.76398  0.63766  0.86652  1.0000
  Fe  Fe92      1.0  0.86294  0.67333  0.77757  1.0000
  C   C458      1.0  0.78406  0.65648  0.81195  1.0000
  C   C459      1.0  0.78560  0.66182  0.86409  1.0000
  H   H725      1.0  0.78616  0.67643  0.88309  1.0000
  H   H726      1.0  0.81743  0.72492  0.85155  1.0000
  C   C460      1.0  0.75772  0.68203  0.83561  1.0000
  H   H727      1.0  0.75806  0.69755  0.85375  1.0000
  H   H728      1.0  0.81643  0.72051  0.81278  1.0000
  H   H729      1.0  0.74573  0.73430  0.76918  1.0000
  H   H730      1.0  0.73485  0.65884  0.83725  1.0000
  C   C461      1.0  0.00174  0.74740  0.81749  1.0000
  C   C462      1.0  0.68833  0.91417  0.87463  1.0000
  C   C463      1.0  0.67475  0.90959  0.82406  1.0000
  S   S184      1.0  0.87419  0.72445  0.77597  1.0000
  Fe  Fe93      1.0  0.68998  0.84444  0.78898  1.0000
  S   S185      1.0  0.74164  0.88210  0.78119  1.0000
  S   S186      1.0  0.67771  0.83007  0.83683  1.0000
  H   H731      1.0  0.75743  0.69379  0.81491  1.0000
  S   S187      1.0  0.73213  0.95616  0.75801  1.0000
  H   H732      1.0  0.68269  0.91940  0.80174  1.0000
  H   H733      1.0  0.60675  0.71879  0.91702  1.0000
  H   H734      1.0  0.97942  0.78588  0.83721  1.0000
  H   H735      1.0  0.92990  0.71695  0.85327  1.0000
  Fe  Fe94      1.0  0.54602  0.78349  0.96431  1.0000
  S   S188      1.0  0.55544  0.79841  0.91657  1.0000
  C   C464      1.0  0.72852  0.92440  0.83772  1.0000
  C   C465      1.0  0.64341  0.82149  0.85844  1.0000
  C   C466      1.0  0.61605  0.81989  0.84678  1.0000
  C   C467      1.0  0.58946  0.81301  0.86494  1.0000
  C   C468      1.0  0.58993  0.80780  0.89490  1.0000
  C   C469      1.0  0.61744  0.80981  0.90660  1.0000
  C   C470      1.0  0.64394  0.81646  0.88843  1.0000
  H   H736      1.0  0.61524  0.82364  0.82376  1.0000
  H   H737      1.0  0.56832  0.81160  0.85567  1.0000
  H   H738      1.0  0.61837  0.80638  0.92967  1.0000
  H   H739      1.0  0.66509  0.81789  0.89770  1.0000
  H   H740      1.0  0.55619  0.69593  0.86928  1.0000
  H   H741      1.0  0.71847  0.97212  0.82250  1.0000
  N   N46       1.0  0.70022  0.92746  0.84527  1.0000
  H   H742      1.0  0.55325  0.69937  0.96194  1.0000
  H   H743      1.0  0.53925  0.73351  0.93255  1.0000
  H   H744      1.0  0.52535  0.66261  0.88941  1.0000
  H   H745      1.0  0.66792  0.88388  0.82348  1.0000
  H   H746      1.0  0.96936  0.73996  0.86814  1.0000
  H   H747      1.0  0.65271  0.91069  0.82941  1.0000
  H   H748      1.0  0.54154  0.73312  0.89386  1.0000
  N   N47       1.0  0.96798  0.73926  0.82148  1.0000
  C   C471      1.0  0.70929  0.96162  0.84450  1.0000
  H   H749      1.0  0.66668  0.91563  0.88096  1.0000
  H   H750      1.0  0.59711  0.74353  0.89521  1.0000
  H   H751      1.0  0.95725  0.72736  0.77661  1.0000
  H   H752      1.0  0.74834  0.93775  0.85313  1.0000
  H   H753      1.0  0.68157  0.88844  0.87571  1.0000
  C   C472      1.0  0.95556  0.72383  0.85006  1.0000
  H   H754      1.0  0.70686  0.92710  0.89128  1.0000
  C   C473      1.0  0.59041  0.72879  0.91539  1.0000
  H   H755      1.0  0.73793  0.93391  0.81555  1.0000
  H   H756      1.0  0.68848  0.96488  0.84986  1.0000
  H   H757      1.0  0.95672  0.70141  0.85203  1.0000
  H   H758      1.0  0.72853  0.97593  0.86020  1.0000
  H   H759      1.0  0.72258  0.89891  0.83817  1.0000
  C   C474      1.0  0.94854  0.71690  0.79850  1.0000
  C   C475      1.0  0.96581  0.76874  0.81967  1.0000
  C   C476      1.0  0.55076  0.68224  0.88999  1.0000
  H   H760      1.0  0.52297  0.66520  0.94352  1.0000
  N   N48       1.0  0.55643  0.70324  0.91534  1.0000
  H   H761      1.0  0.56331  0.67229  0.94425  1.0000
  H   H762      1.0  0.56611  0.67102  0.89049  1.0000
  C   C477      1.0  0.53584  0.71784  0.91359  1.0000
  H   H763      1.0  0.94049  0.76334  0.82122  1.0000
  H   H764      1.0  0.94869  0.69391  0.79948  1.0000
  H   H765      1.0  0.92320  0.71108  0.80036  1.0000
  S   S189      1.0  0.54579  0.81427  0.00139  1.0000
  C   C478      1.0  0.54868  0.68417  0.94233  1.0000
  S   S190      1.0  0.79406  0.71842  0.75350  1.0000
  S   S191      1.0  0.75373  0.54095  0.99870  1.0000
  Fe  Fe95      1.0  0.81147  0.50664  0.99027  1.0000
  H   H766      1.0  0.73991  0.78199  0.76061  1.0000
  H   H767      1.0  0.51001  0.69940  0.91313  1.0000
  Fe  Fe96      1.0  0.52011  0.72459  0.00264  1.0000
  H   H768      1.0  0.00420  0.72565  0.81829  1.0000
  S   S192      1.0  0.57036  0.76212  0.98954  1.0000
  C   C479      1.0  0.76414  0.75440  0.75707  1.0000
  C   C480      1.0  0.76741  0.99423  0.75363  1.0000
