data_image0
_chemical_formula_structural       C4H5C2HCH2FeH3SHCHCHNHC2SHSFeS2FeHSFeHFeS3H3C2H2CH3C6H7CH2CNC4HCH2CH2SHCSCH4NH3SHC3HCH3CFeS2FeS2FeHFeHS2C2H5CHC5H4CHC4H2CHC3HSCHSNHC2H2C2H8C2H4CHCFeS2FeS2FeSFeS3H2CHCHCHC2HC2H2CHSHC4NH3NH3CSH4CH3CH3CHC2H3C3H2CHCH2NH3C2H3SH2CN2C2H3CHCH2CHCH3C2H4SCFeS2FeS2FeSFeS3CHC2HC2HC6H2FeC2HCHNH2CHFeCHFeHNC2H3CH9CHS2CFe2SHCHSFeSCH2C2SH14CHCSH2CHNHCSHC2HC4SNH2CHCFeNH5CFeCHCH4CHCHS2Fe2SH3FeHCHCSH3CSH2CHNC4H3SHFeH5SH4SH3SCHCSC4SCHFeHSCH2C2FeC3NH4CH2C2H3SFeCH3FeH4SHSH2SCH2SHCH5NHCHCH2CHC3S2H2CHFeCH4NFeS2HCHCSFeSCH4C2H2CHC2H2CH4CH2CH3CH2CSHCH2SH2CNH4CSC2HCHSCH2CHCHC2H2CH2FeHS2H2C2H3CSCSCHCH2NSHFeH5CH4FeHC4H2CNHFeHNH2CH3FeHCH2CHSHFeCSCNH4C6H3CH4CH5SHSH2SFeHFeSH3SH2C3FeSCH2CH2NCHNHCH2S3CHFeS2H4C6H4CH2C2NCH5SH2Fe2HSFeCHFeSH2S2H3SCSH2CH4FeS2FeS2FeSFeS3CHFeC3H2C2HC6H4SH2C2HNHCH3CH3SHCH2C2HC3H4SCH2CH2FeHCH3C3H2FeS2FeS2FeSFeS3C2H3CHC2H3C4HCHCNC4HS2FeCH2C2NH5FeCHCH3CH2SHCH3SHC2H6CHCNH6CHSFeS2FeS2CFeS2C2H2CH7CHC7H3CNHCHFeH3CNHCHFeHSCHCNH2SHC3HCH2C3HCSCH4C2H3C2H5CH3SFeS2FeHSHFe2HS2CH5SHC7H7NCHC2H2NHC3SC6H2S2CH2C2NHCHC2H3CH5C2FeH
_chemical_formula_sum              "C360 H576 Fe72 S144 N36"
_cell_length_a       49.5623
_cell_length_b       48.994
_cell_length_c       34.0258
_cell_angle_alpha    91.3254
_cell_angle_beta     86.9716
_cell_angle_gamma    119.588

_space_group_name_H-M_alt    "P 1"
_space_group_IT_number       1

loop_
  _space_group_symop_operation_xyz
  'x, y, z'

loop_
  _atom_site_type_symbol
  _atom_site_label
  _atom_site_symmetry_multiplicity
  _atom_site_fract_x
  _atom_site_fract_y
  _atom_site_fract_z
  _atom_site_occupancy
  C   C1        1.0  0.15412  0.35629  0.48897  1.0000
  C   C2        1.0  0.22882  0.02137  0.24597  1.0000
  C   C3        1.0  0.20224  0.21352  0.24617  1.0000
  C   C4        1.0  0.22926  0.21272  0.25525  1.0000
  H   H1        1.0  0.18124  0.19186  0.24024  1.0000
  H   H2        1.0  0.22902  0.19055  0.25644  1.0000
  H   H3        1.0  0.16730  0.25583  0.36169  1.0000
  H   H4        1.0  0.25094  0.28692  0.38041  1.0000
  H   H5        1.0  0.21782  0.25266  0.43596  1.0000
  C   C5        1.0  0.03247  0.23635  0.25595  1.0000
  C   C6        1.0  0.20199  0.24208  0.24594  1.0000
  H   H6        1.0  0.05418  0.23609  0.25571  1.0000
  C   C7        1.0  0.17651  0.23965  0.35433  1.0000
  H   H7        1.0  0.19803  0.20100  0.37357  1.0000
  H   H8        1.0  0.18142  0.24118  0.32199  1.0000
  Fe  Fe1       1.0  0.23282  0.47710  0.01531  1.0000
  H   H9        1.0  0.15761  0.21536  0.36115  1.0000
  H   H10       1.0  0.22177  0.29763  0.37301  1.0000
  H   H11       1.0  0.14647  0.37349  0.49167  1.0000
  S   S1        1.0  0.16700  0.24215  0.23871  1.0000
  H   H12       1.0  0.14784  0.01211  0.32213  1.0000
  C   C8        1.0  0.22918  0.28007  0.36521  1.0000
  H   H13       1.0  0.23496  0.28232  0.33308  1.0000
  C   C9        1.0  0.21575  0.22553  0.36554  1.0000
  H   H14       1.0  0.17611  0.00936  0.29009  1.0000
  N   N1        1.0  0.20463  0.24787  0.37595  1.0000
  H   H15       1.0  0.18843  0.26278  0.42732  1.0000
  C   C10       1.0  0.22924  0.26995  0.25335  1.0000
  C   C11       1.0  0.24840  0.02332  0.32191  1.0000
  S   S2        1.0  0.12634  0.27232  0.31273  1.0000
  H   H16       1.0  0.11848  0.41540  0.17453  1.0000
  S   S3        1.0  0.20209  0.43286  0.05210  1.0000
  Fe  Fe2       1.0  0.17987  0.35198  0.25951  1.0000
  S   S4        1.0  0.14440  0.30977  0.22785  1.0000
  S   S5        1.0  0.20874  0.40028  0.23062  1.0000
  Fe  Fe3       1.0  0.16342  0.31660  0.33938  1.0000
  H   H17       1.0  0.23743  0.23139  0.38042  1.0000
  S   S6        1.0  0.17525  0.31041  0.40125  1.0000
  Fe  Fe4       1.0  0.16129  0.28277  0.26232  1.0000
  H   H18       1.0  0.22947  0.29209  0.25256  1.0000
  Fe  Fe5       1.0  0.11304  0.30327  0.28120  1.0000
  S   S7        1.0  0.06552  0.29893  0.27772  1.0000
  S   S8        1.0  0.19920  0.32543  0.29026  1.0000
  S   S9        1.0  0.14765  0.34716  0.31154  1.0000
  H   H19       1.0  0.07103  0.38257  0.21683  1.0000
  H   H20       1.0  0.12543  0.34323  0.16793  1.0000
  H   H21       1.0  0.11090  0.35946  0.25177  1.0000
  C   C12       1.0  0.16857  0.32395  0.44751  1.0000
  C   C13       1.0  0.15790  0.34557  0.45131  1.0000
  H   H22       1.0  0.12377  0.39980  0.24101  1.0000
  H   H23       1.0  0.14540  0.38167  0.22156  1.0000
  C   C14       1.0  0.17493  0.31288  0.48159  1.0000
  H   H24       1.0  0.15317  0.35447  0.42528  1.0000
  H   H25       1.0  0.18342  0.29638  0.47906  1.0000
  H   H26       1.0  0.05632  0.35418  0.17783  1.0000
  C   C15       1.0  0.20350  0.42437  0.10213  1.0000
  C   C16       1.0  0.19155  0.39294  0.11365  1.0000
  C   C17       1.0  0.19275  0.38516  0.15291  1.0000
  C   C18       1.0  0.20571  0.40876  0.18117  1.0000
  C   C19       1.0  0.21709  0.44013  0.16984  1.0000
  C   C20       1.0  0.21593  0.44793  0.13056  1.0000
  H   H27       1.0  0.18176  0.37453  0.09190  1.0000
  H   H28       1.0  0.18418  0.36094  0.16110  1.0000
  H   H29       1.0  0.22679  0.45850  0.19165  1.0000
  H   H30       1.0  0.22445  0.47212  0.12228  1.0000
  H   H31       1.0  0.08780  0.33113  0.14979  1.0000
  H   H32       1.0  0.09107  0.31962  0.19819  1.0000
  H   H33       1.0  0.14173  0.39915  0.15496  1.0000
  C   C21       1.0  0.03187  0.26401  0.26522  1.0000
  H   H34       1.0  0.05950  0.34226  0.22603  1.0000
  H   H35       1.0  0.10442  0.38678  0.13578  1.0000
  C   C22       1.0  0.24337  0.05016  0.26600  1.0000
  N   N2        1.0  0.10295  0.36799  0.19293  1.0000
  C   C23       1.0  0.12155  0.37770  0.22833  1.0000
  C   C24       1.0  0.11746  0.39343  0.16324  1.0000
  C   C25       1.0  0.07105  0.36154  0.20381  1.0000
  C   C26       1.0  0.10177  0.33926  0.17644  1.0000
  H   H36       1.0  0.17861  0.22232  0.42789  1.0000
  C   C27       1.0  0.19707  0.24627  0.41872  1.0000
  H   H37       1.0  0.22106  0.22584  0.33338  1.0000
  H   H38       1.0  0.22151  0.02066  0.21639  1.0000
  C   C28       1.0  0.25314  0.05100  0.30401  1.0000
  H   H39       1.0  0.14537  0.01283  0.26962  1.0000
  H   H40       1.0  0.00943  0.21105  0.36923  1.0000
  S   S10       1.0  0.24809  0.08447  0.24359  1.0000
  H   H41       1.0  0.00532  0.18748  0.24014  1.0000
  C   C29       1.0  0.00479  0.20889  0.24707  1.0000
  S   S11       1.0  0.22982  0.17048  0.69694  1.0000
  C   C30       1.0  0.22973  0.20628  0.69245  1.0000
  H   H42       1.0  0.07254  0.27228  0.61062  1.0000
  H   H43       1.0  0.23978  0.06657  0.73710  1.0000
  H   H44       1.0  0.22831  0.20892  0.56519  1.0000
  H   H45       1.0  0.24270  0.22750  0.61118  1.0000
  N   N3        1.0  0.23531  0.33472  0.78804  1.0000
  H   H46       1.0  0.17935  0.23348  0.67739  1.0000
  H   H47       1.0  0.10321  0.29897  0.57791  1.0000
  H   H48       1.0  0.21107  0.48095  0.87045  1.0000
  S   S12       1.0  0.06985  0.23158  0.67081  1.0000
  H   H49       1.0  0.18656  0.30097  0.79118  1.0000
  C   C31       1.0  0.20159  0.20590  0.68736  1.0000
  C   C32       1.0  0.03552  0.23411  0.67430  1.0000
  C   C33       1.0  0.20110  0.23404  0.68170  1.0000
  H   H50       1.0  0.18012  0.18370  0.68738  1.0000
  C   C34       1.0  0.17078  0.32325  0.51910  1.0000
  H   H51       1.0  0.09442  0.33260  0.53329  1.0000
  H   H52       1.0  0.05580  0.33765  0.60217  1.0000
  H   H53       1.0  0.09359  0.34143  0.60464  1.0000
  C   C35       1.0  0.23317  0.34937  0.82571  1.0000
  Fe  Fe6       1.0  0.15877  0.33823  0.71601  1.0000
  S   S13       1.0  0.15112  0.28906  0.72035  1.0000
  S   S14       1.0  0.15862  0.36247  0.77428  1.0000
  Fe  Fe7       1.0  0.15782  0.33478  0.62513  1.0000
  S   S15       1.0  0.15134  0.28614  0.62367  1.0000
  S   S16       1.0  0.15545  0.35884  0.57000  1.0000
  Fe  Fe8       1.0  0.11628  0.27646  0.67381  1.0000
  H   H54       1.0  0.21030  0.35161  0.75607  1.0000
  Fe  Fe9       1.0  0.18669  0.30330  0.67016  1.0000
  H   H55       1.0  0.17621  0.31480  0.54491  1.0000
  S   S17       1.0  0.12092  0.32426  0.67314  1.0000
  S   S18       1.0  0.19618  0.35332  0.66791  1.0000
  C   C36       1.0  0.22884  0.26270  0.68092  1.0000
  C   C37       1.0  0.24273  0.43511  0.80501  1.0000
  H   H56       1.0  0.05609  0.27900  0.70314  1.0000
  H   H57       1.0  0.23616  0.34334  0.72624  1.0000
  H   H58       1.0  0.07180  0.26388  0.55899  1.0000
  H   H59       1.0  0.21089  0.28741  0.81046  1.0000
  H   H60       1.0  0.05626  0.32765  0.53016  1.0000
  C   C38       1.0  0.00752  0.26159  0.69401  1.0000
  H   H61       1.0  0.06180  0.31366  0.63577  1.0000
  C   C39       1.0  0.23697  0.44037  0.84462  1.0000
  C   C40       1.0  0.20724  0.42177  0.86192  1.0000
  C   C41       1.0  0.18360  0.39821  0.83983  1.0000
  C   C42       1.0  0.18933  0.39288  0.80026  1.0000
  C   C43       1.0  0.21898  0.41174  0.78280  1.0000
  H   H62       1.0  0.00837  0.18963  0.64586  1.0000
  H   H63       1.0  0.20244  0.42537  0.89241  1.0000
  H   H64       1.0  0.16072  0.38386  0.85360  1.0000
  H   H65       1.0  0.22350  0.40860  0.75206  1.0000
  C   C44       1.0  0.24920  0.22759  0.57936  1.0000
  H   H66       1.0  0.21083  0.34973  0.82919  1.0000
  C   C45       1.0  0.07768  0.28300  0.58085  1.0000
  C   C46       1.0  0.23887  0.04438  0.73087  1.0000
  C   C47       1.0  0.06822  0.32423  0.60576  1.0000
  C   C48       1.0  0.06918  0.31504  0.53586  1.0000
  H   H67       1.0  0.20967  0.29067  0.75818  1.0000
  H   H68       1.0  0.06451  0.29758  0.51199  1.0000
  C   C49       1.0  0.03519  0.26018  0.69131  1.0000
  H   H69       1.0  0.19782  0.50660  0.89089  1.0000
  C   C50       1.0  0.23326  0.35269  0.75520  1.0000
  C   C51       1.0  0.16055  0.34515  0.52302  1.0000
  C   C52       1.0  0.21201  0.01598  0.74175  1.0000
  H   H70       1.0  0.24763  0.17190  0.57778  1.0000
  S   S19       1.0  0.22990  0.29853  0.67201  1.0000
  C   C53       1.0  0.20949  0.30200  0.78695  1.0000
  H   H71       1.0  0.17591  0.47819  0.85448  1.0000
  S   S20       1.0  0.21506  0.47998  0.95665  1.0000
  N   N4        1.0  0.06043  0.29994  0.57510  1.0000
  H   H72       1.0  0.19232  0.01647  0.75633  1.0000
  C   C54       1.0  0.00807  0.20963  0.65959  1.0000
  C   C55       1.0  0.02669  0.27752  0.57801  1.0000
  H   H73       1.0  0.19533  0.48519  0.78568  1.0000
  H   H74       1.0  0.01953  0.26562  0.60723  1.0000
  C   C56       1.0  0.19986  0.49494  0.86330  1.0000
  C   C57       1.0  0.21907  0.50154  0.79564  1.0000
  H   H75       1.0  0.00737  0.28171  0.70762  1.0000
  H   H76       1.0  0.01285  0.28951  0.57442  1.0000
  H   H77       1.0  0.01986  0.25891  0.55524  1.0000
  H   H78       1.0  0.23050  0.48727  0.80039  1.0000
  H   H79       1.0  0.23449  0.33645  0.85133  1.0000
  H   H80       1.0  0.25157  0.37781  0.75601  1.0000
  H   H81       1.0  0.25218  0.37420  0.82745  1.0000
  H   H82       1.0  0.25444  0.25067  0.56717  1.0000
  C   C58       1.0  0.03854  0.76800  0.20234  1.0000
  C   C59       1.0  0.23186  0.93415  0.47281  1.0000
  H   H83       1.0  0.06685  0.73988  0.23490  1.0000
  H   H84       1.0  0.03325  0.77832  0.17710  1.0000
  H   H85       1.0  0.13956  0.96342  0.35448  1.0000
  H   H86       1.0  0.07411  0.74813  0.16262  1.0000
  C   C60       1.0  0.01489  0.77492  0.30973  1.0000
  H   H87       1.0  0.12626  0.92791  0.32659  1.0000
  C   C61       1.0  0.14122  0.95388  0.32503  1.0000
  Fe  Fe10      1.0  0.16894  0.84995  0.26378  1.0000
  S   S21       1.0  0.16137  0.89145  0.25769  1.0000
  S   S22       1.0  0.16676  0.81867  0.21180  1.0000
  Fe  Fe11      1.0  0.16102  0.85007  0.35465  1.0000
  S   S23       1.0  0.15203  0.89046  0.35424  1.0000
  S   S24       1.0  0.16345  0.82772  0.41122  1.0000
  Fe  Fe12      1.0  0.12237  0.86683  0.30318  1.0000
  S   S25       1.0  0.07760  0.86759  0.29539  1.0000
  Fe  Fe13      1.0  0.19177  0.91139  0.30935  1.0000
  S   S26       1.0  0.22786  0.96045  0.32622  1.0000
  S   S27       1.0  0.12800  0.82437  0.30687  1.0000
  S   S28       1.0  0.20259  0.87189  0.31217  1.0000
  H   H88       1.0  0.15165  0.90102  0.50226  1.0000
  H   H89       1.0  0.09458  0.96680  0.33032  1.0000
  C   C62       1.0  0.15581  0.88134  0.49949  1.0000
  H   H90       1.0  0.21341  0.97163  0.24814  1.0000
  C   C63       1.0  0.04259  0.83124  0.29833  1.0000
  H   H91       1.0  0.08146  0.78486  0.14213  1.0000
  C   C64       1.0  0.04229  0.80408  0.31066  1.0000
  H   H92       1.0  0.01486  0.85010  0.27714  1.0000
  C   C65       1.0  0.16161  0.84336  0.45806  1.0000
  C   C66       1.0  0.16649  0.83067  0.49186  1.0000
  H   H93       1.0  0.20391  0.78364  0.09515  1.0000
  C   C67       1.0  0.08774  0.81497  0.21079  1.0000
  C   C68       1.0  0.15598  0.86857  0.46215  1.0000
  H   H94       1.0  0.17079  0.81109  0.48893  1.0000
  H   H95       1.0  0.06319  0.80544  0.32078  1.0000
  C   C69       1.0  0.23309  0.62741  0.02416  1.0000
  H   H96       1.0  0.15176  0.87828  0.43659  1.0000
  S   S29       1.0  0.23088  0.68206  0.02965  1.0000
  H   H97       1.0  0.24067  0.91823  0.37671  1.0000
  C   C70       1.0  0.22605  0.84848  0.17496  1.0000
  C   C71       1.0  0.19585  0.82286  0.17568  1.0000
  C   C72       1.0  0.18811  0.79960  0.14662  1.0000
  C   C73       1.0  0.21022  0.80179  0.11719  1.0000
  N   N5        1.0  0.07236  0.78064  0.20487  1.0000
  H   H98       1.0  0.23235  0.86655  0.19710  1.0000
  H   H99       1.0  0.16570  0.95914  0.31967  1.0000
  H   H100      1.0  0.11061  0.78303  0.16920  1.0000
  N   N6        1.0  0.13158  0.96727  0.29381  1.0000
  H   H101      1.0  0.22384  0.91024  0.48485  1.0000
  H   H102      1.0  0.24650  0.95148  0.49502  1.0000
  H   H103      1.0  0.07914  0.82099  0.23862  1.0000
  C   C74       1.0  0.13548  0.95483  0.25521  1.0000
  S   S30       1.0  0.25082  0.52847  0.02807  1.0000
  H   H104      1.0  0.16490  0.77962  0.14692  1.0000
  H   H105      1.0  0.22103  0.89079  0.41643  1.0000
  H   H106      1.0  0.11331  0.82537  0.21245  1.0000
  H   H107      1.0  0.08335  0.93222  0.30099  1.0000
  C   C75       1.0  0.01489  0.82919  0.28660  1.0000
  H   H108      1.0  0.02836  0.77330  0.22941  1.0000
  H   H109      1.0  0.09048  0.96808  0.27827  1.0000
  H   H110      1.0  0.06898  0.77053  0.26668  1.0000
  C   C76       1.0  0.08510  0.77382  0.16804  1.0000
  H   H111      1.0  0.12831  0.96429  0.23088  1.0000
  H   H112      1.0  0.23803  0.97354  0.41437  1.0000
  H   H113      1.0  0.10346  0.77477  0.24104  1.0000
  C   C77       1.0  0.23364  0.99454  0.30212  1.0000
  H   H114      1.0  0.02600  0.74203  0.19883  1.0000
  C   C78       1.0  0.24043  0.82734  0.11647  1.0000
  C   C79       1.0  0.07813  0.76579  0.23834  1.0000
  H   H115      1.0  0.21089  0.93666  0.47025  1.0000
  H   H116      1.0  0.08358  0.82694  0.18637  1.0000
  H   H117      1.0  0.01502  0.75391  0.31859  1.0000
  C   C80       1.0  0.22865  0.91508  0.40622  1.0000
  C   C81       1.0  0.09855  0.95826  0.30117  1.0000
  C   C82       1.0  0.24820  0.85067  0.14550  1.0000
  H   H118      1.0  0.20740  0.91671  0.40202  1.0000
  H   H119      1.0  0.12131  0.92873  0.25442  1.0000
  C   C83       1.0  0.22398  0.99359  0.26399  1.0000
  H   H120      1.0  0.16009  0.96116  0.24862  1.0000
  C   C84       1.0  0.15097  0.00186  0.29388  1.0000
  H   H121      1.0  0.23670  0.63026  0.05542  1.0000
  H   H122      1.0  0.23309  0.58329  0.02134  1.0000
  N   N7        1.0  0.24896  0.93892  0.43437  1.0000
  H   H123      1.0  0.10837  0.71879  0.81632  1.0000
  H   H124      1.0  0.09652  0.87579  0.59810  1.0000
  H   H125      1.0  0.07336  0.79116  0.59742  1.0000
  C   C85       1.0  0.22488  0.59613  0.96497  1.0000
  C   C86       1.0  0.23108  0.60079  0.00491  1.0000
  H   H126      1.0  0.25315  0.93826  0.75577  1.0000
  H   H127      1.0  0.20086  0.88009  0.83171  1.0000
  H   H128      1.0  0.02113  0.78276  0.58232  1.0000
  S   S31       1.0  0.21934  0.56155  0.94074  1.0000
  H   H129      1.0  0.21721  0.61548  0.91320  1.0000
  H   H130      1.0  0.09936  0.69646  0.77158  1.0000
  C   C87       1.0  0.24996  0.53889  0.84456  1.0000
  N   N8        1.0  0.11238  0.74499  0.76439  1.0000
  N   N9        1.0  0.23927  0.92554  0.81667  1.0000
  C   C88       1.0  0.10924  0.76955  0.78682  1.0000
  C   C89       1.0  0.22492  0.64603  0.96315  1.0000
  H   H131      1.0  0.19590  0.92427  0.80855  1.0000
  H   H132      1.0  0.22951  0.96191  0.80034  1.0000
  H   H133      1.0  0.08440  0.76298  0.79240  1.0000
  C   C90       1.0  0.16619  0.84339  0.52939  1.0000
  H   H134      1.0  0.22221  0.66324  0.94701  1.0000
  C   C91       1.0  0.22206  0.61895  0.94409  1.0000
  H   H135      1.0  0.15770  0.75825  0.78455  1.0000
  H   H136      1.0  0.12008  0.77390  0.81579  1.0000
  C   C92       1.0  0.07960  0.81517  0.60774  1.0000
  H   H137      1.0  0.15802  0.77791  0.74049  1.0000
  C   C93       1.0  0.14567  0.75511  0.75668  1.0000
  H   H138      1.0  0.21967  0.90043  0.76382  1.0000
  H   H139      1.0  0.12044  0.79213  0.77029  1.0000
  H   H140      1.0  0.21620  0.55511  0.80144  1.0000
  C   C94       1.0  0.09740  0.71554  0.78753  1.0000
  C   C95       1.0  0.22465  0.89679  0.84117  1.0000
  H   H141      1.0  0.10812  0.76157  0.70842  1.0000
  H   H142      1.0  0.07226  0.70728  0.79388  1.0000
  H   H143      1.0  0.14895  0.73764  0.73869  1.0000
  H   H144      1.0  0.20210  0.54996  0.85199  1.0000
  S   S32       1.0  0.20190  0.77982  0.90928  1.0000
  C   C96       1.0  0.09717  0.73977  0.72659  1.0000
  Fe  Fe14      1.0  0.18463  0.85472  0.71504  1.0000
  S   S33       1.0  0.15195  0.86195  0.75608  1.0000
  S   S34       1.0  0.21804  0.84086  0.73979  1.0000
  Fe  Fe15      1.0  0.16242  0.87287  0.64170  1.0000
  S   S35       1.0  0.12812  0.88090  0.67892  1.0000
  S   S36       1.0  0.16163  0.88711  0.57880  1.0000
  Fe  Fe16      1.0  0.16678  0.90566  0.72034  1.0000
  S   S37       1.0  0.17696  0.95172  0.74915  1.0000
  Fe  Fe17      1.0  0.11704  0.83667  0.71013  1.0000
  S   S38       1.0  0.07014  0.79397  0.72314  1.0000
  S   S39       1.0  0.20180  0.90019  0.68179  1.0000
  S   S40       1.0  0.14889  0.82669  0.67058  1.0000
  C   C97       1.0  0.21037  0.98697  0.73342  1.0000
  H   H145      1.0  0.17032  0.83369  0.55516  1.0000
  C   C98       1.0  0.23599  0.98661  0.71471  1.0000
  C   C99       1.0  0.07108  0.85936  0.60262  1.0000
  H   H146      1.0  0.23514  0.96457  0.70820  1.0000
  C   C100      1.0  0.03622  0.79564  0.71421  1.0000
  C   C101      1.0  0.03731  0.82421  0.70734  1.0000
  H   H147      1.0  0.05908  0.84595  0.70872  1.0000
  C   C102      1.0  0.21441  0.82572  0.78794  1.0000
  C   C103      1.0  0.18888  0.81929  0.81339  1.0000
  C   C104      1.0  0.18580  0.80574  0.85061  1.0000
  C   C105      1.0  0.20845  0.79899  0.86323  1.0000
  C   C106      1.0  0.23451  0.80632  0.83826  1.0000
  C   C107      1.0  0.23735  0.81945  0.80071  1.0000
  H   H148      1.0  0.17128  0.82431  0.80423  1.0000
  H   H149      1.0  0.16564  0.80029  0.86981  1.0000
  Fe  Fe18      1.0  0.23512  0.77394  0.94827  1.0000
  C   C108      1.0  0.07046  0.82980  0.54464  1.0000
  C   C109      1.0  0.21955  0.94041  0.81904  1.0000
  H   H150      1.0  0.25205  0.80111  0.84748  1.0000
  C   C110      1.0  0.24258  0.91726  0.77536  1.0000
  H   H151      1.0  0.06521  0.85870  0.63473  1.0000
  N   N10       1.0  0.06241  0.82772  0.58734  1.0000
  H   H152      1.0  0.07216  0.73280  0.73128  1.0000
  H   H153      1.0  0.17888  0.52230  0.81557  1.0000
  C   C111      1.0  0.16116  0.86902  0.53318  1.0000
  H   H154      1.0  0.09868  0.72114  0.70893  1.0000
  Fe  Fe19      1.0  0.23773  0.53210  0.96685  1.0000
  C   C112      1.0  0.02864  0.80663  0.59434  1.0000
  H   H155      1.0  0.21657  0.94720  0.84970  1.0000
  Fe  Fe20      1.0  0.24198  0.72843  0.00212  1.0000
  H   H156      1.0  0.07455  0.81387  0.64011  1.0000
  N   N11       1.0  0.21800  0.51816  0.83201  1.0000
  C   C113      1.0  0.00999  0.82471  0.69932  1.0000
  C   C114      1.0  0.20313  0.53722  0.82480  1.0000
  H   H157      1.0  0.23828  0.88424  0.83901  1.0000
  H   H158      1.0  0.10515  0.83030  0.60259  1.0000
  H   H159      1.0  0.05875  0.86971  0.58775  1.0000
  C   C115      1.0  0.00766  0.76768  0.71337  1.0000
  H   H160      1.0  0.01487  0.81586  0.58051  1.0000
  H   H161      1.0  0.02192  0.80382  0.62633  1.0000
  H   H162      1.0  0.25000  0.55184  0.87189  1.0000
  H   H163      1.0  0.00659  0.74551  0.71893  1.0000
  H   H164      1.0  0.23238  0.51826  0.77121  1.0000
  H   H165      1.0  0.22248  0.90213  0.87277  1.0000
  H   H166      1.0  0.05764  0.83882  0.52819  1.0000
  H   H167      1.0  0.06492  0.80650  0.53215  1.0000
  H   H168      1.0  0.09572  0.84595  0.53845  1.0000
  C   C116      1.0  0.22980  0.65000  0.00348  1.0000
  H   H169      1.0  0.01092  0.84688  0.69417  1.0000
  S   S41       1.0  0.21568  0.75515  0.00975  1.0000
  S   S42       1.0  0.30748  0.17520  0.23748  1.0000
  C   C117      1.0  0.33116  0.24281  0.17823  1.0000
  Fe  Fe21      1.0  0.28058  0.13051  0.27284  1.0000
  Fe  Fe22      1.0  0.29516  0.19818  0.28771  1.0000
  S   S43       1.0  0.28964  0.24106  0.27982  1.0000
  H   H170      1.0  0.26823  0.43170  0.10006  1.0000
  C   C118      1.0  0.29917  0.14587  0.49466  1.0000
  H   H171      1.0  0.39131  0.26413  0.15654  1.0000
  S   S44       1.0  0.32181  0.13693  0.30468  1.0000
  Fe  Fe23      1.0  0.30713  0.16177  0.35051  1.0000
  S   S45       1.0  0.29578  0.14525  0.41456  1.0000
  C   C119      1.0  0.29619  0.48249  0.14473  1.0000
  H   H172      1.0  0.34972  0.25672  0.25319  1.0000
  H   H173      1.0  0.37312  0.24441  0.22512  1.0000
  C   C120      1.0  0.31291  0.16267  0.45951  1.0000
  C   C121      1.0  0.36814  0.26402  0.22932  1.0000
  S   S46       1.0  0.33700  0.20890  0.32171  1.0000
  H   H174      1.0  0.38943  0.28451  0.24021  1.0000
  H   H175      1.0  0.45954  0.17427  0.06681  1.0000
  H   H176      1.0  0.34010  0.46293  0.08298  1.0000
  H   H177      1.0  0.26419  0.07298  0.31980  1.0000
  H   H178      1.0  0.28340  0.46014  0.16180  1.0000
  H   H179      1.0  0.29037  0.44857  0.05486  1.0000
  H   H180      1.0  0.33668  0.22364  0.17198  1.0000
  H   H181      1.0  0.44944  0.15641  0.15340  1.0000
  H   H182      1.0  0.46196  0.19509  0.17256  1.0000
  H   H183      1.0  0.37767  0.28740  0.13388  1.0000
  H   H184      1.0  0.27705  0.29089  0.26855  1.0000
  H   H185      1.0  0.32298  0.24746  0.15067  1.0000
  H   H186      1.0  0.31131  0.23374  0.20045  1.0000
  H   H187      1.0  0.27885  0.12281  0.49351  1.0000
  C   C122      1.0  0.47898  0.17460  0.08222  1.0000
  H   H188      1.0  0.34274  0.30234  0.17295  1.0000
  C   C123      1.0  0.45766  0.18118  0.14493  1.0000
  S   S47       1.0  0.39697  0.20571  0.24446  1.0000
  H   H189      1.0  0.43819  0.18183  0.13079  1.0000
  H   H190      1.0  0.35906  0.18239  0.17560  1.0000
  C   C124      1.0  0.44232  0.24585  0.14030  1.0000
  H   H191      1.0  0.40520  0.30383  0.17198  1.0000
  N   N12       1.0  0.30816  0.47770  0.10597  1.0000
  H   H192      1.0  0.37165  0.19641  0.10472  1.0000
  C   C125      1.0  0.38426  0.28223  0.16239  1.0000
  S   S48       1.0  0.42706  0.24055  0.06189  1.0000
  H   H193      1.0  0.47769  0.22784  0.09061  1.0000
  C   C126      1.0  0.33930  0.19239  0.46136  1.0000
  C   C127      1.0  0.35179  0.20500  0.49808  1.0000
  H   H194      1.0  0.31528  0.49974  0.16285  1.0000
  C   C128      1.0  0.41965  0.23061  0.11262  1.0000
  C   C129      1.0  0.38951  0.20802  0.12579  1.0000
  C   C130      1.0  0.38225  0.20016  0.16601  1.0000
  C   C131      1.0  0.40509  0.21488  0.19357  1.0000
  S   S49       1.0  0.26434  0.15289  0.31974  1.0000
  N   N13       1.0  0.35842  0.27132  0.19250  1.0000
  H   H195      1.0  0.26601  0.46276  0.07623  1.0000
  H   H196      1.0  0.46516  0.26439  0.13086  1.0000
  C   C132      1.0  0.35010  0.29613  0.20011  1.0000
  H   H197      1.0  0.47225  0.14987  0.08891  1.0000
  C   C133      1.0  0.43516  0.23774  0.18049  1.0000
  Fe  Fe24      1.0  0.34773  0.18340  0.27265  1.0000
  N   N14       1.0  0.48583  0.19379  0.11834  1.0000
  H   H198      1.0  0.35016  0.20551  0.43452  1.0000
  H   H199      1.0  0.36998  0.31783  0.21149  1.0000
  H   H200      1.0  0.45284  0.24962  0.20171  1.0000
  H   H201      1.0  0.27986  0.49164  0.14140  1.0000
  H   H202      1.0  0.33044  0.28835  0.22252  1.0000
  C   C134      1.0  0.25619  0.24061  0.26386  1.0000
  Fe  Fe25      1.0  0.47118  0.25576  0.02288  1.0000
  C   C135      1.0  0.28212  0.45410  0.08338  1.0000
  H   H203      1.0  0.31920  0.44384  0.12800  1.0000
  C   C136      1.0  0.33049  0.46658  0.11170  1.0000
  H   H204      1.0  0.37223  0.22796  0.49925  1.0000
  H   H205      1.0  0.49964  0.24147  0.13433  1.0000
  H   H206      1.0  0.49958  0.18405  0.06109  1.0000
  H   H207      1.0  0.35041  0.48380  0.12876  1.0000
  C   C137      1.0  0.49553  0.22653  0.10775  1.0000
  H   H208      1.0  0.33270  0.50511  0.05423  1.0000
  C   C138      1.0  0.25625  0.26921  0.26209  1.0000
  H   H209      1.0  0.25611  0.02431  0.35133  1.0000
  S   S50       1.0  0.29109  0.15130  0.74169  1.0000
  S   S51       1.0  0.28315  0.14077  0.64624  1.0000
  Fe  Fe26      1.0  0.27527  0.16966  0.69317  1.0000
  Fe  Fe27      1.0  0.30344  0.12648  0.69395  1.0000
  S   S52       1.0  0.29978  0.07874  0.70128  1.0000
  H   H210      1.0  0.28523  0.35922  0.78418  1.0000
  H   H211      1.0  0.27896  0.23574  0.69744  1.0000
  H   H212      1.0  0.38143  0.14305  0.84303  1.0000
  Fe  Fe28      1.0  0.33067  0.18288  0.63833  1.0000
  H   H213      1.0  0.29541  0.09695  0.78525  1.0000
  C   C139      1.0  0.31160  0.15846  0.53127  1.0000
  H   H214      1.0  0.28287  0.01442  0.69058  1.0000
  C   C140      1.0  0.28344  0.22176  0.53088  1.0000
  S   S53       1.0  0.32169  0.21257  0.68286  1.0000
  H   H215      1.0  0.26262  0.19136  0.62331  1.0000
  H   H216      1.0  0.28779  0.18703  0.58721  1.0000
  H   H217      1.0  0.34574  0.12276  0.74649  1.0000
  C   C141      1.0  0.30767  0.10987  0.81192  1.0000
  S   S54       1.0  0.26737  0.47083  0.87092  1.0000
  H   H218      1.0  0.30555  0.13145  0.81439  1.0000
  H   H219      1.0  0.30084  0.14504  0.55791  1.0000
  C   C142      1.0  0.34235  0.08846  0.80760  1.0000
  H   H220      1.0  0.29495  0.09493  0.83799  1.0000
  N   N15       1.0  0.34060  0.11771  0.80939  1.0000
  C   C143      1.0  0.26810  0.19178  0.59116  1.0000
  C   C144      1.0  0.30320  0.24760  0.59251  1.0000
  C   C145      1.0  0.33798  0.18812  0.53321  1.0000
  C   C146      1.0  0.47236  0.30230  0.83654  1.0000
  H   H221      1.0  0.33104  0.07375  0.83429  1.0000
  H   H222      1.0  0.33049  0.07416  0.78145  1.0000
  H   H223      1.0  0.46596  0.28152  0.81722  1.0000
  S   S55       1.0  0.47887  0.21752  0.99618  1.0000
  H   H224      1.0  0.32377  0.24409  0.58872  1.0000
  Fe  Fe29      1.0  0.33866  0.19245  0.72827  1.0000
  H   H225      1.0  0.30989  0.27098  0.57998  1.0000
  H   H226      1.0  0.29845  0.24842  0.62470  1.0000
  H   H227      1.0  0.45986  0.29344  0.86560  1.0000
  H   H228      1.0  0.38168  0.23720  0.86145  1.0000
  H   H229      1.0  0.27841  0.28524  0.68630  1.0000
  S   S56       1.0  0.47524  0.27846  0.96412  1.0000
  H   H230      1.0  0.30406  0.21856  0.52563  1.0000
  H   H231      1.0  0.34549  0.12296  0.87204  1.0000
  H   H232      1.0  0.42204  0.23600  0.90061  1.0000
  H   H233      1.0  0.35376  0.15779  0.77272  1.0000
  S   S57       1.0  0.27851  0.48416  0.98879  1.0000
  H   H234      1.0  0.35528  0.15843  0.84616  1.0000
  H   H235      1.0  0.45146  0.20137  0.79971  1.0000
  H   H236      1.0  0.38121  0.14378  0.77125  1.0000
  S   S58       1.0  0.36414  0.22098  0.78179  1.0000
  C   C147      1.0  0.35605  0.13636  0.77346  1.0000
  H   H237      1.0  0.41125  0.20285  0.76046  1.0000
  C   C148      1.0  0.43959  0.21866  0.85291  1.0000
  S   S59       1.0  0.46940  0.21839  0.87920  1.0000
  C   C149      1.0  0.41316  0.20957  0.79114  1.0000
  C   C150      1.0  0.39327  0.21954  0.80838  1.0000
  C   C151      1.0  0.39686  0.22929  0.84789  1.0000
  C   C152      1.0  0.41973  0.22865  0.87015  1.0000
  S   S60       1.0  0.35216  0.16682  0.68276  1.0000
  C   C153      1.0  0.43606  0.20895  0.81339  1.0000
  H   H238      1.0  0.46319  0.31656  0.82358  1.0000
  Fe  Fe30      1.0  0.48594  0.24222  0.93837  1.0000
  H   H239      1.0  0.36691  0.09358  0.80511  1.0000
  S   S61       1.0  0.35321  0.20561  0.57899  1.0000
  C   C154      1.0  0.35636  0.13624  0.84424  1.0000
  H   H240      1.0  0.26771  0.32161  0.80836  1.0000
  H   H241      1.0  0.26559  0.44956  0.79123  1.0000
  C   C155      1.0  0.26456  0.04391  0.71250  1.0000
  C   C156      1.0  0.26522  0.33487  0.78401  1.0000
  Fe  Fe31      1.0  0.26139  0.48970  0.93093  1.0000
  C   C157      1.0  0.26307  0.01494  0.70477  1.0000
  C   C158      1.0  0.25688  0.26312  0.68661  1.0000
  C   C159      1.0  0.25730  0.23506  0.69262  1.0000
  N   N16       1.0  0.27597  0.22221  0.57345  1.0000
  H   H242      1.0  0.26716  0.32374  0.75577  1.0000
  H   H243      1.0  0.28888  0.24409  0.51628  1.0000
  H   H244      1.0  0.26392  0.20207  0.51576  1.0000
  H   H245      1.0  0.50274  0.33929  0.89747  1.0000
  C   C160      1.0  0.39407  0.78608  0.02833  1.0000
  H   H246      1.0  0.47605  0.65438  0.02685  1.0000
  H   H247      1.0  0.35428  0.88682  0.09114  1.0000
  C   C161      1.0  0.27675  0.93576  0.43915  1.0000
  C   C162      1.0  0.34834  0.83827  0.04731  1.0000
  H   H248      1.0  0.30749  0.51678  0.07959  1.0000
  H   H249      1.0  0.27148  0.87052  0.14524  1.0000
  H   H250      1.0  0.34506  0.67292  0.04245  1.0000
  S   S62       1.0  0.45244  0.79510  0.03741  1.0000
  Fe  Fe32      1.0  0.48865  0.78388  0.01021  1.0000
  C   C163      1.0  0.50000  0.67275  0.03381  1.0000
  H   H251      1.0  0.40960  0.87020  0.03067  1.0000
  H   H252      1.0  0.38911  0.88413  0.09214  1.0000
  H   H253      1.0  0.27022  0.91204  0.45053  1.0000
  Fe  Fe33      1.0  0.25996  0.79541  0.03069  1.0000
  H   H254      1.0  0.33227  0.71638  0.03964  1.0000
  H   H255      1.0  0.34373  0.52628  0.09976  1.0000
  H   H256      1.0  0.29005  0.93910  0.41055  1.0000
  H   H257      1.0  0.50354  0.69508  0.02149  1.0000
  S   S63       1.0  0.26912  0.83101  0.07999  1.0000
  H   H258      1.0  0.49385  0.61550  0.02485  1.0000
  S   S64       1.0  0.48505  0.74024  0.03570  1.0000
  H   H259      1.0  0.38522  0.63007  0.05746  1.0000
  H   H260      1.0  0.36175  0.83018  0.06415  1.0000
  S   S65       1.0  0.28451  0.76719  0.02845  1.0000
  C   C164      1.0  0.25853  0.97062  0.41916  1.0000
  H   H261      1.0  0.27359  0.98932  0.43976  1.0000
  H   H262      1.0  0.43325  0.67352  0.02624  1.0000
  S   S66       1.0  0.33883  0.57048  0.02910  1.0000
  H   H263      1.0  0.30740  0.64532  0.02534  1.0000
  C   C165      1.0  0.39090  0.62874  0.02659  1.0000
  H   H264      1.0  0.27161  0.97506  0.39018  1.0000
  H   H265      1.0  0.29437  0.68787  0.02448  1.0000
  H   H266      1.0  0.39013  0.78001  0.05929  1.0000
  H   H267      1.0  0.34847  0.78016  0.02241  1.0000
  H   H268      1.0  0.29267  0.95344  0.46014  1.0000
  N   N17       1.0  0.36693  0.87181  0.03691  1.0000
  H   H269      1.0  0.38958  0.91617  0.06670  1.0000
  C   C166      1.0  0.37543  0.89064  0.07333  1.0000
  H   H270      1.0  0.32704  0.83320  0.06555  1.0000
  C   C167      1.0  0.33164  0.66286  0.01560  1.0000
  H   H271      1.0  0.50117  0.67561  0.06633  1.0000
  H   H272      1.0  0.34077  0.82382  0.02029  1.0000
  C   C168      1.0  0.32377  0.50770  0.08401  1.0000
  H   H273      1.0  0.32604  0.87549  0.02908  1.0000
  C   C169      1.0  0.31862  0.70429  0.01359  1.0000
  C   C170      1.0  0.39528  0.87719  0.01380  1.0000
  C   C171      1.0  0.34835  0.88072  0.01311  1.0000
  S   S67       1.0  0.25791  0.74382  0.93941  1.0000
  S   S68       1.0  0.28332  0.54214  0.93780  1.0000
  H   H274      1.0  0.38936  0.86298  0.98625  1.0000
  H   H275      1.0  0.26868  0.95444  0.86209  1.0000
  C   C172      1.0  0.37051  0.78647  0.00752  1.0000
  H   H276      1.0  0.32370  0.66039  0.93781  1.0000
  Fe  Fe34      1.0  0.29557  0.53584  0.99790  1.0000
  C   C173      1.0  0.36482  0.71018  0.97832  1.0000
  H   H277      1.0  0.34229  0.86741  0.98493  1.0000
  H   H278      1.0  0.28946  0.65595  0.96429  1.0000
  H   H279      1.0  0.28564  0.93698  0.82955  1.0000
  H   H280      1.0  0.26177  0.52524  0.85078  1.0000
  N   N18       1.0  0.33231  0.68763  0.99084  1.0000
  Fe  Fe35      1.0  0.29930  0.78405  0.96658  1.0000
  S   S69       1.0  0.27813  0.81551  0.96998  1.0000
  S   S70       1.0  0.49181  0.77090  0.94699  1.0000
  H   H281      1.0  0.25724  0.90585  0.77226  1.0000
  C   C174      1.0  0.42648  0.65131  0.96951  1.0000
  H   H282      1.0  0.26444  0.55661  0.82159  1.0000
  C   C175      1.0  0.37877  0.60072  0.96486  1.0000
  S   S71       1.0  0.34842  0.80044  0.94209  1.0000
  Fe  Fe36      1.0  0.49088  0.72860  0.97306  1.0000
  S   S72       1.0  0.46256  0.67972  0.94762  1.0000
  C   C176      1.0  0.40654  0.62498  0.94751  1.0000
  H   H283      1.0  0.41279  0.62316  0.91700  1.0000
  H   H284      1.0  0.36389  0.58035  0.94775  1.0000
  H   H285      1.0  0.34190  0.64986  0.99937  1.0000
  H   H286      1.0  0.36622  0.72930  0.95971  1.0000
  C   C177      1.0  0.37118  0.60222  0.00472  1.0000
  C   C178      1.0  0.40441  0.80268  0.94888  1.0000
  H   H287      1.0  0.37593  0.69848  0.96102  1.0000
  H   H288      1.0  0.44969  0.80707  0.95451  1.0000
  C   C179      1.0  0.37590  0.79569  0.96797  1.0000
  H   H289      1.0  0.40877  0.80968  0.91823  1.0000
  C   C180      1.0  0.42761  0.80115  0.96934  1.0000
  C   C181      1.0  0.27028  0.94763  0.83098  1.0000
  H   H290      1.0  0.31381  0.69113  0.93659  1.0000
  H   H291      1.0  0.31768  0.72234  0.99529  1.0000
  C   C182      1.0  0.31407  0.67315  0.95578  1.0000
  H   H292      1.0  0.49843  0.64540  0.96441  1.0000
  H   H293      1.0  0.28191  0.96948  0.81289  1.0000
  H   H294      1.0  0.37930  0.72156  0.00407  1.0000
  H   H295      1.0  0.41003  0.90226  0.00521  1.0000
  C   C183      1.0  0.41818  0.65340  0.00895  1.0000
  H   H296      1.0  0.25724  0.82435  0.78129  1.0000
  H   H297      1.0  0.36115  0.90614  0.00566  1.0000
  C   C184      1.0  0.42275  0.79352  0.00939  1.0000
  H   H298      1.0  0.61734  0.24290  0.06272  1.0000
  H   H299      1.0  0.71960  0.15688  0.22551  1.0000
  H   H300      1.0  0.57382  0.36059  0.03042  1.0000
  C   C185      1.0  0.68933  0.38453  0.03344  1.0000
  H   H301      1.0  0.51750  0.23730  0.08932  1.0000
  H   H302      1.0  0.66262  0.24226  0.02879  1.0000
  C   C186      1.0  0.61856  0.24149  0.03095  1.0000
  S   S73       1.0  0.56131  0.23765  0.03484  1.0000
  H   H303      1.0  0.69476  0.09929  0.23457  1.0000
  C   C187      1.0  0.74497  0.13511  0.27626  1.0000
  H   H304      1.0  0.67826  0.36336  0.05272  1.0000
  H   H305      1.0  0.61970  0.40128  0.06435  1.0000
  S   S74       1.0  0.67365  0.45778  0.03770  1.0000
  H   H306      1.0  0.71565  0.09717  0.19082  1.0000
  H   H307      1.0  0.51728  0.20766  0.16537  1.0000
  C   C188      1.0  0.61785  0.40352  0.03318  1.0000
  N   N19       1.0  0.74395  0.13127  0.23305  1.0000
  H   H308      1.0  0.53274  0.20238  0.11863  1.0000
  H   H309      1.0  0.71843  0.08095  0.23634  1.0000
  H   H310      1.0  0.72314  0.13336  0.28938  1.0000
  H   H311      1.0  0.73718  0.01152  0.29908  1.0000
  C   C189      1.0  0.59188  0.38040  0.01399  1.0000
  S   S75       1.0  0.73333  0.26136  0.03891  1.0000
  C   C190      1.0  0.51125  0.19306  0.13826  1.0000
  C   C191      1.0  0.71693  0.10080  0.22324  1.0000
  H   H312      1.0  0.71394  0.39901  0.04158  1.0000
  C   C192      1.0  0.74141  0.15714  0.21528  1.0000
  H   H313      1.0  0.74860  0.11694  0.29047  1.0000
  S   S76       1.0  0.52157  0.28780  0.03515  1.0000
  C   C193      1.0  0.64136  0.42956  0.01234  1.0000
  H   H314      1.0  0.67756  0.39854  0.04063  1.0000
  H   H315      1.0  0.74195  0.15588  0.18253  1.0000
  C   C194      1.0  0.64430  0.24118  0.01177  1.0000
  H   H316      1.0  0.50480  0.16874  0.14687  1.0000
  C   C195      1.0  0.62147  0.23656  0.94919  1.0000
  H   H317      1.0  0.57744  0.23590  0.95138  1.0000
  C   C196      1.0  0.64558  0.23814  0.97084  1.0000
  C   C197      1.0  0.59609  0.23765  0.96830  1.0000
  H   H318      1.0  0.62221  0.23411  0.91754  1.0000
  H   H319      1.0  0.53904  0.36216  0.87086  1.0000
  C   C198      1.0  0.52203  0.33255  0.80171  1.0000
  H   H320      1.0  0.69088  0.41938  0.97301  1.0000
  H   H321      1.0  0.67713  0.23006  0.85687  1.0000
  Fe  Fe37      1.0  0.52650  0.30671  0.97403  1.0000
  H   H322      1.0  0.74450  0.05366  0.59574  1.0000
  S   S77       1.0  0.55584  0.35583  0.94930  1.0000
  S   S78       1.0  0.53759  0.27182  0.94458  1.0000
  H   H323      1.0  0.71707  0.20039  0.78627  1.0000
  H   H324      1.0  0.65660  0.45240  0.95583  1.0000
  C   C199      1.0  0.61242  0.40954  0.95308  1.0000
  C   C200      1.0  0.63872  0.43234  0.97210  1.0000
  H   H325      1.0  0.68942  0.17531  0.84962  1.0000
  H   H326      1.0  0.72719  0.41981  0.97349  1.0000
  H   H327      1.0  0.61024  0.41221  0.92214  1.0000
  C   C201      1.0  0.51730  0.30052  0.85726  1.0000
  S   S79       1.0  0.74936  0.22617  0.96615  1.0000
  C   C202      1.0  0.68956  0.22794  0.82966  1.0000
  S   S80       1.0  0.73220  0.49031  0.94425  1.0000
  C   C203      1.0  0.58892  0.38351  0.97393  1.0000
  H   H328      1.0  0.54772  0.34635  0.80388  1.0000
  C   C204      1.0  0.70639  0.19710  0.86451  1.0000
  H   H329      1.0  0.69499  0.19906  0.89274  1.0000
  H   H330      1.0  0.70111  0.39946  0.93513  1.0000
  N   N20       1.0  0.71680  0.22509  0.83937  1.0000
  S   S81       1.0  0.67602  0.23462  0.94599  1.0000
  H   H331      1.0  0.72715  0.25690  0.88787  1.0000
  Fe  Fe38      1.0  0.72159  0.25100  0.97541  1.0000
  H   H332      1.0  0.69655  0.24909  0.81127  1.0000
  H   H333      1.0  0.65185  0.34975  0.95028  1.0000
  H   H334      1.0  0.72621  0.19394  0.87208  1.0000
  H   H335      1.0  0.54261  0.31389  0.86243  1.0000
  H   H336      1.0  0.67259  0.20705  0.81329  1.0000
  C   C205      1.0  0.70223  0.40484  0.96713  1.0000
  H   H337      1.0  0.74199  0.01955  0.70371  1.0000
  H   H338      1.0  0.51684  0.31288  0.78086  1.0000
  H   H339      1.0  0.51444  0.34806  0.78844  1.0000
  H   H340      1.0  0.70216  0.35058  0.95160  1.0000
  Fe  Fe39      1.0  0.52961  0.25088  0.00464  1.0000
  H   H341      1.0  0.51284  0.28035  0.83763  1.0000
  C   C206      1.0  0.65429  0.35681  0.98177  1.0000
  C   C207      1.0  0.73863  0.25343  0.86077  1.0000
  C   C208      1.0  0.73254  0.22197  0.80279  1.0000
  C   C209      1.0  0.51355  0.34747  0.86740  1.0000
  H   H342      1.0  0.64214  0.33498  0.99988  1.0000
  H   H343      1.0  0.72822  0.37129  0.98971  1.0000
  C   C210      1.0  0.70326  0.35754  0.98308  1.0000
  N   N21       1.0  0.68728  0.37592  0.99134  1.0000
  H   H344      1.0  0.64163  0.37007  0.98723  1.0000
  Fe  Fe40      1.0  0.71778  0.49500  0.00641  1.0000
  H   H345      1.0  0.74025  0.24246  0.78286  1.0000
  N   N22       1.0  0.50631  0.32072  0.84070  1.0000
  H   H346      1.0  0.74771  0.27499  0.84246  1.0000
  H   H347      1.0  0.69280  0.33569  0.00116  1.0000
  C   C211      1.0  0.59429  0.23956  0.00936  1.0000
  H   H348      1.0  0.75366  0.22060  0.80912  1.0000
  H   H349      1.0  0.50513  0.29039  0.88602  1.0000
  H   H350      1.0  0.50506  0.36295  0.85641  1.0000
  Fe  Fe41      1.0  0.67805  0.85251  0.25684  1.0000
  H   H351      1.0  0.71779  0.91631  0.21936  1.0000
  C   C212      1.0  0.70504  0.89386  0.14530  1.0000
  H   H352      1.0  0.53467  0.62811  0.02046  1.0000
  H   H353      1.0  0.69227  0.92731  0.19810  1.0000
  C   C213      1.0  0.67566  0.86795  0.48362  1.0000
  H   H354      1.0  0.70331  0.94620  0.12802  1.0000
  S   S82       1.0  0.67229  0.86590  0.40293  1.0000
  H   H355      1.0  0.60439  0.75588  0.13830  1.0000
  Fe  Fe42      1.0  0.53726  0.76699  0.03613  1.0000
  C   C214      1.0  0.59625  0.80668  0.36825  1.0000
  S   S83       1.0  0.64210  0.85276  0.21779  1.0000
  C   C215      1.0  0.58726  0.80683  0.29902  1.0000
  N   N23       1.0  0.58976  0.82294  0.33709  1.0000
  H   H356      1.0  0.61837  0.80646  0.36147  1.0000
  H   H357      1.0  0.61784  0.86884  0.36176  1.0000
  H   H358      1.0  0.58271  0.81872  0.27476  1.0000
  H   H359      1.0  0.63782  0.85643  0.32733  1.0000
  C   C216      1.0  0.58607  0.78491  0.11924  1.0000
  C   C217      1.0  0.58599  0.81318  0.12569  1.0000
  C   C218      1.0  0.60341  0.83366  0.15580  1.0000
  C   C219      1.0  0.62139  0.82637  0.17956  1.0000
  C   C220      1.0  0.62187  0.79833  0.17282  1.0000
  C   C221      1.0  0.60415  0.77766  0.14297  1.0000
  H   H360      1.0  0.57216  0.81907  0.10779  1.0000
  H   H361      1.0  0.60277  0.85523  0.16075  1.0000
  H   H362      1.0  0.63554  0.79233  0.19083  1.0000
  C   C222      1.0  0.56032  0.82274  0.34737  1.0000
  H   H363      1.0  0.61205  0.86862  0.30966  1.0000
  H   H364      1.0  0.56827  0.78197  0.30029  1.0000
  H   H365      1.0  0.59902  0.81875  0.39716  1.0000
  H   H366      1.0  0.56149  0.83474  0.37596  1.0000
  C   C223      1.0  0.61534  0.85571  0.33377  1.0000
  H   H367      1.0  0.54047  0.79834  0.35004  1.0000
  H   H368      1.0  0.57743  0.78190  0.37199  1.0000
  H   H369      1.0  0.55492  0.83503  0.32453  1.0000
  H   H370      1.0  0.73618  0.66142  0.20711  1.0000
  H   H371      1.0  0.60916  0.80680  0.29010  1.0000
  S   S84       1.0  0.56341  0.75763  0.08279  1.0000
  H   H372      1.0  0.66202  0.87966  0.48332  1.0000
  S   S85       1.0  0.67161  0.81987  0.30619  1.0000
  H   H373      1.0  0.57327  0.68497  0.01563  1.0000
  H   H374      1.0  0.73693  0.96111  0.29022  1.0000
  S   S86       1.0  0.72503  0.85958  0.23690  1.0000
  Fe  Fe43      1.0  0.74394  0.89994  0.27964  1.0000
  H   H375      1.0  0.55664  0.69233  0.06026  1.0000
  Fe  Fe44      1.0  0.72044  0.83022  0.28941  1.0000
  S   S87       1.0  0.72658  0.78737  0.29026  1.0000
  H   H376      1.0  0.68087  0.88973  0.14403  1.0000
  H   H377      1.0  0.70904  0.83669  0.42130  1.0000
  H   H378      1.0  0.74229  0.73916  0.29511  1.0000
  S   S88       1.0  0.74331  0.87107  0.33085  1.0000
  H   H379      1.0  0.72316  0.82474  0.48503  1.0000
  H   H380      1.0  0.71200  0.88855  0.11575  1.0000
  C   C224      1.0  0.70216  0.84383  0.44859  1.0000
  C   C225      1.0  0.71014  0.83709  0.48480  1.0000
  C   C226      1.0  0.68460  0.85902  0.44784  1.0000
  Fe  Fe45      1.0  0.69483  0.86247  0.34446  1.0000
  S   S89       1.0  0.69753  0.89459  0.29659  1.0000
  C   C227      1.0  0.72686  0.94877  0.12944  1.0000
  H   H381      1.0  0.73421  0.94507  0.09922  1.0000
  H   H382      1.0  0.73192  0.95645  0.20714  1.0000
  C   C228      1.0  0.71667  0.93192  0.19723  1.0000
  H   H383      1.0  0.74311  0.97345  0.13794  1.0000
  H   H384      1.0  0.51814  0.63519  0.06524  1.0000
  N   N24       1.0  0.72675  0.92628  0.15773  1.0000
  C   C229      1.0  0.55481  0.68985  0.02772  1.0000
  H   H385      1.0  0.74916  0.70527  0.16129  1.0000
  N   N25       1.0  0.52355  0.66515  0.01689  1.0000
  H   H386      1.0  0.70394  0.87625  0.16634  1.0000
  C   C230      1.0  0.51729  0.63459  0.03257  1.0000
  H   H387      1.0  0.75004  0.65718  0.13660  1.0000
  H   H388      1.0  0.56032  0.71326  0.01643  1.0000
  S   S90       1.0  0.54064  0.81196  0.01604  1.0000
  S   S91       1.0  0.54295  0.75192  0.97464  1.0000
  S   S92       1.0  0.70543  0.82200  0.67669  1.0000
  C   C231      1.0  0.68417  0.86174  0.51988  1.0000
  H   H389      1.0  0.73974  0.74648  0.71677  1.0000
  Fe  Fe46      1.0  0.54370  0.79535  0.95408  1.0000
  S   S93       1.0  0.58388  0.83007  0.91353  1.0000
  S   S94       1.0  0.63217  0.80984  0.74393  1.0000
  H   H390      1.0  0.66508  0.90063  0.79748  1.0000
  H   H391      1.0  0.62891  0.87794  0.70072  1.0000
  H   H392      1.0  0.60869  0.87705  0.80673  1.0000
  H   H393      1.0  0.65459  0.91951  0.69667  1.0000
  C   C232      1.0  0.59777  0.82110  0.86864  1.0000
  C   C233      1.0  0.57790  0.79743  0.84356  1.0000
  C   C234      1.0  0.58909  0.79362  0.80600  1.0000
  C   C235      1.0  0.62030  0.81304  0.79330  1.0000
  C   C236      1.0  0.64050  0.83565  0.81918  1.0000
  C   C237      1.0  0.62914  0.84005  0.85628  1.0000
  H   H394      1.0  0.55367  0.78280  0.85254  1.0000
  H   H395      1.0  0.60284  0.85390  0.76321  1.0000
  H   H396      1.0  0.57327  0.77593  0.78635  1.0000
  H   H397      1.0  0.64474  0.85825  0.87559  1.0000
  C   C238      1.0  0.63292  0.90113  0.71201  1.0000
  H   H398      1.0  0.66480  0.85002  0.81046  1.0000
  H   H399      1.0  0.66052  0.87769  0.75380  1.0000
  C   C239      1.0  0.63984  0.93358  0.76934  1.0000
  C   C240      1.0  0.66266  0.90010  0.76511  1.0000
  N   N26       1.0  0.63556  0.90302  0.75518  1.0000
  C   C241      1.0  0.60706  0.87723  0.77419  1.0000
  H   H400      1.0  0.68469  0.91947  0.75197  1.0000
  H   H401      1.0  0.61324  0.90408  0.70315  1.0000
  H   H402      1.0  0.66133  0.95340  0.75555  1.0000
  H   H403      1.0  0.58616  0.87906  0.76827  1.0000
  H   H404      1.0  0.64202  0.93565  0.80184  1.0000
  S   S95       1.0  0.75408  0.89461  0.64783  1.0000
  H   H405      1.0  0.72515  0.75598  0.60272  1.0000
  H   H406      1.0  0.53923  0.65746  0.95955  1.0000
  Fe  Fe47      1.0  0.67868  0.84146  0.71134  1.0000
  Fe  Fe48      1.0  0.74787  0.86349  0.69910  1.0000
  H   H407      1.0  0.73587  0.78139  0.64469  1.0000
  S   S96       1.0  0.72107  0.88086  0.73754  1.0000
  Fe  Fe49      1.0  0.70989  0.85394  0.62715  1.0000
  C   C242      1.0  0.73526  0.78089  0.61206  1.0000
  H   H408      1.0  0.75011  0.59757  0.81666  1.0000
  Fe  Fe50      1.0  0.72337  0.90820  0.68398  1.0000
  S   S97       1.0  0.72631  0.95585  0.68913  1.0000
  H   H409      1.0  0.61988  0.93673  0.76230  1.0000
  H   H410      1.0  0.67700  0.86852  0.54722  1.0000
  S   S98       1.0  0.67927  0.86967  0.65953  1.0000
  S   S99       1.0  0.71071  0.83538  0.56520  1.0000
  H   H411      1.0  0.73996  0.79719  0.72144  1.0000
  H   H412      1.0  0.71889  0.78909  0.60426  1.0000
  H   H413      1.0  0.74389  0.69665  0.84211  1.0000
  S   S100      1.0  0.75012  0.56820  0.88864  1.0000
  C   C243      1.0  0.52196  0.66334  0.97355  1.0000
  S   S101      1.0  0.73707  0.54746  0.00226  1.0000
  H   H414      1.0  0.52655  0.68603  0.96069  1.0000
  H   H415      1.0  0.74870  0.80836  0.54117  1.0000
  C   C244      1.0  0.70121  0.84597  0.52060  1.0000
  H   H416      1.0  0.75242  0.66784  0.86078  1.0000
  H   H417      1.0  0.75446  0.68468  0.77293  1.0000
  H   H418      1.0  0.00302  0.28553  0.27176  1.0000
  H   H419      1.0  0.97977  0.17510  0.31627  1.0000
  Fe  Fe51      1.0  0.89565  0.16907  0.26282  1.0000
  S   S102      1.0  0.89224  0.20979  0.28846  1.0000
  S   S103      1.0  0.94157  0.17326  0.24074  1.0000
  Fe  Fe52      1.0  0.82743  0.12296  0.28387  1.0000
  S   S104      1.0  0.82012  0.16096  0.31231  1.0000
  S   S105      1.0  0.78357  0.07538  0.28416  1.0000
  Fe  Fe53      1.0  0.84683  0.18945  0.25850  1.0000
  S   S106      1.0  0.83063  0.22014  0.22922  1.0000
  Fe  Fe54      1.0  0.86598  0.17730  0.33939  1.0000
  S   S107      1.0  0.88526  0.19549  0.39973  1.0000
  S   S108      1.0  0.85204  0.15071  0.22890  1.0000
  S   S109      1.0  0.87132  0.13724  0.31481  1.0000
  C   C245      1.0  0.97635  0.20880  0.24807  1.0000
  H   H420      1.0  0.84169  0.25689  0.03370  1.0000
  Fe  Fe55      1.0  0.76566  0.24149  0.02775  1.0000
  C   C246      1.0  0.86593  0.18256  0.44657  1.0000
  C   C247      1.0  0.88339  0.19351  0.48040  1.0000
  C   C248      1.0  0.83386  0.16240  0.45098  1.0000
  H   H421      1.0  0.90816  0.20930  0.47730  1.0000
  H   H422      1.0  0.82015  0.15396  0.42521  1.0000
  C   C249      1.0  0.78487  0.04005  0.27843  1.0000
  C   C250      1.0  0.81163  0.03973  0.26380  1.0000
  H   H423      1.0  0.83250  0.06159  0.25647  1.0000
  C   C251      1.0  0.79212  0.21217  0.10631  1.0000
  C   C252      1.0  0.80245  0.19150  0.11744  1.0000
  C   C253      1.0  0.81551  0.19441  0.15420  1.0000
  C   C254      1.0  0.81762  0.21755  0.18078  1.0000
  C   C255      1.0  0.80754  0.23837  0.16947  1.0000
  C   C256      1.0  0.79511  0.23591  0.13234  1.0000
  H   H424      1.0  0.82378  0.17866  0.16205  1.0000
  H   H425      1.0  0.93427  0.19771  0.33607  1.0000
  H   H426      1.0  0.96317  0.14237  0.34970  1.0000
  H   H427      1.0  0.79352  0.15423  0.22553  1.0000
  S   S110      1.0  0.76065  0.49981  0.03262  1.0000
  H   H428      1.0  0.80038  0.17313  0.09747  1.0000
  H   H429      1.0  0.76110  0.18045  0.22326  1.0000
  C   C257      1.0  0.86041  0.50378  0.07480  1.0000
  C   C258      1.0  0.75793  0.01147  0.28763  1.0000
  H   H430      1.0  0.97552  0.22328  0.33366  1.0000
  N   N27       1.0  0.95973  0.18252  0.37022  1.0000
  H   H431      1.0  0.95451  0.23720  0.25627  1.0000
  C   C259      1.0  0.97602  0.23670  0.25636  1.0000
  H   H432      1.0  0.95275  0.22249  0.37687  1.0000
  H   H433      1.0  0.78727  0.25200  0.12425  1.0000
  H   H434      1.0  0.80912  0.25642  0.18971  1.0000
  C   C260      1.0  0.78054  0.40635  0.03801  1.0000
  H   H435      1.0  0.86500  0.50097  0.10570  1.0000
  H   H436      1.0  0.91104  0.15299  0.38458  1.0000
  H   H437      1.0  0.77430  0.40402  0.06921  1.0000
  S   S111      1.0  0.77490  0.20670  0.06015  1.0000
  H   H438      1.0  0.83191  0.01085  0.24632  1.0000
  C   C261      1.0  0.95544  0.20761  0.35349  1.0000
  H   H439      1.0  0.77918  0.44944  0.03197  1.0000
  H   H440      1.0  0.93233  0.17878  0.42314  1.0000
  C   C262      1.0  0.78550  0.38338  0.01881  1.0000
  C   C263      1.0  0.93377  0.16387  0.39882  1.0000
  H   H441      1.0  0.98971  0.21282  0.41423  1.0000
  C   C264      1.0  0.78329  0.43208  0.01699  1.0000
  C   C265      1.0  0.81123  0.01094  0.25802  1.0000
  C   C266      1.0  0.98942  0.19686  0.39021  1.0000
  H   H442      1.0  0.77327  0.13012  0.18485  1.0000
  H   H443      1.0  0.84298  0.22189  0.04300  1.0000
  H   H444      1.0  0.99348  0.17867  0.40328  1.0000
  H   H445      1.0  0.82526  0.50645  0.01909  1.0000
  S   S112      1.0  0.78160  0.35131  0.04603  1.0000
  C   C267      1.0  0.96037  0.16185  0.33827  1.0000
  H   H446      1.0  0.79443  0.13903  0.49208  1.0000
  H   H447      1.0  0.93611  0.14465  0.41204  1.0000
  C   C268      1.0  0.81936  0.15395  0.48894  1.0000
  H   H448      1.0  0.77511  0.11247  0.22952  1.0000
  H   H449      1.0  0.93855  0.15116  0.32197  1.0000
  Fe  Fe56      1.0  0.77328  0.30665  0.01469  1.0000
  H   H450      1.0  0.80208  0.49264  0.08760  1.0000
  C   C269      1.0  0.77268  0.13202  0.21748  1.0000
  H   H451      1.0  0.84284  0.48019  0.06415  1.0000
  H   H452      1.0  0.76439  0.15851  0.28447  1.0000
  H   H453      1.0  0.87856  0.25859  0.03647  1.0000
  C   C270      1.0  0.85468  0.24422  0.02587  1.0000
  C   C271      1.0  0.00364  0.26416  0.26493  1.0000
  C   C272      1.0  0.98035  0.21110  0.66216  1.0000
  H   H454      1.0  0.89512  0.28334  0.96987  1.0000
  H   H455      1.0  0.95938  0.19246  0.65024  1.0000
  Fe  Fe57      1.0  0.83279  0.17253  0.71766  1.0000
  S   S113      1.0  0.87363  0.16670  0.73072  1.0000
  S   S114      1.0  0.79999  0.17235  0.76774  1.0000
  Fe  Fe58      1.0  0.84180  0.16480  0.62769  1.0000
  S   S115      1.0  0.88341  0.15891  0.63512  1.0000
  S   S116      1.0  0.81736  0.15453  0.56986  1.0000
  Fe  Fe59      1.0  0.85560  0.12776  0.68634  1.0000
  S   S117      1.0  0.85604  0.08213  0.69397  1.0000
  Fe  Fe60      1.0  0.89755  0.19833  0.67855  1.0000
  S   S118      1.0  0.94589  0.23982  0.68422  1.0000
  S   S119      1.0  0.81315  0.13108  0.67650  1.0000
  S   S120      1.0  0.85764  0.20680  0.66780  1.0000
  C   C273      1.0  0.97997  0.23696  0.67986  1.0000
  C   C274      1.0  0.81698  0.24777  0.86172  1.0000
  H   H456      1.0  0.77737  0.21073  0.89280  1.0000
  H   H457      1.0  0.95615  0.10248  0.74590  1.0000
  H   H458      1.0  0.93945  0.18011  0.74293  1.0000
  C   C275      1.0  0.81921  0.01803  0.68840  1.0000
  H   H459      1.0  0.90239  0.09326  0.75895  1.0000
  C   C276      1.0  0.79199  0.04713  0.70063  1.0000
  C   C277      1.0  0.81997  0.04682  0.69476  1.0000
  H   H460      1.0  0.79222  0.06898  0.70661  1.0000
  H   H461      1.0  0.78282  0.02240  0.61611  1.0000
  H   H462      1.0  0.84866  0.23829  0.77394  1.0000
  C   C278      1.0  0.79272  0.21693  0.86682  1.0000
  C   C279      1.0  0.78823  0.19404  0.83811  1.0000
  C   C280      1.0  0.80823  0.20154  0.80430  1.0000
  C   C281      1.0  0.83311  0.23215  0.79983  1.0000
  H   H463      1.0  0.83031  0.10612  0.58657  1.0000
  C   C282      1.0  0.87066  0.26851  0.96149  1.0000
  H   H464      1.0  0.95852  0.14550  0.68198  1.0000
  C   C283      1.0  0.86896  0.18468  0.51832  1.0000
  N   N28       1.0  0.94235  0.13762  0.74277  1.0000
  C   C284      1.0  0.96496  0.12775  0.75272  1.0000
  C   C285      1.0  0.91282  0.11875  0.76580  1.0000
  C   C286      1.0  0.93663  0.13260  0.70033  1.0000
  C   C287      1.0  0.95501  0.17127  0.75215  1.0000
  H   H465      1.0  0.82207  0.21437  0.93846  1.0000
  S   S121      1.0  0.80639  0.28760  0.00832  1.0000
  S   S122      1.0  0.82242  0.27777  0.89600  1.0000
  Fe  Fe61      1.0  0.77607  0.49802  0.97023  1.0000
  C   C288      1.0  0.76350  0.01902  0.69930  1.0000
  H   H466      1.0  0.79600  0.02078  0.56653  1.0000
  H   H467      1.0  0.79463  0.09175  0.53261  1.0000
  C   C289      1.0  0.78092  0.02742  0.58495  1.0000
  C   C290      1.0  0.76906  0.06828  0.60388  1.0000
  N   N29       1.0  0.79008  0.06079  0.57938  1.0000
  H   H468      1.0  0.76909  0.17035  0.84198  1.0000
  H   H469      1.0  0.80965  0.23221  0.97633  1.0000
  H   H470      1.0  0.75645  0.01154  0.57716  1.0000
  H   H471      1.0  0.89520  0.12548  0.75889  1.0000
  H   H472      1.0  0.98752  0.14153  0.73576  1.0000
  Fe  Fe62      1.0  0.78888  0.27280  0.94742  1.0000
  C   C291      1.0  0.83738  0.25514  0.82837  1.0000
  H   H473      1.0  0.97809  0.18602  0.73687  1.0000
  C   C292      1.0  0.82236  0.08083  0.59121  1.0000
  H   H474      1.0  0.92589  0.10727  0.69251  1.0000
  H   H475      1.0  0.79768  0.36911  0.96351  1.0000
  H   H476      1.0  0.82459  0.07771  0.62289  1.0000
  C   C293      1.0  0.83679  0.16517  0.52277  1.0000
  H   H477      1.0  0.92036  0.14065  0.69156  1.0000
  H   H478      1.0  0.88260  0.19362  0.54410  1.0000
  S   S123      1.0  0.79711  0.46808  0.94957  1.0000
  H   H479      1.0  0.86051  0.19787  0.98991  1.0000
  C   C294      1.0  0.78803  0.06675  0.53754  1.0000
  H   H480      1.0  0.89629  0.23432  0.98339  1.0000
  H   H481      1.0  0.77539  0.09334  0.60054  1.0000
  H   H482      1.0  0.85635  0.27889  0.82420  1.0000
  S   S124      1.0  0.76022  0.29696  0.95189  1.0000
  H   H483      1.0  0.80380  0.41513  0.92667  1.0000
  C   C295      1.0  0.79188  0.43544  0.97679  1.0000
  C   C296      1.0  0.79702  0.41259  0.95771  1.0000
  H   H484      1.0  0.77009  0.06422  0.63565  1.0000
  H   H485      1.0  0.75900  0.25179  0.86986  1.0000
  H   H486      1.0  0.87252  0.21607  0.94212  1.0000
  H   H487      1.0  0.96985  0.13122  0.78454  1.0000
  H   H488      1.0  0.91608  0.12171  0.79801  1.0000
  H   H489      1.0  0.95812  0.17572  0.78424  1.0000
  C   C297      1.0  0.82278  0.21950  0.97055  1.0000
  H   H490      1.0  0.80387  0.06175  0.51816  1.0000
  C   C298      1.0  0.79350  0.38647  0.97850  1.0000
  N   N30       1.0  0.85502  0.23830  0.98306  1.0000
  H   H491      1.0  0.80990  0.19683  0.98686  1.0000
  H   H492      1.0  0.83881  0.07531  0.57411  1.0000
  H   H493      1.0  0.76402  0.05198  0.52747  1.0000
  H   H494      1.0  0.87079  0.26488  0.92903  1.0000
  H   H495      1.0  0.85856  0.28232  0.96749  1.0000
  H   H496      1.0  0.84074  0.01751  0.68401  1.0000
  C   C299      1.0  0.87187  0.22086  0.97423  1.0000
  H   H497      1.0  0.77520  0.95463  0.16960  1.0000
  S   S125      1.0  0.81715  0.59006  0.06202  1.0000
  Fe  Fe63      1.0  0.84076  0.67713  0.26955  1.0000
  S   S126      1.0  0.87878  0.72004  0.23879  1.0000
  S   S127      1.0  0.80705  0.63161  0.23917  1.0000
  Fe  Fe64      1.0  0.85010  0.71189  0.34973  1.0000
  S   S128      1.0  0.95471  0.73506  0.29211  1.0000
  S   S129      1.0  0.83130  0.71577  0.41093  1.0000
  C   C300      1.0  0.76240  0.75948  0.28220  1.0000
  Fe  Fe65      1.0  0.90535  0.72660  0.29321  1.0000
  S   S130      1.0  0.81870  0.70301  0.29993  1.0000
  S   S131      1.0  0.86845  0.68166  0.32240  1.0000
  C   C301      1.0  0.84137  0.70602  0.45565  1.0000
  C   C302      1.0  0.85595  0.68783  0.45659  1.0000
  H   H498      1.0  0.83537  0.54668  0.02725  1.0000
  H   H499      1.0  0.82371  0.81512  0.33064  1.0000
  C   C303      1.0  0.86192  0.67917  0.49299  1.0000
  H   H500      1.0  0.86200  0.67988  0.42934  1.0000
  H   H501      1.0  0.82970  0.71826  0.16190  1.0000
  H   H502      1.0  0.80053  0.79421  0.43562  1.0000
  H   H503      1.0  0.79302  0.80911  0.39219  1.0000
  H   H504      1.0  0.79416  0.74675  0.39904  1.0000
  H   H505      1.0  0.76593  0.65336  0.22110  1.0000
  H   H506      1.0  0.85935  0.83828  0.35488  1.0000
  C   C304      1.0  0.77477  0.66852  0.14447  1.0000
  H   H507      1.0  0.86407  0.78362  0.38833  1.0000
  C   C305      1.0  0.83350  0.71603  0.49132  1.0000
  C   C306      1.0  0.81323  0.60152  0.11098  1.0000
  C   C307      1.0  0.83820  0.62864  0.12629  1.0000
  C   C308      1.0  0.83667  0.63824  0.16535  1.0000
  C   C309      1.0  0.81020  0.62058  0.18974  1.0000
  C   C310      1.0  0.78517  0.59351  0.17440  1.0000
  C   C311      1.0  0.78658  0.58407  0.13518  1.0000
  H   H508      1.0  0.85896  0.64227  0.10785  1.0000
  H   H509      1.0  0.85617  0.65903  0.17674  1.0000
  H   H510      1.0  0.82017  0.68643  0.19493  1.0000
  C   C312      1.0  0.75773  0.98279  0.28258  1.0000
  N   N31       1.0  0.78099  0.69017  0.17810  1.0000
  H   H511      1.0  0.87868  0.55690  0.11691  1.0000
  C   C313      1.0  0.80446  0.76229  0.37275  1.0000
  H   H512      1.0  0.82450  0.51465  0.12830  1.0000
  Fe  Fe66      1.0  0.78131  0.55177  0.02341  1.0000
  H   H513      1.0  0.82205  0.72992  0.49090  1.0000
  H   H514      1.0  0.86560  0.57556  0.08401  1.0000
  H   H515      1.0  0.76720  0.56312  0.12388  1.0000
  C   C314      1.0  0.76131  0.67248  0.21279  1.0000
  N   N32       1.0  0.84948  0.52677  0.07196  1.0000
  H   H516      1.0  0.76457  0.57968  0.19302  1.0000
  C   C315      1.0  0.84153  0.81383  0.34786  1.0000
  H   H517      1.0  0.85313  0.80379  0.32819  1.0000
  Fe  Fe67      1.0  0.85815  0.74612  0.27240  1.0000
  H   H518      1.0  0.79028  0.73700  0.27811  1.0000
  S   S132      1.0  0.88858  0.75696  0.32369  1.0000
  C   C316      1.0  0.98728  0.79999  0.28616  1.0000
  H   H519      1.0  0.78847  0.72898  0.14201  1.0000
  C   C317      1.0  0.85191  0.79403  0.40612  1.0000
  N   N33       1.0  0.82740  0.79464  0.38381  1.0000
  H   H520      1.0  0.81140  0.53277  0.09472  1.0000
  H   H521      1.0  0.81540  0.75158  0.35321  1.0000
  S   S133      1.0  0.78429  0.94656  0.25837  1.0000
  H   H522      1.0  0.82821  0.83277  0.41727  1.0000
  C   C318      1.0  0.78963  0.75818  0.27256  1.0000
  C   C319      1.0  0.84340  0.52933  0.03053  1.0000
  C   C320      1.0  0.78431  0.98234  0.26747  1.0000
  H   H523      1.0  0.86974  0.81798  0.41496  1.0000
  C   C321      1.0  0.76114  0.78701  0.27598  1.0000
  H   H524      1.0  0.78633  0.83441  0.25391  1.0000
  H   H525      1.0  0.83437  0.83184  0.23556  1.0000
  C   C322      1.0  0.81428  0.81157  0.24860  1.0000
  C   C323      1.0  0.98736  0.77268  0.29716  1.0000
  C   C324      1.0  0.78715  0.81312  0.25903  1.0000
  H   H526      1.0  0.96618  0.79846  0.27625  1.0000
  C   C325      1.0  0.81574  0.78423  0.25588  1.0000
  S   S134      1.0  0.85062  0.78347  0.24491  1.0000
  C   C326      1.0  0.81162  0.80832  0.40840  1.0000
  H   H527      1.0  0.87265  0.66459  0.49344  1.0000
  H   H528      1.0  0.89548  0.56680  0.06752  1.0000
  H   H529      1.0  0.77980  0.64940  0.15140  1.0000
  H   H530      1.0  0.84205  0.77938  0.43322  1.0000
  C   C327      1.0  0.77399  0.71515  0.16804  1.0000
  C   C328      1.0  0.87343  0.55784  0.08573  1.0000
  H   H531      1.0  0.78952  0.68094  0.11789  1.0000
  H   H532      1.0  0.88224  0.51109  0.05659  1.0000
  H   H533      1.0  0.78509  0.76169  0.35699  1.0000
  C   C329      1.0  0.81404  0.70457  0.18724  1.0000
  C   C330      1.0  0.82060  0.51620  0.09672  1.0000
  H   H534      1.0  0.81954  0.72090  0.21259  1.0000
  H   H535      1.0  0.76575  0.68795  0.23892  1.0000
  H   H536      1.0  0.76720  0.92712  0.12978  1.0000
  H   H537      1.0  0.75915  0.91389  0.18002  1.0000
  H   H538      1.0  0.77884  0.73201  0.19282  1.0000
  C   C331      1.0  0.75844  0.93067  0.15913  1.0000
  H   H539      1.0  0.86459  0.53706  0.01089  1.0000
  H   H540      1.0  0.81811  0.74021  0.78320  1.0000
  H   H541      1.0  0.86162  0.60454  0.70827  1.0000
  S   S135      1.0  0.80047  0.55039  0.96208  1.0000
  Fe  Fe68      1.0  0.85859  0.68808  0.72004  1.0000
  S   S136      1.0  0.86656  0.73607  0.73661  1.0000
  S   S137      1.0  0.85882  0.65371  0.76363  1.0000
  Fe  Fe69      1.0  0.85936  0.70027  0.63151  1.0000
  H   H542      1.0  0.88837  0.64301  0.69026  1.0000
  S   S138      1.0  0.86051  0.67649  0.57382  1.0000
  H   H543      1.0  0.78758  0.81473  0.53529  1.0000
  Fe  Fe70      1.0  0.90128  0.75360  0.68504  1.0000
  Fe  Fe71      1.0  0.83144  0.72745  0.69181  1.0000
  H   H544      1.0  0.82061  0.60377  0.67012  1.0000
  S   S139      1.0  0.89635  0.70651  0.67202  1.0000
  S   S140      1.0  0.82115  0.67806  0.67866  1.0000
  C   C332      1.0  0.77237  0.68017  0.78498  1.0000
  H   H545      1.0  0.87040  0.56938  0.63668  1.0000
  H   H546      1.0  0.83364  0.71553  0.55490  1.0000
  H   H547      1.0  0.89802  0.61230  0.68440  1.0000
  H   H548      1.0  0.84716  0.64198  0.65069  1.0000
  H   H549      1.0  0.83392  0.56101  0.66073  1.0000
  S   S141      1.0  0.78817  0.73113  0.70565  1.0000
  H   H550      1.0  0.95850  0.74652  0.70477  1.0000
  C   C333      1.0  0.83828  0.61657  0.64599  1.0000
  C   C334      1.0  0.78062  0.59153  0.85392  1.0000
  C   C335      1.0  0.77387  0.60344  0.82083  1.0000
  C   C336      1.0  0.79753  0.62246  0.79288  1.0000
  C   C337      1.0  0.82826  0.63001  0.79799  1.0000
  C   C338      1.0  0.83495  0.61782  0.83076  1.0000
  C   C339      1.0  0.81131  0.59877  0.85865  1.0000
  H   H551      1.0  0.79198  0.63087  0.76713  1.0000
  H   H552      1.0  0.85861  0.62327  0.83479  1.0000
  H   H553      1.0  0.81686  0.58973  0.88385  1.0000
  H   H554      1.0  0.80210  0.67042  0.84354  1.0000
  H   H555      1.0  0.89706  0.65377  0.61875  1.0000
  H   H556      1.0  0.82645  0.61065  0.61757  1.0000
  H   H557      1.0  0.90688  0.62317  0.61165  1.0000
  N   N34       1.0  0.86398  0.60945  0.64519  1.0000
  C   C340      1.0  0.87867  0.61759  0.68361  1.0000
  H   H558      1.0  0.87667  0.62321  0.58439  1.0000
  C   C341      1.0  0.88723  0.62809  0.61365  1.0000
  C   C342      1.0  0.76167  0.79697  0.71803  1.0000
  H   H559      1.0  0.84035  0.56881  0.60870  1.0000
  H   H560      1.0  0.80298  0.84903  0.59461  1.0000
  N   N35       1.0  0.78684  0.70043  0.81917  1.0000
  H   H561      1.0  0.81135  0.74984  0.83258  1.0000
  C   C343      1.0  0.98144  0.79670  0.69808  1.0000
  C   C344      1.0  0.85163  0.57564  0.63748  1.0000
  C   C345      1.0  0.85396  0.68911  0.52866  1.0000
  S   S142      1.0  0.86660  0.74889  0.64115  1.0000
  C   C346      1.0  0.98037  0.76818  0.70528  1.0000
  C   C347      1.0  0.78736  0.78886  0.60444  1.0000
  C   C348      1.0  0.76270  0.99028  0.69245  1.0000
  C   C349      1.0  0.77910  0.83345  0.60716  1.0000
  C   C350      1.0  0.76446  0.79971  0.55024  1.0000
  C   C351      1.0  0.81165  0.69491  0.83270  1.0000
  H   H562      1.0  0.82920  0.69861  0.80853  1.0000
  H   H563      1.0  0.78982  0.78997  0.63678  1.0000
  S   S143      1.0  0.94792  0.79821  0.68634  1.0000
  S   S144      1.0  0.79045  0.86165  0.71661  1.0000
  C   C352      1.0  0.80020  0.73372  0.80764  1.0000
  H   H564      1.0  0.78215  0.73860  0.79687  1.0000
  H   H565      1.0  0.82416  0.71090  0.85718  1.0000
  C   C353      1.0  0.84003  0.70790  0.52766  1.0000
  C   C354      1.0  0.79066  0.98982  0.68723  1.0000
  N   N36       1.0  0.76655  0.80073  0.59346  1.0000
  H   H566      1.0  0.79031  0.96777  0.68203  1.0000
  C   C355      1.0  0.78975  0.82527  0.71623  1.0000
  H   H567      1.0  0.78015  0.83497  0.63969  1.0000
  C   C356      1.0  0.81778  0.79591  0.70994  1.0000
  C   C357      1.0  0.81781  0.82465  0.71269  1.0000
  H   H568      1.0  0.83951  0.79568  0.70652  1.0000
  H   H569      1.0  0.83964  0.84650  0.71143  1.0000
  H   H570      1.0  0.76435  0.84345  0.59889  1.0000
  C   C358      1.0  0.78961  0.76766  0.71111  1.0000
  H   H571      1.0  0.77310  0.70769  0.87770  1.0000
  H   H572      1.0  0.81112  0.80300  0.59067  1.0000
  H   H573      1.0  0.76096  0.65486  0.79292  1.0000
  H   H574      1.0  0.77833  0.76394  0.59560  1.0000
  H   H575      1.0  0.78989  0.68455  0.76053  1.0000
  C   C359      1.0  0.76300  0.69284  0.85139  1.0000
  C   C360      1.0  0.76162  0.76827  0.71564  1.0000
  Fe  Fe72      1.0  0.75528  0.54320  0.94131  1.0000
  H   H576      1.0  0.75511  0.77536  0.53894  1.0000
