data_image0
_chemical_formula_structural       HCHSH2CH2FeN2C2FeHSCH3C3HSH2CFeS2FeS2FeS2HFeS3HSH3SH2C6H4C2HCNC4H4CHCH4FeHCH2CH4CH3C2HNC2H2C2HCHCH3NH3FeSHFeSCFeSFeS3H2S2H2C2SNHC6H5CH2C2H5CH2CHCNHC3H8CH3FeC3H4FeSHFeS2FeS2FeHFeS3CHC2HCH2CH2C2H2C6H4CHCHCSNCH3SH2CNHCH3CHCSHC2H4CHC2H2SHCHN2H5CH3C3HFeS2FeS2CSFeSFeHSHNCH2C2HCH3C7H5FeH2CHC3FeCHCHSH6NH2SH2C2SHFeSH7CH2CSFeCSCHSC3SCHSC3H6CSHCNHCH2CHC2H3CH2CHNHCSH2FeH2SCSCH3CHFeS2H2CHCH4CSHCNC2HFe3H2CHC3HCH6CH2SH2CH2CH3CSHSHNCSH3FeC2H3CH5C2HC2H4CHCHCNH5CHFeH2CHSCFeS2FeSHSFeC2H3CHSCHSHCSHFeCSHCH2C2NCHCH2CH2CH3CH2C2H2C3H4CHCHS3H4CSNCHFe2H5CHCSCHC2FeCHCHCHCH3CH2SCH2SH3FeSCFeCSHC4H2CH2CHC2HC2FeHSH3SNC2H12CHCNH2CHCH4NSHCHC2HFeH3SHCHCNH4CHCFeH2CSC2H2SC2SHSHSC2HCS2CHC2H2SFeCFeH2FeCH4FeS2CSH4C2HCH3CH2C3H2CH2C2HNSFeSFeS3CNCH2CHC2H2C2H2SFeC2FeSH4CHSCFeCFeHSH5SCHC2H3CH2CHSH3NSCHCH2CFeS2H2C2HCHSC3H4CH4CH2SFeHSFeHNSCFeHFeH3CSH2C5H3CSHSH3CSHCH2CHCH4FeSH3SCHCH2SCH2CHCHFe2CSHNCHC2H4NHCHCH2CHCH3CHSC3H2C4H6NH2CH2CH5CH3CH2CH3SC2H5C2SFeS2Fe2S2CH2CHC2FeC4SH3C2H4SHSHC2H5CHCH2CHNSHCHSHCSHC2H3CHCFeH3CH2NCHCH3CSNC3HCHFeHFeHCH5CNH3CH2CH3CSC2HSCFeSFeHSFeCS2H2NCHSCH4CHC2H2CH2CFeCH2SH4SHC2HFeS2H2CH2NC3HCH2FeS2FeHSHC2SCH2C3HCH2SCH2CSNCH2FeS2Fe2S2FeS3HC4H2CHC6H7CH2C4HCH2Fe2HC5H2NH3CH9CH2SH3NHC3HC2HCHCHSCNS2HC2SFeHSFeHSFeHS2H3SCH2C2HC6H4SCH2SH4FeC2H2CSNC3H9CH4SFeSFeHSCHS2H2FeH2CSHSCH2CNC6H4NC2HC2H4CH2CH2CH2CHCSH2FeHCH2CH2NCHCHCHCHCH2CHCHFeS2CH3CFe2SH2CH2SHSHC3HC2HS2HNH6C6H5CHFeC2H2SCH2FeSCH4SHCH2CHSH2NC2HCFeH2CH2SH2N
_chemical_formula_sum              "H768 C480 S192 Fe96 N48"
_cell_length_a       51.2677
_cell_length_b       50.6225
_cell_length_c       33.8338
_cell_angle_alpha    89.7111
_cell_angle_beta     89.8318
_cell_angle_gamma    87.6035

_space_group_name_H-M_alt    "P 1"
_space_group_IT_number       1

loop_
  _space_group_symop_operation_xyz
  'x, y, z'

loop_
  _atom_site_type_symbol
  _atom_site_label
  _atom_site_symmetry_multiplicity
  _atom_site_fract_x
  _atom_site_fract_y
  _atom_site_fract_z
  _atom_site_occupancy
  H   H1        1.0  0.26208  0.23540  0.23228  1.0000
  C   C1        1.0  0.24327  0.25324  0.07094  1.0000
  H   H2        1.0  0.26587  0.39115  0.26984  1.0000
  S   S1        1.0  0.07649  0.32489  0.11504  1.0000
  H   H3        1.0  0.25614  0.42373  0.25308  1.0000
  H   H4        1.0  0.23365  0.18940  0.15896  1.0000
  C   C2        1.0  0.24574  0.20528  0.14677  1.0000
  H   H5        1.0  0.24086  0.36331  0.19818  1.0000
  H   H6        1.0  0.25894  0.40849  0.14640  1.0000
  Fe  Fe1       1.0  0.17356  0.30849  0.08841  1.0000
  N   N1        1.0  0.26396  0.21507  0.17662  1.0000
  N   N2        1.0  0.26557  0.39609  0.20663  1.0000
  C   C3        1.0  0.25498  0.40232  0.24631  1.0000
  C   C4        1.0  0.24890  0.22763  0.20933  1.0000
  Fe  Fe2       1.0  0.26525  0.43346  0.34457  1.0000
  H   H7        1.0  0.23622  0.24457  0.19844  1.0000
  S   S2        1.0  0.20412  0.27913  0.11178  1.0000
  C   C5        1.0  0.21631  0.25576  0.07771  1.0000
  H   H8        1.0  0.25610  0.26712  0.08412  1.0000
  H   H9        1.0  0.13382  0.33969  0.21692  1.0000
  H   H10       1.0  0.21388  0.39519  0.49795  1.0000
  C   C6        1.0  0.25373  0.23264  0.04743  1.0000
  C   C7        1.0  0.19020  0.46928  0.50984  1.0000
  C   C8        1.0  0.04865  0.32489  0.04489  1.0000
  H   H11       1.0  0.10739  0.32774  0.24584  1.0000
  S   S3        1.0  0.12753  0.36862  0.05868  1.0000
  H   H12       1.0  0.26991  0.36240  0.16833  1.0000
  H   H13       1.0  0.23419  0.39733  0.24883  1.0000
  C   C9        1.0  0.28083  0.23474  0.15830  1.0000
  Fe  Fe3       1.0  0.16133  0.36695  0.10133  1.0000
  S   S4        1.0  0.17317  0.40149  0.13864  1.0000
  S   S5        1.0  0.14849  0.33068  0.13206  1.0000
  Fe  Fe4       1.0  0.24936  0.41395  0.42572  1.0000
  S   S6        1.0  0.26347  0.45274  0.40396  1.0000
  S   S7        1.0  0.26920  0.39853  0.48116  1.0000
  Fe  Fe5       1.0  0.21355  0.40813  0.35459  1.0000
  S   S8        1.0  0.22451  0.44663  0.32771  1.0000
  S   S9        1.0  0.18787  0.38034  0.32221  1.0000
  H   H14       1.0  0.27195  0.35481  0.22027  1.0000
  Fe  Fe6       1.0  0.22155  0.46216  0.38954  1.0000
  S   S10       1.0  0.20157  0.50114  0.40549  1.0000
  S   S11       1.0  0.25474  0.39376  0.36719  1.0000
  S   S12       1.0  0.20694  0.42461  0.41578  1.0000
  H   H15       1.0  0.23200  0.22136  0.13628  1.0000
  S   S13       1.0  0.18854  0.34488  0.05991  1.0000
  H   H16       1.0  0.09946  0.36796  0.15372  1.0000
  H   H17       1.0  0.19451  0.44770  0.51350  1.0000
  H   H18       1.0  0.17894  0.23966  0.06573  1.0000
  S   S14       1.0  0.14035  0.30425  0.04614  1.0000
  H   H19       1.0  0.25302  0.50728  0.37126  1.0000
  H   H20       1.0  0.12751  0.38055  0.17709  1.0000
  C   C10       1.0  0.17818  0.39539  0.18947  1.0000
  C   C11       1.0  0.17823  0.41672  0.21574  1.0000
  C   C12       1.0  0.18143  0.41231  0.25652  1.0000
  C   C13       1.0  0.18451  0.38649  0.27125  1.0000
  C   C14       1.0  0.18468  0.36518  0.24497  1.0000
  C   C15       1.0  0.18191  0.36964  0.20417  1.0000
  H   H21       1.0  0.17546  0.43671  0.20457  1.0000
  H   H22       1.0  0.18097  0.42885  0.27663  1.0000
  H   H23       1.0  0.18736  0.34518  0.25617  1.0000
  H   H24       1.0  0.18304  0.35312  0.18415  1.0000
  C   C16       1.0  0.26194  0.36789  0.19795  1.0000
  C   C17       1.0  0.04830  0.32119  0.08587  1.0000
  H   H25       1.0  0.26828  0.17703  0.20507  1.0000
  C   C18       1.0  0.19974  0.23803  0.06010  1.0000
  N   N3        1.0  0.09926  0.36526  0.21725  1.0000
  C   C19       1.0  0.10813  0.38074  0.25127  1.0000
  C   C20       1.0  0.11219  0.33861  0.21828  1.0000
  C   C21       1.0  0.10607  0.37886  0.18009  1.0000
  C   C22       1.0  0.07067  0.36275  0.21928  1.0000
  H   H26       1.0  0.09868  0.40093  0.25170  1.0000
  H   H27       1.0  0.12961  0.38315  0.25019  1.0000
  H   H28       1.0  0.10373  0.37091  0.27989  1.0000
  H   H29       1.0  0.10603  0.32641  0.19286  1.0000
  C   C23       1.0  0.24431  0.52664  0.37745  1.0000
  H   H30       1.0  0.24123  0.45609  0.50668  1.0000
  C   C24       1.0  0.21929  0.52912  0.39395  1.0000
  H   H31       1.0  0.09714  0.39924  0.17858  1.0000
  H   H32       1.0  0.06358  0.35101  0.19392  1.0000
  H   H33       1.0  0.06022  0.38245  0.21837  1.0000
  H   H34       1.0  0.06479  0.35254  0.24692  1.0000
  Fe  Fe7       1.0  0.11636  0.33048  0.08718  1.0000
  H   H35       1.0  0.23030  0.40923  0.17686  1.0000
  C   C25       1.0  0.23605  0.47759  0.50370  1.0000
  H   H36       1.0  0.25632  0.19714  0.12041  1.0000
  H   H37       1.0  0.23602  0.21336  0.22400  1.0000
  C   C26       1.0  0.25160  0.41273  0.17679  1.0000
  H   H38       1.0  0.26919  0.25240  0.14776  1.0000
  H   H39       1.0  0.25387  0.43415  0.18254  1.0000
  H   H40       1.0  0.18696  0.47308  0.47772  1.0000
  H   H41       1.0  0.23412  0.48201  0.47155  1.0000
  C   C27       1.0  0.28035  0.19269  0.19217  1.0000
  H   H42       1.0  0.20227  0.51822  0.48750  1.0000
  H   H43       1.0  0.17150  0.47413  0.52547  1.0000
  H   H44       1.0  0.27460  0.23062  0.04277  1.0000
  C   C28       1.0  0.21017  0.21777  0.03582  1.0000
  C   C29       1.0  0.20517  0.51336  0.51939  1.0000
  H   H45       1.0  0.25283  0.48856  0.51495  1.0000
  N   N4        1.0  0.21167  0.48488  0.52522  1.0000
  C   C30       1.0  0.25098  0.40167  0.52508  1.0000
  C   C31       1.0  0.22392  0.39926  0.52519  1.0000
  H   H46       1.0  0.22099  0.52573  0.53053  1.0000
  H   H47       1.0  0.18685  0.51952  0.53520  1.0000
  C   C32       1.0  0.19963  0.28179  0.98409  1.0000
  C   C33       1.0  0.22458  0.30190  0.93239  1.0000
  H   H48       1.0  0.26681  0.35130  0.58726  1.0000
  C   C34       1.0  0.18810  0.27543  0.91582  1.0000
  H   H49       1.0  0.23254  0.30023  0.90184  1.0000
  C   C35       1.0  0.23277  0.49543  0.82152  1.0000
  H   H50       1.0  0.21177  0.32025  0.93341  1.0000
  H   H51       1.0  0.19515  0.27302  0.88487  1.0000
  H   H52       1.0  0.21714  0.23642  0.95074  1.0000
  N   N5        1.0  0.20999  0.27840  0.94359  1.0000
  H   H53       1.0  0.24728  0.50123  0.84390  1.0000
  H   H54       1.0  0.18516  0.48482  0.79475  1.0000
  H   H55       1.0  0.24419  0.25592  0.96315  1.0000
  Fe  Fe8       1.0  0.26233  0.38891  0.75772  1.0000
  S   S15       1.0  0.21891  0.38759  0.75033  1.0000
  H   H56       1.0  0.24268  0.49539  0.79233  1.0000
  Fe  Fe9       1.0  0.26201  0.44848  0.74385  1.0000
  S   S16       1.0  0.21866  0.45113  0.73580  1.0000
  C   C36       1.0  0.27329  0.33265  0.60262  1.0000
  Fe  Fe10      1.0  0.21740  0.42385  0.78824  1.0000
  S   S17       1.0  0.19135  0.43464  0.84037  1.0000
  Fe  Fe11      1.0  0.22509  0.41480  0.69874  1.0000
  S   S18       1.0  0.20438  0.40969  0.64039  1.0000
  S   S19       1.0  0.26054  0.42350  0.79893  1.0000
  S   S20       1.0  0.26869  0.41365  0.70364  1.0000
  H   H57       1.0  0.17658  0.25795  0.92352  1.0000
  H   H58       1.0  0.18706  0.30006  0.98677  1.0000
  S   S21       1.0  0.15871  0.34120  0.95359  1.0000
  S   S22       1.0  0.25003  0.18902  0.00043  1.0000
  H   H59       1.0  0.18994  0.49142  0.86658  1.0000
  H   H60       1.0  0.18747  0.26506  0.99286  1.0000
  C   C37       1.0  0.22271  0.40642  0.59641  1.0000
  C   C38       1.0  0.19615  0.51190  0.86035  1.0000
  S   S23       1.0  0.28172  0.34886  0.76877  1.0000
  N   N6        1.0  0.20932  0.51343  0.82154  1.0000
  H   H61       1.0  0.23567  0.33257  0.65809  1.0000
  C   C39       1.0  0.18380  0.40860  0.87284  1.0000
  C   C40       1.0  0.17442  0.41431  0.91106  1.0000
  C   C41       1.0  0.16744  0.39380  0.93683  1.0000
  C   C42       1.0  0.16921  0.36755  0.92402  1.0000
  C   C43       1.0  0.17869  0.36190  0.88590  1.0000
  C   C44       1.0  0.18629  0.38229  0.86060  1.0000
  H   H62       1.0  0.17239  0.43463  0.92069  1.0000
  H   H63       1.0  0.15999  0.39834  0.96607  1.0000
  H   H64       1.0  0.17987  0.34170  0.87562  1.0000
  H   H65       1.0  0.19333  0.37771  0.83117  1.0000
  H   H66       1.0  0.23110  0.49095  0.58066  1.0000
  C   C45       1.0  0.26835  0.51441  0.72565  1.0000
  H   H67       1.0  0.24114  0.30482  0.95288  1.0000
  H   H68       1.0  0.17837  0.52527  0.86153  1.0000
  C   C46       1.0  0.24478  0.51312  0.70527  1.0000
  C   C47       1.0  0.25142  0.34669  0.66273  1.0000
  H   H69       1.0  0.23790  0.49426  0.69625  1.0000
  H   H70       1.0  0.17435  0.29307  0.91639  1.0000
  H   H71       1.0  0.21165  0.53512  0.68092  1.0000
  H   H72       1.0  0.25307  0.34983  0.69516  1.0000
  H   H73       1.0  0.27567  0.04499  0.01932  1.0000
  C   C48       1.0  0.24971  0.40940  0.59600  1.0000
  H   H74       1.0  0.20052  0.50659  0.76047  1.0000
  H   H75       1.0  0.19734  0.20394  0.02240  1.0000
  C   C49       1.0  0.22757  0.25449  0.94224  1.0000
  H   H76       1.0  0.06669  0.32942  0.03011  1.0000
  C   C50       1.0  0.19124  0.50550  0.79020  1.0000
  N   N7        1.0  0.27651  0.33686  0.64551  1.0000
  H   H77       1.0  0.22775  0.47468  0.82801  1.0000
  C   C51       1.0  0.20986  0.40140  0.56085  1.0000
  C   C52       1.0  0.21525  0.47931  0.56786  1.0000
  C   C53       1.0  0.26385  0.40664  0.56057  1.0000
  H   H78       1.0  0.18896  0.39916  0.56091  1.0000
  H   H79       1.0  0.19709  0.48402  0.58501  1.0000
  H   H80       1.0  0.17324  0.51855  0.78954  1.0000
  H   H81       1.0  0.25970  0.41415  0.62281  1.0000
  H   H82       1.0  0.20931  0.51747  0.88475  1.0000
  H   H83       1.0  0.23584  0.25119  0.91215  1.0000
  H   H84       1.0  0.21560  0.28334  0.00602  1.0000
  H   H85       1.0  0.27031  0.29615  0.66002  1.0000
  C   C54       1.0  0.23719  0.21483  0.02995  1.0000
  H   H86       1.0  0.24474  0.36591  0.64943  1.0000
  H   H87       1.0  0.22055  0.45810  0.57322  1.0000
  H   H88       1.0  0.25836  0.31783  0.59665  1.0000
  Fe  Fe12      1.0  0.15373  0.34265  0.02012  1.0000
  C   C55       1.0  0.23012  0.53633  0.69606  1.0000
  C   C56       1.0  0.27776  0.53922  0.73525  1.0000
  C   C57       1.0  0.21714  0.54079  0.81398  1.0000
  H   H89       1.0  0.21057  0.62106  0.26766  1.0000
  H   H90       1.0  0.18224  0.59052  0.33365  1.0000
  H   H91       1.0  0.10339  0.74397  0.10773  1.0000
  H   H92       1.0  0.15636  0.58004  0.30260  1.0000
  Fe  Fe13      1.0  0.17087  0.75038  0.06499  1.0000
  S   S24       1.0  0.19342  0.74745  0.12244  1.0000
  H   H93       1.0  0.22988  0.64460  0.47713  1.0000
  Fe  Fe14      1.0  0.19903  0.66989  0.30793  1.0000
  S   S25       1.0  0.24208  0.66386  0.29829  1.0000
  S   S26       1.0  0.17230  0.66322  0.25641  1.0000
  Fe  Fe15      1.0  0.20588  0.68168  0.39559  1.0000
  S   S27       1.0  0.24948  0.67689  0.39241  1.0000
  S   S28       1.0  0.18503  0.68726  0.45367  1.0000
  Fe  Fe16      1.0  0.24513  0.69997  0.33572  1.0000
  H   H94       1.0  0.26698  0.71087  0.51591  1.0000
  Fe  Fe17      1.0  0.24183  0.64137  0.35562  1.0000
  S   S29       1.0  0.26458  0.60262  0.36388  1.0000
  S   S30       1.0  0.20181  0.70764  0.34176  1.0000
  S   S31       1.0  0.19846  0.64453  0.36236  1.0000
  C   C58       1.0  0.24690  0.57457  0.37580  1.0000
  H   H95       1.0  0.27449  0.66112  0.48076  1.0000
  C   C59       1.0  0.22188  0.57699  0.39235  1.0000
  C   C60       1.0  0.04752  0.76170  0.03790  1.0000
  H   H96       1.0  0.21310  0.59623  0.39858  1.0000
  C   C61       1.0  0.12527  0.75295  0.20109  1.0000
  H   H97       1.0  0.10382  0.79198  0.12473  1.0000
  H   H98       1.0  0.07551  0.77248  0.19924  1.0000
  C   C62       1.0  0.25815  0.54933  0.36871  1.0000
  H   H99       1.0  0.26016  0.81041  0.05843  1.0000
  H   H100      1.0  0.11367  0.71979  0.14394  1.0000
  C   C63       1.0  0.20578  0.69183  0.49409  1.0000
  C   C64       1.0  0.23043  0.70216  0.48865  1.0000
  H   H101      1.0  0.12065  0.76673  0.22588  1.0000
  H   H102      1.0  0.23606  0.70940  0.45990  1.0000
  C   C65       1.0  0.18794  0.72275  0.15794  1.0000
  C   C66       1.0  0.17132  0.70203  0.15098  1.0000
  C   C67       1.0  0.16636  0.68374  0.18131  1.0000
  C   C68       1.0  0.17842  0.68588  0.21827  1.0000
  C   C69       1.0  0.19540  0.70627  0.22479  1.0000
  C   C70       1.0  0.20001  0.72468  0.19483  1.0000
  H   H103      1.0  0.16239  0.70003  0.12228  1.0000
  H   H104      1.0  0.15339  0.66783  0.17601  1.0000
  H   H105      1.0  0.20490  0.70803  0.25307  1.0000
  H   H106      1.0  0.21283  0.74058  0.20048  1.0000
  C   C71       1.0  0.25522  0.78646  0.17296  1.0000
  H   H107      1.0  0.06900  0.76341  0.14900  1.0000
  C   C72       1.0  0.24936  0.82516  0.04111  1.0000
  H   H108      1.0  0.10983  0.80167  0.17483  1.0000
  C   C73       1.0  0.18148  0.58544  0.23357  1.0000
  S   S32       1.0  0.14803  0.78863  0.05709  1.0000
  N   N8        1.0  0.19340  0.58325  0.27325  1.0000
  C   C74       1.0  0.21619  0.60013  0.27483  1.0000
  H   H109      1.0  0.07639  0.73818  0.18529  1.0000
  H   H110      1.0  0.18881  0.55635  0.41435  1.0000
  H   H111      1.0  0.26601  0.74066  0.21273  1.0000
  S   S33       1.0  0.26850  0.73364  0.31335  1.0000
  H   H112      1.0  0.12204  0.73247  0.21172  1.0000
  H   H113      1.0  0.13611  0.78823  0.14482  1.0000
  C   C75       1.0  0.08132  0.75838  0.17537  1.0000
  N   N9        1.0  0.10938  0.75963  0.16574  1.0000
  H   H114      1.0  0.17477  0.60626  0.22694  1.0000
  C   C76       1.0  0.17400  0.59210  0.30331  1.0000
  H   H115      1.0  0.23963  0.77195  0.16967  1.0000
  H   H116      1.0  0.22494  0.60982  0.47882  1.0000
  H   H117      1.0  0.16422  0.57295  0.23111  1.0000
  C   C77       1.0  0.23889  0.62493  0.46956  1.0000
  H   H118      1.0  0.14652  0.75399  0.19453  1.0000
  C   C78       1.0  0.25079  0.78699  0.24414  1.0000
  S   S34       1.0  0.07657  0.77649  0.05266  1.0000
  H   H119      1.0  0.24065  0.62425  0.43683  1.0000
  C   C79       1.0  0.20816  0.55433  0.40151  1.0000
  C   C80       1.0  0.11601  0.74056  0.13408  1.0000
  H   H120      1.0  0.23166  0.59359  0.25347  1.0000
  H   H121      1.0  0.19566  0.57927  0.21006  1.0000
  H   H122      1.0  0.13654  0.74238  0.12419  1.0000
  H   H123      1.0  0.22515  0.59982  0.30470  1.0000
  C   C81       1.0  0.11500  0.78659  0.15203  1.0000
  H   H124      1.0  0.16742  0.61314  0.29847  1.0000
  C   C82       1.0  0.28117  0.75582  0.21314  1.0000
  C   C83       1.0  0.20196  0.55549  0.28131  1.0000
  H   H125      1.0  0.23537  0.77214  0.24396  1.0000
  H   H126      1.0  0.24575  0.80659  0.17036  1.0000
  S   S35       1.0  0.13890  0.72604  0.04114  1.0000
  H   H127      1.0  0.27752  0.54729  0.35596  1.0000
  C   C84       1.0  0.24779  0.70326  0.52051  1.0000
  H   H128      1.0  0.21129  0.55339  0.31091  1.0000
  N   N10       1.0  0.26928  0.78291  0.21089  1.0000
  N   N11       1.0  0.26461  0.62058  0.48867  1.0000
  H   H129      1.0  0.26088  0.78486  0.27318  1.0000
  H   H130      1.0  0.26862  0.78376  0.14721  1.0000
  H   H131      1.0  0.24101  0.80701  0.24313  1.0000
  H   H132      1.0  0.26233  0.57827  0.48792  1.0000
  H   H133      1.0  0.21655  0.54810  0.25913  1.0000
  C   C85       1.0  0.27554  0.59400  0.47842  1.0000
  H   H134      1.0  0.27841  0.59198  0.44590  1.0000
  H   H135      1.0  0.18524  0.54216  0.28089  1.0000
  H   H136      1.0  0.28170  0.82301  0.21198  1.0000
  C   C86       1.0  0.28247  0.64079  0.47447  1.0000
  C   C87       1.0  0.19832  0.68333  0.53177  1.0000
  C   C88       1.0  0.26153  0.62265  0.53203  1.0000
  H   H137      1.0  0.24733  0.88498  0.88033  1.0000
  Fe  Fe18      1.0  0.15785  0.73275  0.98179  1.0000
  S   S36       1.0  0.16652  0.69772  0.94198  1.0000
  S   S37       1.0  0.13375  0.76987  0.96768  1.0000
  Fe  Fe19      1.0  0.23547  0.62978  0.70425  1.0000
  S   S38       1.0  0.21269  0.66377  0.67564  1.0000
  S   S39       1.0  0.21915  0.58939  0.69674  1.0000
  C   C89       1.0  0.25875  0.83558  0.90654  1.0000
  S   S40       1.0  0.25803  0.70115  0.70810  1.0000
  Fe  Fe20      1.0  0.22084  0.68554  0.73173  1.0000
  S   S41       1.0  0.19460  0.71643  0.76156  1.0000
  Fe  Fe21      1.0  0.25193  0.67619  0.65489  1.0000
  H   H138      1.0  0.27036  0.58163  0.73355  1.0000
  S   S42       1.0  0.24037  0.65064  0.76222  1.0000
  H   H139      1.0  0.24896  0.83651  0.93594  1.0000
  N   N12       1.0  0.27705  0.85717  0.90146  1.0000
  C   C90       1.0  0.24065  0.69391  0.55788  1.0000
  H   H140      1.0  0.06598  0.73401  0.99750  1.0000
  H   H141      1.0  0.21008  0.67700  0.59228  1.0000
  C   C91       1.0  0.23917  0.56108  0.70641  1.0000
  C   C92       1.0  0.26322  0.56257  0.72556  1.0000
  H   H142      1.0  0.26482  0.66719  0.88402  1.0000
  C   C93       1.0  0.04770  0.74124  0.01033  1.0000
  H   H143      1.0  0.21756  0.79986  0.02994  1.0000
  H   H144      1.0  0.22669  0.71541  0.87987  1.0000
  H   H145      1.0  0.28076  0.80816  0.62629  1.0000
  C   C94       1.0  0.26086  0.76130  0.64447  1.0000
  C   C95       1.0  0.17330  0.70326  0.89162  1.0000
  C   C96       1.0  0.18142  0.68177  0.86791  1.0000
  C   C97       1.0  0.18773  0.68559  0.82789  1.0000
  C   C98       1.0  0.18578  0.71093  0.81125  1.0000
  C   C99       1.0  0.17746  0.73241  0.83486  1.0000
  C   C100      1.0  0.17138  0.72864  0.87503  1.0000
  H   H146      1.0  0.18277  0.66209  0.88056  1.0000
  H   H147      1.0  0.19367  0.66887  0.80978  1.0000
  H   H148      1.0  0.17584  0.75205  0.82211  1.0000
  H   H149      1.0  0.16510  0.74531  0.89308  1.0000
  H   H150      1.0  0.23072  0.54755  0.83706  1.0000
  Fe  Fe22      1.0  0.27710  0.66491  0.73461  1.0000
  H   H151      1.0  0.25010  0.73953  0.89094  1.0000
  H   H152      1.0  0.24060  0.67362  0.84668  1.0000
  C   C101      1.0  0.25996  0.71863  0.81910  1.0000
  H   H153      1.0  0.24613  0.77555  0.63145  1.0000
  C   C102      1.0  0.24560  0.86899  0.01234  1.0000
  C   C103      1.0  0.26254  0.88298  0.90368  1.0000
  C   C104      1.0  0.21577  0.68424  0.56360  1.0000
  Fe  Fe23      1.0  0.16653  0.79045  0.99742  1.0000
  C   C105      1.0  0.21149  0.83763  0.00130  1.0000
  H   H154      1.0  0.25334  0.88834  0.00780  1.0000
  C   C106      1.0  0.22524  0.81909  0.02482  1.0000
  H   H155      1.0  0.25249  0.88554  0.93266  1.0000
  S   S43       1.0  0.26402  0.69263  0.59578  1.0000
  H   H156      1.0  0.17925  0.67537  0.53614  1.0000
  H   H157      1.0  0.27584  0.85622  0.83787  1.0000
  H   H158      1.0  0.26903  0.81584  0.90451  1.0000
  H   H159      1.0  0.19994  0.55495  0.81310  1.0000
  H   H160      1.0  0.26228  0.74034  0.82007  1.0000
  H   H161      1.0  0.21066  0.87735  0.97801  1.0000
  N   N13       1.0  0.26530  0.70601  0.85789  1.0000
  H   H162      1.0  0.23974  0.71531  0.80917  1.0000
  H   H163      1.0  0.25050  0.70860  0.91750  1.0000
  S   S44       1.0  0.18282  0.82906  0.97674  1.0000
  H   H164      1.0  0.25470  0.74109  0.63698  1.0000
  H   H165      1.0  0.27332  0.71045  0.79584  1.0000
  C   C107      1.0  0.22149  0.86279  0.99564  1.0000
  C   C108      1.0  0.24747  0.71794  0.88792  1.0000
  S   S45       1.0  0.19170  0.75372  0.00687  1.0000
  H   H166      1.0  0.24309  0.83657  0.88379  1.0000
  Fe  Fe24      1.0  0.11714  0.76480  0.02895  1.0000
  S   S46       1.0  0.27427  0.64079  0.67947  1.0000
  H   H167      1.0  0.25976  0.76316  0.67721  1.0000
  H   H168      1.0  0.24805  0.60784  0.54382  1.0000
  H   H169      1.0  0.28279  0.74244  0.57744  1.0000
  H   H170      1.0  0.25334  0.64248  0.54066  1.0000
  H   H171      1.0  0.27383  0.77679  0.57133  1.0000
  H   H172      1.0  0.28055  0.61973  0.54757  1.0000
  H   H173      1.0  0.27415  0.66772  0.83280  1.0000
  C   C109      1.0  0.26105  0.67737  0.85527  1.0000
  H   H174      1.0  0.27583  0.89970  0.90017  1.0000
  H   H175      1.0  0.22736  0.54238  0.78504  1.0000
  C   C110      1.0  0.25981  0.84992  0.03441  1.0000
  S   S47       1.0  0.38927  0.35386  0.28504  1.0000
  Fe  Fe25      1.0  0.33772  0.19848  0.05971  1.0000
  C   C111      1.0  0.34985  0.22848  0.23077  1.0000
  S   S48       1.0  0.30558  0.17168  0.07594  1.0000
  C   C112      1.0  0.33072  0.06984  0.05810  1.0000
  H   H176      1.0  0.30498  0.38858  0.22680  1.0000
  S   S49       1.0  0.34898  0.22677  0.28259  1.0000
  C   C113      1.0  0.35020  0.23072  0.14769  1.0000
  C   C114      1.0  0.34632  0.20559  0.20854  1.0000
  C   C115      1.0  0.36293  0.37687  0.28919  1.0000
  S   S50       1.0  0.34972  0.23318  0.09594  1.0000
  C   C116      1.0  0.35377  0.25243  0.21140  1.0000
  H   H177      1.0  0.47021  0.30473  0.34018  1.0000
  S   S51       1.0  0.34341  0.09937  0.07599  1.0000
  C   C117      1.0  0.34644  0.20669  0.16701  1.0000
  C   C118      1.0  0.35402  0.25351  0.16995  1.0000
  C   C119      1.0  0.30583  0.06948  0.04141  1.0000
  H   H178      1.0  0.34353  0.18697  0.22350  1.0000
  H   H179      1.0  0.34374  0.18899  0.14995  1.0000
  H   H180      1.0  0.49256  0.25694  0.40732  1.0000
  H   H181      1.0  0.52488  0.22618  0.43799  1.0000
  H   H182      1.0  0.35633  0.27021  0.22833  1.0000
  H   H183      1.0  0.38441  0.40776  0.26193  1.0000
  C   C120      1.0  0.29371  0.40146  0.20559  1.0000
  S   S52       1.0  0.36644  0.29321  0.45569  1.0000
  H   H184      1.0  0.49035  0.29101  0.42141  1.0000
  C   C121      1.0  0.32243  0.41553  0.29747  1.0000
  N   N14       1.0  0.52018  0.26752  0.45158  1.0000
  H   H185      1.0  0.33261  0.40130  0.38688  1.0000
  C   C122      1.0  0.31890  0.38958  0.31043  1.0000
  H   H186      1.0  0.31862  0.35470  0.38308  1.0000
  H   H187      1.0  0.30063  0.38435  0.32346  1.0000
  C   C123      1.0  0.33914  0.37019  0.30613  1.0000
  H   H188      1.0  0.34965  0.34708  0.48148  1.0000
  C   C124      1.0  0.33425  0.39839  0.41939  1.0000
  C   C125      1.0  0.48909  0.29540  0.33379  1.0000
  H   H189      1.0  0.34894  0.41218  0.43021  1.0000
  H   H190      1.0  0.50988  0.33126  0.34124  1.0000
  H   H191      1.0  0.36573  0.36478  0.37772  1.0000
  C   C126      1.0  0.34589  0.42184  0.27936  1.0000
  H   H192      1.0  0.33641  0.35013  0.31577  1.0000
  H   H193      1.0  0.31506  0.40459  0.43260  1.0000
  C   C127      1.0  0.36688  0.36312  0.41048  1.0000
  H   H194      1.0  0.37310  0.34233  0.41757  1.0000
  N   N15       1.0  0.34166  0.37064  0.42953  1.0000
  H   H195      1.0  0.38271  0.37591  0.42036  1.0000
  C   C128      1.0  0.32128  0.35312  0.41556  1.0000
  S   S53       1.0  0.35320  0.29599  0.34270  1.0000
  H   H196      1.0  0.32641  0.33200  0.42260  1.0000
  H   H197      1.0  0.34865  0.44177  0.26889  1.0000
  Fe  Fe26      1.0  0.38816  0.31500  0.31691  1.0000
  H   H198      1.0  0.35951  0.38062  0.48464  1.0000
  H   H199      1.0  0.47458  0.22603  0.25287  1.0000
  S   S54       1.0  0.29772  0.44039  0.30180  1.0000
  C   C129      1.0  0.40927  0.26460  0.48480  1.0000
  S   S55       1.0  0.41424  0.30724  0.36927  1.0000
  C   C130      1.0  0.49419  0.27055  0.43285  1.0000
  H   H200      1.0  0.41144  0.19262  0.26187  1.0000
  H   H201      1.0  0.41764  0.22472  0.28019  1.0000
  H   H202      1.0  0.45955  0.19505  0.17933  1.0000
  C   C131      1.0  0.38645  0.27959  0.49357  1.0000
  H   H203      1.0  0.40231  0.21171  0.19552  1.0000
  Fe  Fe27      1.0  0.42528  0.26910  0.33893  1.0000
  S   S56       1.0  0.46449  0.24808  0.33193  1.0000
  S   S57       1.0  0.39360  0.24650  0.36756  1.0000
  H   H204      1.0  0.43583  0.17525  0.20330  1.0000
  H   H205      1.0  0.45044  0.25225  0.24713  1.0000
  C   C132      1.0  0.49136  0.26821  0.32661  1.0000
  H   H206      1.0  0.40862  0.24402  0.21363  1.0000
  C   C133      1.0  0.45057  0.19040  0.20841  1.0000
  H   H207      1.0  0.41483  0.26117  0.45433  1.0000
  H   H208      1.0  0.44194  0.19883  0.28612  1.0000
  H   H209      1.0  0.46796  0.23986  0.20468  1.0000
  H   H210      1.0  0.51769  0.23540  0.31191  1.0000
  C   C134      1.0  0.41800  0.22584  0.20064  1.0000
  S   S58       1.0  0.40246  0.27891  0.28425  1.0000
  H   H211      1.0  0.47821  0.26606  0.45388  1.0000
  C   C135      1.0  0.45877  0.23394  0.23302  1.0000
  N   N16       1.0  0.43856  0.21436  0.22687  1.0000
  C   C136      1.0  0.42692  0.20721  0.26533  1.0000
  C   C137      1.0  0.51584  0.25638  0.31784  1.0000
  H   H212      1.0  0.42596  0.23139  0.17125  1.0000
  Fe  Fe28      1.0  0.38031  0.28553  0.39324  1.0000
  Fe  Fe29      1.0  0.33101  0.13905  0.04895  1.0000
  Fe  Fe30      1.0  0.36986  0.25879  0.31444  1.0000
  H   H213      1.0  0.46619  0.18127  0.22751  1.0000
  H   H214      1.0  0.32548  0.37348  0.48810  1.0000
  C   C138      1.0  0.36610  0.40260  0.27536  1.0000
  H   H215      1.0  0.35692  0.27214  0.15507  1.0000
  C   C139      1.0  0.42469  0.25364  0.51556  1.0000
  C   C140      1.0  0.34420  0.36788  0.47289  1.0000
  C   C141      1.0  0.51153  0.31042  0.33425  1.0000
  H   H216      1.0  0.44207  0.24172  0.50862  1.0000
  C   C142      1.0  0.52500  0.23969  0.46390  1.0000
  H   H217      1.0  0.36500  0.04627  0.07444  1.0000
  H   H218      1.0  0.29719  0.42231  0.21389  1.0000
  H   H219      1.0  0.50598  0.28013  0.50855  1.0000
  H   H220      1.0  0.30205  0.35819  0.42966  1.0000
  H   H221      1.0  0.50983  0.23323  0.48499  1.0000
  H   H222      1.0  0.29183  0.22637  0.13244  1.0000
  C   C143      1.0  0.52118  0.28493  0.48641  1.0000
  H   H223      1.0  0.29358  0.19926  0.21590  1.0000
  H   H224      1.0  0.51788  0.30607  0.47777  1.0000
  S   S59       1.0  0.36446  0.16550  0.03850  1.0000
  H   H225      1.0  0.30226  0.39794  0.17573  1.0000
  H   H226      1.0  0.29551  0.24175  0.17965  1.0000
  C   C144      1.0  0.34559  0.04604  0.06204  1.0000
  H   H227      1.0  0.29273  0.18345  0.16846  1.0000
  H   H228      1.0  0.29420  0.08770  0.03826  1.0000
  C   C145      1.0  0.37935  0.28385  0.53317  1.0000
  H   H229      1.0  0.32867  0.18806  0.88921  1.0000
  H   H230      1.0  0.52273  0.21210  0.58469  1.0000
  H   H231      1.0  0.35987  0.32309  0.83540  1.0000
  C   C146      1.0  0.37388  0.30645  0.84318  1.0000
  S   S60       1.0  0.31482  0.14449  0.98774  1.0000
  H   H232      1.0  0.32141  0.20673  0.82171  1.0000
  S   S61       1.0  0.35688  0.22017  0.75941  1.0000
  H   H233      1.0  0.35143  0.09873  0.99425  1.0000
  N   N17       1.0  0.36043  0.28405  0.86122  1.0000
  C   C147      1.0  0.34105  0.20196  0.83183  1.0000
  S   S62       1.0  0.40218  0.33428  0.73182  1.0000
  H   H234      1.0  0.33691  0.27644  0.91238  1.0000
  H   H235      1.0  0.34331  0.05635  0.96143  1.0000
  H   H236      1.0  0.39522  0.26872  0.89036  1.0000
  Fe  Fe31      1.0  0.34681  0.17290  0.97870  1.0000
  C   C148      1.0  0.34512  0.19145  0.87002  1.0000
  C   C149      1.0  0.36231  0.20632  0.80668  1.0000
  H   H237      1.0  0.34988  0.26852  0.80471  1.0000
  H   H238      1.0  0.50820  0.20624  0.65440  1.0000
  H   H239      1.0  0.38880  0.31427  0.86333  1.0000
  C   C150      1.0  0.36122  0.05896  0.94322  1.0000
  H   H240      1.0  0.52978  0.31143  0.73763  1.0000
  H   H241      1.0  0.38410  0.30053  0.81535  1.0000
  H   H242      1.0  0.29885  0.36082  0.68391  1.0000
  H   H243      1.0  0.32545  0.09839  0.93304  1.0000
  H   H244      1.0  0.31495  0.30307  0.75840  1.0000
  C   C151      1.0  0.31526  0.34560  0.75898  1.0000
  C   C152      1.0  0.32674  0.32019  0.75517  1.0000
  H   H245      1.0  0.34138  0.09187  0.88654  1.0000
  C   C153      1.0  0.33045  0.36770  0.75406  1.0000
  C   C154      1.0  0.35336  0.31677  0.74659  1.0000
  H   H246      1.0  0.32164  0.38741  0.75692  1.0000
  H   H247      1.0  0.33083  0.25716  0.84532  1.0000
  H   H248      1.0  0.49952  0.23483  0.68327  1.0000
  H   H249      1.0  0.35838  0.04882  0.91453  1.0000
  C   C155      1.0  0.36872  0.33874  0.74193  1.0000
  H   H250      1.0  0.33278  0.30937  0.89240  1.0000
  C   C156      1.0  0.35726  0.36424  0.74576  1.0000
  H   H251      1.0  0.36911  0.38129  0.74220  1.0000
  C   C157      1.0  0.34076  0.27462  0.83336  1.0000
  N   N18       1.0  0.36631  0.08727  0.93742  1.0000
  H   H252      1.0  0.36205  0.29706  0.74401  1.0000
  H   H253      1.0  0.51633  0.28410  0.60736  1.0000
  H   H254      1.0  0.32549  0.29028  0.82683  1.0000
  H   H255      1.0  0.37017  0.24522  0.88453  1.0000
  H   H256      1.0  0.34699  0.12199  0.91239  1.0000
  C   C158      1.0  0.37962  0.26225  0.87024  1.0000
  H   H257      1.0  0.36175  0.29543  0.54012  1.0000
  Fe  Fe32      1.0  0.29237  0.17951  0.01351  1.0000
  H   H258      1.0  0.40764  0.08067  0.92905  1.0000
  H   H259      1.0  0.49462  0.23337  0.57440  1.0000
  C   C159      1.0  0.51060  0.27517  0.75020  1.0000
  H   H260      1.0  0.37765  0.04838  0.95890  1.0000
  S   S63       1.0  0.41589  0.26256  0.76947  1.0000
  C   C160      1.0  0.39165  0.18883  0.85748  1.0000
  Fe  Fe33      1.0  0.42441  0.25026  0.65660  1.0000
  S   S64       1.0  0.38691  0.26762  0.68178  1.0000
  S   S65       1.0  0.44988  0.27693  0.69068  1.0000
  Fe  Fe34      1.0  0.45042  0.24506  0.73688  1.0000
  S   S66       1.0  0.48711  0.22852  0.76589  1.0000
  H   H261      1.0  0.40412  0.20307  0.80048  1.0000
  S   S67       1.0  0.42710  0.21718  0.70141  1.0000
  Fe  Fe35      1.0  0.39219  0.23737  0.73046  1.0000
  C   C161      1.0  0.41744  0.25767  0.55520  1.0000
  C   C162      1.0  0.50498  0.27099  0.62678  1.0000
  H   H262      1.0  0.30401  0.30393  0.65357  1.0000
  H   H263      1.0  0.48431  0.27209  0.61654  1.0000
  H   H264      1.0  0.36167  0.29997  0.91992  1.0000
  C   C163      1.0  0.51399  0.24804  0.75748  1.0000
  H   H265      1.0  0.38925  0.25455  0.84292  1.0000
  S   S68       1.0  0.43708  0.24339  0.59305  1.0000
  C   C164      1.0  0.34405  0.10043  0.91641  1.0000
  H   H266      1.0  0.38913  0.27625  0.59432  1.0000
  S   S69       1.0  0.28547  0.48527  0.74127  1.0000
  H   H267      1.0  0.49128  0.28458  0.75103  1.0000
  C   C165      1.0  0.37046  0.18461  0.88273  1.0000
  S   S70       1.0  0.32290  0.20843  0.99878  1.0000
  H   H268      1.0  0.29193  0.32543  0.58864  1.0000
  Fe  Fe36      1.0  0.41269  0.29163  0.71957  1.0000
  C   C166      1.0  0.39037  0.09007  0.91388  1.0000
  S   S71       1.0  0.37650  0.16985  0.92923  1.0000
  H   H269      1.0  0.37397  0.12104  0.97333  1.0000
  C   C167      1.0  0.50017  0.22696  0.65274  1.0000
  H   H270      1.0  0.41129  0.18349  0.86710  1.0000
  H   H271      1.0  0.50527  0.27945  0.65714  1.0000
  C   C168      1.0  0.38763  0.19991  0.81974  1.0000
  C   C169      1.0  0.34735  0.29286  0.89814  1.0000
  N   N19       1.0  0.51587  0.24349  0.62641  1.0000
  C   C170      1.0  0.39482  0.27296  0.56392  1.0000
  H   H272      1.0  0.47958  0.22632  0.64256  1.0000
  C   C171      1.0  0.29661  0.35648  0.65195  1.0000
  H   H273      1.0  0.29610  0.54038  0.75078  1.0000
  H   H274      1.0  0.29148  0.37555  0.63683  1.0000
  C   C172      1.0  0.53238  0.29036  0.74280  1.0000
  H   H275      1.0  0.38875  0.08079  0.88429  1.0000
  H   H276      1.0  0.38556  0.08993  0.99375  1.0000
  C   C173      1.0  0.36952  0.09979  0.97634  1.0000
  H   H277      1.0  0.31609  0.34929  0.64084  1.0000
  H   H278      1.0  0.52700  0.24472  0.56519  1.0000
  H   H279      1.0  0.39446  0.11134  0.90902  1.0000
  C   C174      1.0  0.51505  0.23299  0.58577  1.0000
  H   H280      1.0  0.28666  0.31412  0.69738  1.0000
  H   H281      1.0  0.28476  0.40885  0.56056  1.0000
  C   C175      1.0  0.29536  0.04527  0.03074  1.0000
  C   C176      1.0  0.28474  0.31162  0.66486  1.0000
  H   H282      1.0  0.47339  0.86306  0.40128  1.0000
  H   H283      1.0  0.47030  0.87445  0.49004  1.0000
  C   C177      1.0  0.30608  0.72281  0.37002  1.0000
  C   C178      1.0  0.32897  0.72826  0.39066  1.0000
  C   C179      1.0  0.31079  0.76235  0.33062  1.0000
  H   H284      1.0  0.40518  0.77877  0.47572  1.0000
  H   H285      1.0  0.33608  0.71496  0.41370  1.0000
  H   H286      1.0  0.30381  0.77574  0.30769  1.0000
  H   H287      1.0  0.43669  0.79029  0.24646  1.0000
  C   C180      1.0  0.34279  0.75073  0.38114  1.0000
  H   H288      1.0  0.44225  0.77982  0.19639  1.0000
  C   C181      1.0  0.33365  0.76776  0.35112  1.0000
  H   H289      1.0  0.34411  0.78522  0.34372  1.0000
  S   S72       1.0  0.42717  0.80678  0.40151  1.0000
  S   S73       1.0  0.31603  0.92464  0.08158  1.0000
  S   S74       1.0  0.35339  0.85138  0.27367  1.0000
  H   H290      1.0  0.34319  0.88554  0.13909  1.0000
  H   H291      1.0  0.35841  0.97045  0.11026  1.0000
  H   H292      1.0  0.30432  0.79986  0.18884  1.0000
  H   H293      1.0  0.30103  0.80025  0.24170  1.0000
  C   C182      1.0  0.30993  0.02137  0.03571  1.0000
  S   S75       1.0  0.47430  0.80242  0.31111  1.0000
  N   N20       1.0  0.33820  0.98475  0.16213  1.0000
  C   C183      1.0  0.48432  0.88497  0.47098  1.0000
  H   H294      1.0  0.44696  0.81340  0.14326  1.0000
  Fe  Fe37      1.0  0.31312  0.89198  0.03748  1.0000
  Fe  Fe38      1.0  0.38175  0.83948  0.32234  1.0000
  H   H295      1.0  0.37921  0.97729  0.15090  1.0000
  H   H296      1.0  0.31831  0.95764  0.19990  1.0000
  H   H297      1.0  0.33301  0.94301  0.15664  1.0000
  H   H298      1.0  0.33023  0.85978  0.19787  1.0000
  H   H299      1.0  0.35990  0.99893  0.21137  1.0000
  C   C184      1.0  0.34771  0.87103  0.19883  1.0000
  H   H300      1.0  0.36437  0.00412  0.12267  1.0000
  C   C185      1.0  0.29694  0.73989  0.34000  1.0000
  S   S76       1.0  0.29128  0.85544  0.05235  1.0000
  C   C186      1.0  0.39227  0.78849  0.49834  1.0000
  H   H301      1.0  0.31542  0.01280  0.12702  1.0000
  C   C187      1.0  0.35468  0.85171  0.52502  1.0000
  C   C188      1.0  0.36104  0.98423  0.13535  1.0000
  Fe  Fe39      1.0  0.35921  0.91865  0.07302  1.0000
  C   C189      1.0  0.35501  0.88565  0.16552  1.0000
  H   H302      1.0  0.40246  0.84231  0.18501  1.0000
  C   C190      1.0  0.37751  0.90029  0.16648  1.0000
  H   H303      1.0  0.37493  0.79708  0.48230  1.0000
  C   C191      1.0  0.33539  0.02193  0.05026  1.0000
  H   H304      1.0  0.52856  0.85974  0.49587  1.0000
  C   C192      1.0  0.31437  0.99249  0.13958  1.0000
  H   H305      1.0  0.32515  0.00499  0.21474  1.0000
  H   H306      1.0  0.36284  0.85587  0.46282  1.0000
  H   H307      1.0  0.39852  0.81994  0.22567  1.0000
  C   C193      1.0  0.37074  0.85669  0.49230  1.0000
  H   H308      1.0  0.35313  0.95177  0.19696  1.0000
  H   H309      1.0  0.40363  0.80739  0.17653  1.0000
  S   S77       1.0  0.37151  0.75750  0.40663  1.0000
  C   C194      1.0  0.36300  0.87065  0.23315  1.0000
  H   H310      1.0  0.50259  0.83698  0.49472  1.0000
  H   H311      1.0  0.34413  0.02441  0.18162  1.0000
  S   S78       1.0  0.38653  0.91941  0.12541  1.0000
  H   H312      1.0  0.43850  0.86223  0.22423  1.0000
  H   H313      1.0  0.47497  0.85916  0.32050  1.0000
  H   H314      1.0  0.47302  0.82745  0.17058  1.0000
  Fe  Fe40      1.0  0.40742  0.84702  0.40244  1.0000
  S   S79       1.0  0.41720  0.86963  0.45721  1.0000
  C   C195      1.0  0.38556  0.88525  0.23418  1.0000
  Fe  Fe41      1.0  0.43592  0.81588  0.33825  1.0000
  C   C196      1.0  0.39666  0.86347  0.49788  1.0000
  S   S80       1.0  0.41931  0.85759  0.34027  1.0000
  H   H315      1.0  0.46795  0.79414  0.22422  1.0000
  C   C197      1.0  0.49998  0.82408  0.31572  1.0000
  C   C198      1.0  0.49484  0.85122  0.32020  1.0000
  C   C199      1.0  0.51555  0.86827  0.32377  1.0000
  C   C200      1.0  0.44445  0.84185  0.23396  1.0000
  H   H316      1.0  0.29486  0.58997  0.49262  1.0000
  H   H317      1.0  0.39726  0.88530  0.26074  1.0000
  C   C201      1.0  0.44656  0.79538  0.21822  1.0000
  H   H318      1.0  0.38314  0.73710  0.48849  1.0000
  H   H319      1.0  0.46580  0.84137  0.24023  1.0000
  C   C202      1.0  0.45145  0.82794  0.16658  1.0000
  H   H320      1.0  0.44540  0.84798  0.15520  1.0000
  C   C203      1.0  0.33547  0.95821  0.17976  1.0000
  C   C204      1.0  0.34201  0.00414  0.19391  1.0000
  H   H321      1.0  0.43444  0.83801  0.26247  1.0000
  C   C205      1.0  0.39276  0.90010  0.20090  1.0000
  C   C206      1.0  0.40942  0.82291  0.19753  1.0000
  Fe  Fe42      1.0  0.38881  0.79346  0.37984  1.0000
  H   H322      1.0  0.41010  0.91156  0.20187  1.0000
  S   S81       1.0  0.36815  0.83307  0.38493  1.0000
  H   H323      1.0  0.51153  0.88931  0.32692  1.0000
  H   H324      1.0  0.47238  0.89818  0.45103  1.0000
  H   H325      1.0  0.33460  0.84672  0.52045  1.0000
  S   S82       1.0  0.39933  0.79840  0.31608  1.0000
  N   N21       1.0  0.43796  0.82201  0.20405  1.0000
  C   C207      1.0  0.48490  0.85027  0.42233  1.0000
  C   C208      1.0  0.51982  0.88087  0.42394  1.0000
  H   H326      1.0  0.31141  0.97900  0.11423  1.0000
  H   H327      1.0  0.35296  0.75553  0.49444  1.0000
  H   H328      1.0  0.34694  0.00371  0.05333  1.0000
  H   H329      1.0  0.50947  0.89429  0.40245  1.0000
  H   H330      1.0  0.28561  0.63938  0.44191  1.0000
  H   H331      1.0  0.29240  0.75265  0.24104  1.0000
  H   H332      1.0  0.30191  0.63857  0.48892  1.0000
  H   H333      1.0  0.29657  0.99214  0.15840  1.0000
  H   H334      1.0  0.49593  0.89763  0.49046  1.0000
  H   H335      1.0  0.29573  0.70528  0.37706  1.0000
  H   H336      1.0  0.29476  0.75169  0.18804  1.0000
  H   H337      1.0  0.49694  0.83583  0.40457  1.0000
  C   C209      1.0  0.28998  0.80234  0.21344  1.0000
  H   H338      1.0  0.52894  0.83394  0.45959  1.0000
  C   C210      1.0  0.37060  0.74783  0.51066  1.0000
  N   N22       1.0  0.50126  0.86614  0.44826  1.0000
  H   H339      1.0  0.36435  0.73317  0.53300  1.0000
  H   H340      1.0  0.47059  0.83904  0.43978  1.0000
  C   C211      1.0  0.51598  0.84841  0.47585  1.0000
  H   H341      1.0  0.40279  0.80523  0.51115  1.0000
  C   C212      1.0  0.52589  0.81409  0.31449  1.0000
  H   H342      1.0  0.52994  0.79309  0.31080  1.0000
  H   H343      1.0  0.42164  0.74793  0.52854  1.0000
  H   H344      1.0  0.53245  0.89316  0.44246  1.0000
  H   H345      1.0  0.53305  0.86724  0.40662  1.0000
  N   N23       1.0  0.38460  0.76949  0.52918  1.0000
  S   S83       1.0  0.31259  0.67368  0.76993  1.0000
  H   H346      1.0  0.31053  0.87190  0.93082  1.0000
  C   C213      1.0  0.34759  0.71217  0.75616  1.0000
  H   H347      1.0  0.30145  0.72587  0.64075  1.0000
  C   C214      1.0  0.33644  0.68565  0.69981  1.0000
  C   C215      1.0  0.33373  0.69157  0.74001  1.0000
  H   H348      1.0  0.37612  0.91021  0.83998  1.0000
  Fe  Fe43      1.0  0.37083  0.81969  0.74644  1.0000
  H   H349      1.0  0.30625  0.74825  0.68071  1.0000
  H   H350      1.0  0.40303  0.74430  0.57332  1.0000
  H   H351      1.0  0.32579  0.66976  0.68719  1.0000
  S   S84       1.0  0.36124  0.94843  0.02368  1.0000
  H   H352      1.0  0.51719  0.77815  0.73478  1.0000
  C   C216      1.0  0.35364  0.69972  0.67611  1.0000
  H   H353      1.0  0.47523  0.88410  0.83825  1.0000
  C   C217      1.0  0.46054  0.87216  0.85376  1.0000
  N   N24       1.0  0.44660  0.85551  0.82569  1.0000
  H   H354      1.0  0.47100  0.85991  0.87661  1.0000
  H   H355      1.0  0.29742  0.70082  0.89827  1.0000
  H   H356      1.0  0.35610  0.69469  0.64525  1.0000
  H   H357      1.0  0.29459  0.79619  0.67205  1.0000
  C   C218      1.0  0.36403  0.72691  0.73210  1.0000
  H   H358      1.0  0.34544  0.71691  0.78716  1.0000
  C   C219      1.0  0.46549  0.83723  0.80562  1.0000
  Fe  Fe44      1.0  0.35410  0.91439  0.98318  1.0000
  H   H359      1.0  0.32657  0.74954  0.63766  1.0000
  H   H360      1.0  0.30770  0.76617  0.57382  1.0000
  C   C220      1.0  0.36815  0.88711  0.89195  1.0000
  S   S85       1.0  0.34470  0.84477  0.60402  1.0000
  C   C221      1.0  0.36566  0.87072  0.82449  1.0000
  C   C222      1.0  0.35831  0.84615  0.83875  1.0000
  H   H361      1.0  0.47288  0.79822  0.72146  1.0000
  H   H362      1.0  0.35965  0.85909  0.93774  1.0000
  S   S86       1.0  0.31039  0.91953  0.98520  1.0000
  C   C223      1.0  0.37061  0.89113  0.85109  1.0000
  C   C224      1.0  0.36101  0.86247  0.90620  1.0000
  S   S87       1.0  0.37532  0.91273  0.92449  1.0000
  H   H363      1.0  0.36714  0.87412  0.79300  1.0000
  S   S88       1.0  0.40893  0.79637  0.74059  1.0000
  H   H364      1.0  0.43680  0.82609  0.86878  1.0000
  S   S89       1.0  0.35106  0.82048  0.80634  1.0000
  C   C225      1.0  0.48991  0.80997  0.71827  1.0000
  C   C226      1.0  0.42724  0.84009  0.84734  1.0000
  H   H365      1.0  0.35064  0.82297  0.89076  1.0000
  C   C227      1.0  0.35604  0.84206  0.87962  1.0000
  S   S90       1.0  0.35224  0.79988  0.69524  1.0000
  S   S91       1.0  0.29518  0.99121  0.02563  1.0000
  C   C228      1.0  0.51497  0.79866  0.72583  1.0000
  H   H366      1.0  0.30441  0.87047  0.85805  1.0000
  C   C229      1.0  0.30623  0.74660  0.64789  1.0000
  C   C230      1.0  0.36737  0.72043  0.69219  1.0000
  H   H367      1.0  0.31441  0.79736  0.62825  1.0000
  H   H368      1.0  0.37452  0.74296  0.74464  1.0000
  S   S92       1.0  0.38804  0.73859  0.66190  1.0000
  Fe  Fe45      1.0  0.39111  0.77947  0.68597  1.0000
  C   C231      1.0  0.29268  0.71004  0.86910  1.0000
  Fe  Fe46      1.0  0.31776  0.95183  0.02898  1.0000
  H   H369      1.0  0.28776  0.85678  0.96293  1.0000
  H   H370      1.0  0.48039  0.84822  0.78892  1.0000
  Fe  Fe47      1.0  0.36818  0.83179  0.65732  1.0000
  C   C232      1.0  0.39054  0.85960  0.56910  1.0000
  H   H371      1.0  0.45555  0.82465  0.78391  1.0000
  H   H372      1.0  0.42181  0.86076  0.77490  1.0000
  H   H373      1.0  0.41540  0.82832  0.82679  1.0000
  H   H374      1.0  0.41933  0.88728  0.80994  1.0000
  Fe  Fe48      1.0  0.41984  0.82965  0.70045  1.0000
  S   S93       1.0  0.45619  0.85282  0.70268  1.0000
  S   S94       1.0  0.38267  0.85417  0.70947  1.0000
  C   C233      1.0  0.36458  0.85298  0.56350  1.0000
  S   S95       1.0  0.40624  0.81026  0.64535  1.0000
  H   H375      1.0  0.41346  0.85324  0.86436  1.0000
  H   H376      1.0  0.44726  0.88371  0.77786  1.0000
  H   H377      1.0  0.47606  0.82388  0.82692  1.0000
  H   H378      1.0  0.36144  0.76952  0.58233  1.0000
  C   C234      1.0  0.48701  0.83669  0.70757  1.0000
  C   C235      1.0  0.50912  0.85172  0.70340  1.0000
  H   H379      1.0  0.44675  0.88618  0.86943  1.0000
  C   C236      1.0  0.43313  0.87261  0.79592  1.0000
  H   H380      1.0  0.50698  0.87239  0.69515  1.0000
  H   H381      1.0  0.39829  0.86093  0.59869  1.0000
  H   H382      1.0  0.30652  0.70102  0.84696  1.0000
  C   C237      1.0  0.36736  0.78316  0.55831  1.0000
  H   H383      1.0  0.41915  0.77441  0.56380  1.0000
  H   H384      1.0  0.37746  0.79955  0.57267  1.0000
  C   C238      1.0  0.29686  0.85548  0.93312  1.0000
  C   C239      1.0  0.40644  0.86512  0.53640  1.0000
  C   C240      1.0  0.40816  0.75852  0.54952  1.0000
  H   H385      1.0  0.29670  0.73143  0.87086  1.0000
  H   H386      1.0  0.30859  0.83651  0.93203  1.0000
  C   C241      1.0  0.29013  0.85471  0.86255  1.0000
  H   H387      1.0  0.42639  0.87051  0.54104  1.0000
  H   H388      1.0  0.30114  0.83537  0.85958  1.0000
  C   C242      1.0  0.28799  0.76272  0.58610  1.0000
  C   C243      1.0  0.29458  0.79306  0.63951  1.0000
  H   H389      1.0  0.34948  0.79206  0.54414  1.0000
  N   N25       1.0  0.28743  0.76591  0.62951  1.0000
  S   S96       1.0  0.35652  0.88425  0.03200  1.0000
  Fe  Fe49      1.0  0.61633  0.25629  0.42395  1.0000
  S   S97       1.0  0.59991  0.24452  0.48332  1.0000
  Fe  Fe50      1.0  0.63446  0.24232  0.33933  1.0000
  S   S98       1.0  0.64578  0.20743  0.30030  1.0000
  S   S99       1.0  0.65549  0.24637  0.39698  1.0000
  S   S100      1.0  0.59502  0.24755  0.36806  1.0000
  C   C244      1.0  0.53620  0.29829  0.32733  1.0000
  N   N26       1.0  0.71406  0.41043  0.41838  1.0000
  C   C245      1.0  0.67647  0.24320  0.20429  1.0000
  H   H390      1.0  0.72587  0.22831  0.25562  1.0000
  H   H391      1.0  0.70773  0.22433  0.36134  1.0000
  C   C246      1.0  0.67257  0.19185  0.23347  1.0000
  H   H392      1.0  0.78121  0.32996  0.19681  1.0000
  C   C247      1.0  0.64897  0.24962  0.51451  1.0000
  C   C248      1.0  0.62255  0.24598  0.52225  1.0000
  H   H393      1.0  0.65565  0.25184  0.48442  1.0000
  H   H394      1.0  0.74268  0.22563  0.36324  1.0000
  C   C249      1.0  0.66019  0.21305  0.25370  1.0000
  C   C250      1.0  0.66134  0.23858  0.23807  1.0000
  H   H395      1.0  0.67155  0.17199  0.24517  1.0000
  H   H396      1.0  0.65115  0.25491  0.25254  1.0000
  S   S101      1.0  0.69232  0.16577  0.08140  1.0000
  Fe  Fe51      1.0  0.65585  0.28942  0.38107  1.0000
  C   C251      1.0  0.54049  0.27489  0.42300  1.0000
  C   C252      1.0  0.68964  0.22218  0.18489  1.0000
  Fe  Fe52      1.0  0.59916  0.29054  0.35437  1.0000
  S   S102      1.0  0.77504  0.44717  0.34486  1.0000
  H   H397      1.0  0.67810  0.26316  0.19327  1.0000
  H   H398      1.0  0.69698  0.40350  0.47537  1.0000
  H   H399      1.0  0.69728  0.18004  0.18414  1.0000
  H   H400      1.0  0.68315  0.24939  0.31052  1.0000
  C   C253      1.0  0.75046  0.05107  0.06812  1.0000
  H   H401      1.0  0.72571  0.44062  0.45846  1.0000
  S   S103      1.0  0.63722  0.28497  0.32158  1.0000
  C   C254      1.0  0.68715  0.19637  0.19894  1.0000
  Fe  Fe53      1.0  0.78142  0.40836  0.31375  1.0000
  C   C255      1.0  0.77664  0.52583  0.31456  1.0000
  Fe  Fe54      1.0  0.73022  0.14496  0.06358  1.0000
  H   H402      1.0  0.56035  0.27321  0.43621  1.0000
  S   S104      1.0  0.61812  0.29967  0.41218  1.0000
  H   H403      1.0  0.67669  0.33277  0.32226  1.0000
  H   H404      1.0  0.69926  0.36370  0.27751  1.0000
  H   H405      1.0  0.74789  0.26944  0.27518  1.0000
  H   H406      1.0  0.68751  0.38111  0.43742  1.0000
  H   H407      1.0  0.72332  0.41318  0.35638  1.0000
  S   S105      1.0  0.56443  0.31612  0.33500  1.0000
  C   C256      1.0  0.70957  0.35487  0.30247  1.0000
  H   H408      1.0  0.77583  0.23138  0.06783  1.0000
  C   C257      1.0  0.69219  0.40204  0.44341  1.0000
  C   C258      1.0  0.70690  0.40807  0.37630  1.0000
  H   H409      1.0  0.68984  0.42136  0.36851  1.0000
  H   H410      1.0  0.70165  0.38755  0.36917  1.0000
  H   H411      1.0  0.67414  0.41447  0.43783  1.0000
  C   C259      1.0  0.69678  0.33739  0.32777  1.0000
  H   H412      1.0  0.69977  0.26824  0.27367  1.0000
  H   H413      1.0  0.75871  0.04941  0.09749  1.0000
  C   C260      1.0  0.71969  0.43820  0.42712  1.0000
  H   H414      1.0  0.74437  0.39568  0.45760  1.0000
  S   S106      1.0  0.74324  0.10381  0.08462  1.0000
  H   H415      1.0  0.74487  0.21043  0.29243  1.0000
  H   H416      1.0  0.70990  0.20938  0.29263  1.0000
  H   H417      1.0  0.74626  0.28043  0.32557  1.0000
  N   N27       1.0  0.72479  0.24584  0.31354  1.0000
  S   S107      1.0  0.71139  0.22925  0.14629  1.0000
  C   C261      1.0  0.72449  0.23714  0.35532  1.0000
  H   H418      1.0  0.72241  0.25434  0.37573  1.0000
  C   C262      1.0  0.74732  0.26253  0.30647  1.0000
  H   H419      1.0  0.73607  0.44506  0.40859  1.0000
  H   H420      1.0  0.76609  0.25153  0.31280  1.0000
  C   C263      1.0  0.70047  0.26135  0.30494  1.0000
  Fe  Fe55      1.0  0.71670  0.20010  0.09637  1.0000
  S   S108      1.0  0.69412  0.30733  0.39600  1.0000
  S   S109      1.0  0.75472  0.17808  0.08426  1.0000
  H   H421      1.0  0.69837  0.27912  0.32388  1.0000
  H   H422      1.0  0.77331  0.36452  0.20346  1.0000
  C   C264      1.0  0.72655  0.22248  0.28744  1.0000
  C   C265      1.0  0.70973  0.32694  0.36105  1.0000
  H   H423      1.0  0.76961  0.50709  0.32454  1.0000
  C   C266      1.0  0.73748  0.39330  0.42669  1.0000
  H   H424      1.0  0.75401  0.39819  0.40693  1.0000
  S   S110      1.0  0.74970  0.38676  0.28257  1.0000
  C   C267      1.0  0.73515  0.36199  0.31070  1.0000
  C   C268      1.0  0.74838  0.35028  0.34270  1.0000
  C   C269      1.0  0.73574  0.33282  0.36776  1.0000
  H   H425      1.0  0.73357  0.37210  0.42244  1.0000
  H   H426      1.0  0.76833  0.35467  0.34840  1.0000
  H   H427      1.0  0.74600  0.32433  0.39302  1.0000
  H   H428      1.0  0.70246  0.45175  0.42144  1.0000
  C   C270      1.0  0.74121  0.07585  0.05398  1.0000
  H   H429      1.0  0.55697  0.26221  0.31079  1.0000
  H   H430      1.0  0.69379  0.04350  0.07492  1.0000
  H   H431      1.0  0.54446  0.23670  0.47820  1.0000
  H   H432      1.0  0.54064  0.26181  0.39673  1.0000
  C   C271      1.0  0.53816  0.27146  0.31771  1.0000
  H   H433      1.0  0.53738  0.29562  0.41227  1.0000
  H   H434      1.0  0.54065  0.28302  0.50102  1.0000
  S   S111      1.0  0.71442  0.21827  0.03576  1.0000
  Fe  Fe56      1.0  0.65363  0.22656  0.76528  1.0000
  H   H435      1.0  0.59891  0.22441  0.90602  1.0000
  S   S112      1.0  0.65434  0.18810  0.79912  1.0000
  Fe  Fe57      1.0  0.66598  0.25111  0.68513  1.0000
  H   H436      1.0  0.56980  0.24403  0.89499  1.0000
  N   N28       1.0  0.57369  0.20733  0.86330  1.0000
  S   S113      1.0  0.62969  0.23444  0.71045  1.0000
  C   C272      1.0  0.70101  0.32029  0.63440  1.0000
  Fe  Fe58      1.0  0.62311  0.27497  0.73619  1.0000
  H   H437      1.0  0.66548  0.14691  0.85556  1.0000
  Fe  Fe59      1.0  0.67956  0.27887  0.76167  1.0000
  H   H438      1.0  0.56811  0.21486  0.92536  1.0000
  H   H439      1.0  0.62540  0.24180  0.62292  1.0000
  H   H440      1.0  0.73377  0.30839  0.57439  1.0000
  C   C273      1.0  0.55751  0.27842  0.74249  1.0000
  S   S114      1.0  0.68176  0.24687  0.62324  1.0000
  H   H441      1.0  0.58006  0.24188  0.74801  1.0000
  H   H442      1.0  0.76660  0.32493  0.64509  1.0000
  C   C274      1.0  0.58459  0.18016  0.86997  1.0000
  C   C275      1.0  0.65909  0.18877  0.93376  1.0000
  C   C276      1.0  0.65805  0.18901  0.85073  1.0000
  C   C277      1.0  0.65466  0.21270  0.87161  1.0000
  C   C278      1.0  0.65466  0.21250  0.91304  1.0000
  H   H443      1.0  0.65116  0.23108  0.85606  1.0000
  H   H444      1.0  0.65089  0.23070  0.92914  1.0000
  H   H445      1.0  0.66667  0.14676  0.92895  1.0000
  C   C279      1.0  0.66288  0.16532  0.87151  1.0000
  S   S115      1.0  0.64386  0.26574  0.79325  1.0000
  H   H446      1.0  0.74218  0.46147  0.67517  1.0000
  S   S116      1.0  0.69074  0.23905  0.73722  1.0000
  H   H447      1.0  0.74095  0.34325  0.67004  1.0000
  H   H448      1.0  0.68729  0.30404  0.62996  1.0000
  H   H449      1.0  0.76549  0.30922  0.98673  1.0000
  C   C280      1.0  0.73080  0.29174  0.67176  1.0000
  S   S117      1.0  0.65565  0.18840  0.98517  1.0000
  H   H450      1.0  0.72927  0.52129  0.76266  1.0000
  C   C281      1.0  0.66363  0.16522  0.91298  1.0000
  H   H451      1.0  0.71800  0.27466  0.66866  1.0000
  H   H452      1.0  0.72789  0.24214  0.81749  1.0000
  C   C282      1.0  0.63202  0.24400  0.59280  1.0000
  H   H453      1.0  0.57975  0.23999  0.82393  1.0000
  C   C283      1.0  0.65856  0.24700  0.58491  1.0000
  H   H454      1.0  0.69321  0.48860  0.71168  1.0000
  H   H455      1.0  0.77348  0.47988  0.74432  1.0000
  H   H456      1.0  0.74430  0.34630  0.61758  1.0000
  H   H457      1.0  0.75116  0.28366  0.67532  1.0000
  Fe  Fe60      1.0  0.69289  0.18233  0.01961  1.0000
  S   S118      1.0  0.65797  0.29225  0.70718  1.0000
  H   H458      1.0  0.72260  0.27852  0.59604  1.0000
  H   H459      1.0  0.58434  0.20775  0.80178  1.0000
  H   H460      1.0  0.71938  0.25844  0.92389  1.0000
  S   S119      1.0  0.58454  0.29754  0.73308  1.0000
  C   C284      1.0  0.69988  0.34352  0.74946  1.0000
  H   H461      1.0  0.68025  0.33659  0.74800  1.0000
  C   C285      1.0  0.57777  0.22338  0.89898  1.0000
  H   H462      1.0  0.69118  0.37809  0.71354  1.0000
  H   H463      1.0  0.76156  0.49031  0.67530  1.0000
  S   S120      1.0  0.71232  0.29855  0.79240  1.0000
  C   C286      1.0  0.75323  0.47385  0.75001  1.0000
  H   H464      1.0  0.70735  0.45671  0.72512  1.0000
  H   H465      1.0  0.75594  0.28702  0.60223  1.0000
  C   C287      1.0  0.70601  0.36712  0.73027  1.0000
  H   H466      1.0  0.55568  0.25517  0.62115  1.0000
  C   C288      1.0  0.56079  0.25122  0.74906  1.0000
  H   H467      1.0  0.60838  0.21979  0.83411  1.0000
  Fe  Fe61      1.0  0.75053  0.19370  0.02251  1.0000
  Fe  Fe62      1.0  0.78257  0.41023  0.70980  1.0000
  C   C289      1.0  0.70801  0.47836  0.73100  1.0000
  S   S121      1.0  0.72888  0.15896  0.00031  1.0000
  H   H468      1.0  0.60576  0.18016  0.87725  1.0000
  N   N29       1.0  0.72830  0.30985  0.63743  1.0000
  C   C290      1.0  0.75977  0.23870  0.88066  1.0000
  H   H469      1.0  0.75301  0.45208  0.74571  1.0000
  C   C291      1.0  0.73076  0.07786  0.01594  1.0000
  C   C292      1.0  0.61409  0.24324  0.56148  1.0000
  H   H470      1.0  0.73311  0.21183  0.93573  1.0000
  H   H471      1.0  0.72356  0.09682  0.00473  1.0000
  H   H472      1.0  0.76301  0.25659  0.86227  1.0000
  H   H473      1.0  0.70492  0.21901  0.83483  1.0000
  N   N30       1.0  0.73229  0.23106  0.87873  1.0000
  H   H474      1.0  0.72787  0.49318  0.66121  1.0000
  C   C293      1.0  0.72556  0.22479  0.83742  1.0000
  H   H475      1.0  0.73805  0.20808  0.82576  1.0000
  C   C294      1.0  0.72884  0.20760  0.90415  1.0000
  H   H476      1.0  0.77481  0.35366  0.96048  1.0000
  H   H477      1.0  0.74200  0.19067  0.89502  1.0000
  C   C295      1.0  0.73467  0.51671  0.73149  1.0000
  H   H478      1.0  0.71715  0.27127  0.87406  1.0000
  C   C296      1.0  0.71506  0.25325  0.89272  1.0000
  H   H479      1.0  0.69476  0.33104  0.66168  1.0000
  H   H480      1.0  0.70855  0.20081  0.90272  1.0000
  H   H481      1.0  0.69418  0.24824  0.89147  1.0000
  C   C297      1.0  0.74583  0.33203  0.64268  1.0000
  H   H482      1.0  0.70189  0.48157  0.76226  1.0000
  S   S122      1.0  0.73956  0.40435  0.70505  1.0000
  C   C298      1.0  0.73553  0.29535  0.60091  1.0000
  C   C299      1.0  0.58705  0.21926  0.82929  1.0000
  C   C300      1.0  0.74181  0.48301  0.68198  1.0000
  H   H483      1.0  0.77329  0.22254  0.86978  1.0000
  H   H484      1.0  0.69839  0.33421  0.60905  1.0000
  C   C301      1.0  0.71904  0.32915  0.77089  1.0000
  C   C302      1.0  0.73137  0.37626  0.73221  1.0000
  C   C303      1.0  0.75045  0.36203  0.75397  1.0000
  C   C304      1.0  0.74423  0.33862  0.77351  1.0000
  H   H485      1.0  0.77011  0.36888  0.75549  1.0000
  H   H486      1.0  0.75442  0.52442  0.72626  1.0000
  H   H487      1.0  0.57464  0.17031  0.89496  1.0000
  H   H488      1.0  0.72509  0.30190  0.69974  1.0000
  H   H489      1.0  0.75914  0.32754  0.78993  1.0000
  H   H490      1.0  0.76559  0.24297  0.91162  1.0000
  N   N31       1.0  0.73441  0.48801  0.72363  1.0000
  H   H491      1.0  0.59370  0.24042  0.56762  1.0000
  H   H492      1.0  0.74888  0.47782  0.78171  1.0000
  C   C305      1.0  0.66695  0.24986  0.54572  1.0000
  H   H493      1.0  0.72129  0.05681  0.96290  1.0000
  H   H494      1.0  0.68742  0.25216  0.53940  1.0000
  C   C306      1.0  0.72943  0.05515  0.99234  1.0000
  H   H495      1.0  0.72086  0.52812  0.71189  1.0000
  H   H496      1.0  0.54161  0.19417  0.82859  1.0000
  H   H497      1.0  0.58265  0.16770  0.84320  1.0000
  H   H498      1.0  0.53675  0.22671  0.84847  1.0000
  H   H499      1.0  0.55200  0.22257  0.64123  1.0000
  C   C307      1.0  0.54543  0.20657  0.85487  1.0000
  H   H500      1.0  0.78023  0.29343  0.94414  1.0000
  H   H501      1.0  0.77392  0.43600  0.53541  1.0000
  H   H502      1.0  0.54160  0.21493  0.76106  1.0000
  C   C308      1.0  0.54318  0.24303  0.64041  1.0000
  H   H503      1.0  0.77477  0.12548  0.02520  1.0000
  H   H504      1.0  0.54436  0.25119  0.67078  1.0000
  C   C309      1.0  0.53906  0.23605  0.75666  1.0000
  H   H505      1.0  0.53451  0.19830  0.88023  1.0000
  H   H506      1.0  0.69004  0.86359  0.15384  1.0000
  H   H507      1.0  0.68431  0.72703  0.29814  1.0000
  S   S123      1.0  0.66054  0.77975  0.29247  1.0000
  C   C310      1.0  0.67771  0.78287  0.40331  1.0000
  C   C311      1.0  0.69312  0.76829  0.30008  1.0000
  H   H508      1.0  0.66262  0.85332  0.18231  1.0000
  H   H509      1.0  0.67220  0.73290  0.42764  1.0000
  H   H510      1.0  0.67068  0.76976  0.37962  1.0000
  H   H511      1.0  0.68877  0.79868  0.38876  1.0000
  H   H512      1.0  0.71175  0.74213  0.38908  1.0000
  C   C312      1.0  0.69943  0.74107  0.30215  1.0000
  C   C313      1.0  0.67876  0.74695  0.45045  1.0000
  S   S124      1.0  0.68151  0.84575  0.33805  1.0000
  Fe  Fe63      1.0  0.60845  0.86418  0.33121  1.0000
  S   S125      1.0  0.63735  0.89159  0.35727  1.0000
  S   S126      1.0  0.56663  0.88012  0.33104  1.0000
  Fe  Fe64      1.0  0.66211  0.87944  0.30501  1.0000
  Fe  Fe65      1.0  0.65370  0.85498  0.38739  1.0000
  S   S127      1.0  0.67111  0.84753  0.44761  1.0000
  S   S128      1.0  0.63234  0.85436  0.27674  1.0000
  C   C314      1.0  0.68432  0.91031  0.22083  1.0000
  H   H513      1.0  0.63212  0.00737  0.06733  1.0000
  H   H514      1.0  0.71075  0.01801  0.10306  1.0000
  C   C315      1.0  0.67989  0.84599  0.16488  1.0000
  H   H515      1.0  0.70166  0.98772  0.04833  1.0000
  C   C316      1.0  0.54146  0.85825  0.32354  1.0000
  C   C317      1.0  0.54665  0.83112  0.31878  1.0000
  Fe  Fe66      1.0  0.65023  0.82128  0.31371  1.0000
  C   C318      1.0  0.74893  0.02831  0.04462  1.0000
  C   C319      1.0  0.61835  0.88644  0.51847  1.0000
  C   C320      1.0  0.65307  0.85902  0.48875  1.0000
  C   C321      1.0  0.63189  0.87717  0.48471  1.0000
  S   S129      1.0  0.67198  0.91960  0.08763  1.0000
  H   H516      1.0  0.69605  0.79183  0.22078  1.0000
  H   H517      1.0  0.66604  0.81125  0.22057  1.0000
  H   H518      1.0  0.67640  0.79374  0.17693  1.0000
  C   C322      1.0  0.65955  0.90774  0.20448  1.0000
  C   C323      1.0  0.65582  0.91131  0.16362  1.0000
  H   H519      1.0  0.68948  0.85000  0.24281  1.0000
  H   H520      1.0  0.64325  0.90317  0.22333  1.0000
  H   H521      1.0  0.63662  0.90929  0.15107  1.0000
  H   H522      1.0  0.62621  0.88434  0.45567  1.0000
  S   S130      1.0  0.74182  0.94728  0.06237  1.0000
  H   H523      1.0  0.60218  0.90071  0.51538  1.0000
  S   S131      1.0  0.62315  0.82840  0.36526  1.0000
  H   H524      1.0  0.73415  0.80691  0.18240  1.0000
  C   C324      1.0  0.72047  0.82009  0.16508  1.0000
  C   C325      1.0  0.67693  0.91688  0.13891  1.0000
  H   H525      1.0  0.71989  0.83115  0.24252  1.0000
  H   H526      1.0  0.75610  0.00930  0.05574  1.0000
  H   H527      1.0  0.67680  0.83591  0.52973  1.0000
  H   H528      1.0  0.72445  0.91871  0.20882  1.0000
  H   H529      1.0  0.71457  0.80910  0.13837  1.0000
  C   C326      1.0  0.70166  0.91959  0.15530  1.0000
  H   H530      1.0  0.74406  0.54890  0.33890  1.0000
  C   C327      1.0  0.68162  0.99676  0.04575  1.0000
  H   H531      1.0  0.56661  0.82329  0.31848  1.0000
  H   H532      1.0  0.67252  0.83552  0.13860  1.0000
  C   C328      1.0  0.68343  0.80535  0.20230  1.0000
  H   H533      1.0  0.66028  0.79271  0.41752  1.0000
  N   N32       1.0  0.69752  0.82869  0.18901  1.0000
  S   S132      1.0  0.69002  0.90471  0.27149  1.0000
  H   H534      1.0  0.66099  0.75535  0.46562  1.0000
  C   C329      1.0  0.70627  0.84341  0.22383  1.0000
  H   H535      1.0  0.71807  0.92382  0.13649  1.0000
  S   S133      1.0  0.77635  0.74029  0.33120  1.0000
  H   H536      1.0  0.68960  0.97543  0.11681  1.0000
  C   C330      1.0  0.76222  0.54947  0.32264  1.0000
  S   S134      1.0  0.75491  0.60354  0.32431  1.0000
  H   H537      1.0  0.66512  0.99482  0.14316  1.0000
  C   C331      1.0  0.74458  0.75013  0.31668  1.0000
  C   C332      1.0  0.73841  0.77721  0.31309  1.0000
  H   H538      1.0  0.73030  0.74489  0.43358  1.0000
  H   H539      1.0  0.72989  0.71095  0.31294  1.0000
  H   H540      1.0  0.75338  0.79135  0.31747  1.0000
  C   C333      1.0  0.72519  0.73195  0.31044  1.0000
  H   H541      1.0  0.72915  0.77146  0.39817  1.0000
  C   C334      1.0  0.71733  0.75612  0.41253  1.0000
  Fe  Fe67      1.0  0.70778  0.92238  0.04914  1.0000
  H   H542      1.0  0.71656  0.86147  0.21503  1.0000
  H   H543      1.0  0.65582  0.97255  0.10513  1.0000
  H   H544      1.0  0.70862  0.80699  0.30119  1.0000
  C   C335      1.0  0.71287  0.78619  0.30459  1.0000
  H   H545      1.0  0.68517  0.79527  0.47971  1.0000
  H   H546      1.0  0.69048  0.73534  0.47266  1.0000
  N   N33       1.0  0.69405  0.76804  0.43249  1.0000
  C   C336      1.0  0.70231  0.78627  0.46362  1.0000
  H   H547      1.0  0.71310  0.80297  0.45082  1.0000
  C   C337      1.0  0.66041  0.84990  0.52643  1.0000
  H   H548      1.0  0.71518  0.77598  0.48574  1.0000
  H   H549      1.0  0.63891  0.03003  0.10640  1.0000
  H   H550      1.0  0.73153  0.83736  0.15481  1.0000
  C   C338      1.0  0.70526  0.91663  0.19624  1.0000
  S   S135      1.0  0.77684  0.66644  0.37811  1.0000
  N   N34       1.0  0.67251  0.00820  0.08373  1.0000
  C   C339      1.0  0.67068  0.98690  0.11355  1.0000
  C   C340      1.0  0.64655  0.02148  0.07819  1.0000
  C   C341      1.0  0.77163  0.57390  0.31064  1.0000
  H   H551      1.0  0.66875  0.98098  0.03551  1.0000
  C   C342      1.0  0.69119  0.02763  0.09736  1.0000
  H   H552      1.0  0.77967  0.56188  0.40105  1.0000
  Fe  Fe68      1.0  0.78141  0.63790  0.32752  1.0000
  H   H553      1.0  0.68459  0.03733  0.12531  1.0000
  Fe  Fe69      1.0  0.76619  0.91285  0.03823  1.0000
  H   H554      1.0  0.64739  0.03788  0.05621  1.0000
  C   C343      1.0  0.63944  0.71351  0.72438  1.0000
  H   H555      1.0  0.62458  0.74022  0.78987  1.0000
  H   H556      1.0  0.65959  0.72053  0.72085  1.0000
  H   H557      1.0  0.63562  0.70071  0.69858  1.0000
  H   H558      1.0  0.61155  0.76921  0.76490  1.0000
  H   H559      1.0  0.63932  0.70094  0.75147  1.0000
  C   C344      1.0  0.59355  0.72588  0.73048  1.0000
  N   N35       1.0  0.62012  0.73595  0.72700  1.0000
  H   H560      1.0  0.58850  0.71397  0.70425  1.0000
  H   H561      1.0  0.64112  0.76141  0.68821  1.0000
  H   H562      1.0  0.59159  0.71326  0.75725  1.0000
  C   C345      1.0  0.62571  0.75201  0.76213  1.0000
  H   H563      1.0  0.64556  0.75999  0.76054  1.0000
  H   H564      1.0  0.57858  0.74245  0.73277  1.0000
  C   C346      1.0  0.62174  0.75248  0.69101  1.0000
  H   H565      1.0  0.61856  0.74086  0.66377  1.0000
  H   H566      1.0  0.60676  0.76900  0.69136  1.0000
  H   H567      1.0  0.68835  0.78501  0.74155  1.0000
  C   C347      1.0  0.70455  0.74551  0.75166  1.0000
  S   S136      1.0  0.68674  0.79116  0.65619  1.0000
  C   C348      1.0  0.69520  0.76671  0.72798  1.0000
  C   C349      1.0  0.69581  0.76445  0.68680  1.0000
  H   H568      1.0  0.70457  0.74733  0.78353  1.0000
  S   S137      1.0  0.56839  0.79998  0.73266  1.0000
  C   C350      1.0  0.62469  0.93366  0.67745  1.0000
  Fe  Fe70      1.0  0.62014  0.86383  0.65126  1.0000
  S   S138      1.0  0.60893  0.88883  0.59843  1.0000
  Fe  Fe71      1.0  0.64169  0.86592  0.73442  1.0000
  H   H569      1.0  0.61880  0.94070  0.70744  1.0000
  S   S139      1.0  0.65311  0.89912  0.77416  1.0000
  Fe  Fe72      1.0  0.60151  0.82541  0.71374  1.0000
  C   C351      1.0  0.65596  0.93519  0.62416  1.0000
  S   S140      1.0  0.66085  0.86321  0.67484  1.0000
  S   S141      1.0  0.60094  0.86966  0.71033  1.0000
  H   H570      1.0  0.67390  0.94404  0.61237  1.0000
  H   H571      1.0  0.62774  0.91191  0.67948  1.0000
  N   N36       1.0  0.64866  0.94596  0.66342  1.0000
  C   C352      1.0  0.67002  0.94006  0.69182  1.0000
  H   H572      1.0  0.68846  0.94912  0.68250  1.0000
  S   S142      1.0  0.64084  0.82182  0.74337  1.0000
  C   C353      1.0  0.75824  0.76331  0.62286  1.0000
  H   H573      1.0  0.65232  0.85135  0.58883  1.0000
  H   H574      1.0  0.69800  0.92146  0.89642  1.0000
  H   H575      1.0  0.73808  0.77224  0.62076  1.0000
  H   H576      1.0  0.55084  0.85216  0.70665  1.0000
  C   C354      1.0  0.70590  0.88076  0.88072  1.0000
  H   H577      1.0  0.74392  0.78683  0.69190  1.0000
  C   C355      1.0  0.68474  0.86623  0.82053  1.0000
  C   C356      1.0  0.67325  0.89153  0.81518  1.0000
  H   H578      1.0  0.65963  0.91336  0.62539  1.0000
  H   H579      1.0  0.68114  0.85082  0.79947  1.0000
  C   C357      1.0  0.53406  0.84030  0.71007  1.0000
  H   H580      1.0  0.64002  0.93885  0.60221  1.0000
  H   H581      1.0  0.62774  0.97991  0.63920  1.0000
  C   C358      1.0  0.67814  0.91140  0.84264  1.0000
  Fe  Fe73      1.0  0.65646  0.81965  0.68130  1.0000
  C   C359      1.0  0.64382  0.97487  0.66035  1.0000
  H   H582      1.0  0.66152  0.98484  0.64984  1.0000
  H   H583      1.0  0.60804  0.93753  0.65684  1.0000
  S   S143      1.0  0.61726  0.81994  0.65234  1.0000
  H   H584      1.0  0.66492  0.94743  0.72199  1.0000
  H   H585      1.0  0.66933  0.93102  0.83864  1.0000
  H   H586      1.0  0.63817  0.98353  0.68950  1.0000
  H   H587      1.0  0.67412  0.91838  0.69494  1.0000
  S   S144      1.0  0.70231  0.93717  0.98699  1.0000
  H   H588      1.0  0.77629  0.78745  0.71182  1.0000
  C   C360      1.0  0.70112  0.86090  0.85315  1.0000
  C   C361      1.0  0.69433  0.90602  0.87544  1.0000
  H   H589      1.0  0.78250  0.80785  0.60582  1.0000
  Fe  Fe74      1.0  0.73005  0.90390  0.96927  1.0000
  S   S145      1.0  0.72815  0.69649  0.76301  1.0000
  S   S146      1.0  0.72674  0.87342  0.92103  1.0000
  H   H590      1.0  0.70528  0.73898  0.63755  1.0000
  H   H591      1.0  0.72248  0.70216  0.67914  1.0000
  C   C362      1.0  0.71491  0.72237  0.73402  1.0000
  H   H592      1.0  0.76661  0.76234  0.59248  1.0000
  H   H593      1.0  0.77730  0.83961  0.89466  1.0000
  N   N37       1.0  0.77457  0.77847  0.64976  1.0000
  C   C363      1.0  0.76384  0.77727  0.69032  1.0000
  C   C364      1.0  0.53712  0.81388  0.72185  1.0000
  C   C365      1.0  0.71504  0.72011  0.69291  1.0000
  H   H594      1.0  0.75705  0.79372  0.97334  1.0000
  C   C366      1.0  0.70523  0.74098  0.66939  1.0000
  H   H595      1.0  0.75090  0.82164  0.91429  1.0000
  H   H596      1.0  0.68241  0.01203  0.02200  1.0000
  Fe  Fe75      1.0  0.73819  0.96002  0.99880  1.0000
  S   S147      1.0  0.75972  0.66014  0.66952  1.0000
  S   S148      1.0  0.73576  0.00235  0.97613  1.0000
  Fe  Fe76      1.0  0.76208  0.67737  0.73020  1.0000
  H   H597      1.0  0.75672  0.74250  0.63323  1.0000
  S   S149      1.0  0.76580  0.92771  0.97560  1.0000
  H   H598      1.0  0.71002  0.84133  0.85708  1.0000
  C   C367      1.0  0.73831  0.03029  0.00666  1.0000
  C   C368      1.0  0.78070  0.84005  0.97306  1.0000
  S   S150      1.0  0.73224  0.88699  0.03061  1.0000
  C   C369      1.0  0.64659  0.85872  0.55998  1.0000
  H   H599      1.0  0.75436  0.81542  0.63620  1.0000
  H   H600      1.0  0.77705  0.80426  0.88861  1.0000
  C   C370      1.0  0.77840  0.79271  0.96702  1.0000
  C   C371      1.0  0.77455  0.80630  0.63637  1.0000
  C   C372      1.0  0.62567  0.87715  0.55614  1.0000
  H   H601      1.0  0.76228  0.75644  0.70064  1.0000
  C   C373      1.0  0.77243  0.82072  0.90947  1.0000
  H   H602      1.0  0.75943  0.84233  0.97956  1.0000
  H   H603      1.0  0.78272  0.77498  0.94837  1.0000
  S   S151      1.0  0.85021  0.28526  0.09722  1.0000
  C   C374      1.0  0.02476  0.31519  0.10457  1.0000
  H   H604      1.0  0.80331  0.36590  0.25970  1.0000
  H   H605      1.0  0.02134  0.40732  0.07631  1.0000
  C   C375      1.0  0.80898  0.25469  0.08052  1.0000
  S   S152      1.0  0.86448  0.35404  0.06918  1.0000
  N   N38       1.0  0.81443  0.35437  0.20068  1.0000
  C   C376      1.0  0.81662  0.35145  0.24407  1.0000
  H   H606      1.0  0.99420  0.42864  0.13008  1.0000
  H   H607      1.0  0.02314  0.37693  0.10431  1.0000
  Fe  Fe77      1.0  0.90334  0.36438  0.09229  1.0000
  S   S153      1.0  0.90638  0.39824  0.13476  1.0000
  S   S154      1.0  0.91796  0.32222  0.09946  1.0000
  Fe  Fe78      1.0  0.80204  0.42947  0.39121  1.0000
  Fe  Fe79      1.0  0.83955  0.40608  0.32917  1.0000
  S   S155      1.0  0.81544  0.42230  0.27910  1.0000
  S   S156      1.0  0.87284  0.37799  0.31210  1.0000
  Fe  Fe80      1.0  0.81181  0.45927  0.31521  1.0000
  S   S157      1.0  0.82016  0.49799  0.28565  1.0000
  S   S158      1.0  0.83869  0.44414  0.36344  1.0000
  S   S159      1.0  0.80570  0.38979  0.36205  1.0000
  H   H608      1.0  0.80170  0.52628  0.44055  1.0000
  C   C377      1.0  0.00189  0.31724  0.04166  1.0000
  C   C378      1.0  0.96921  0.40967  0.06725  1.0000
  C   C379      1.0  0.80026  0.52660  0.29379  1.0000
  C   C380      1.0  0.82159  0.38129  0.18890  1.0000
  H   H609      1.0  0.79667  0.08696  0.05771  1.0000
  H   H610      1.0  0.98377  0.30795  0.09715  1.0000
  C   C381      1.0  0.98487  0.40939  0.13442  1.0000
  H   H611      1.0  0.02439  0.31195  0.13619  1.0000
  C   C382      1.0  0.89775  0.39223  0.18418  1.0000
  C   C383      1.0  0.88916  0.41348  0.20788  1.0000
  C   C384      1.0  0.88161  0.40920  0.24721  1.0000
  C   C385      1.0  0.88336  0.38373  0.26340  1.0000
  C   C386      1.0  0.89262  0.36252  0.24001  1.0000
  C   C387      1.0  0.89944  0.36669  0.20023  1.0000
  H   H612      1.0  0.88788  0.43330  0.19565  1.0000
  H   H613      1.0  0.87468  0.42571  0.26515  1.0000
  H   H614      1.0  0.89407  0.34279  0.25249  1.0000
  H   H615      1.0  0.90628  0.35022  0.18220  1.0000
  H   H616      1.0  0.84059  0.41659  0.46236  1.0000
  H   H617      1.0  0.94857  0.41345  0.07694  1.0000
  H   H618      1.0  0.98311  0.35637  0.12613  1.0000
  C   C388      1.0  0.83170  0.41846  0.49131  1.0000
  H   H619      1.0  0.85291  0.33739  0.18961  1.0000
  H   H620      1.0  0.82700  0.12823  0.10102  1.0000
  C   C389      1.0  0.80550  0.42705  0.49484  1.0000
  C   C390      1.0  0.81535  0.09344  0.04463  1.0000
  C   C391      1.0  0.84651  0.41252  0.52547  1.0000
  C   C392      1.0  0.79416  0.42938  0.53250  1.0000
  H   H621      1.0  0.80793  0.39663  0.20177  1.0000
  C   C393      1.0  0.00170  0.31300  0.08254  1.0000
  H   H622      1.0  0.82749  0.31409  0.18918  1.0000
  H   H623      1.0  0.79240  0.12922  0.09331  1.0000
  Fe  Fe81      1.0  0.87991  0.31206  0.07072  1.0000
  Fe  Fe82      1.0  0.93242  0.32649  0.03688  1.0000
  H   H624      1.0  0.80192  0.26020  0.10964  1.0000
  C   C394      1.0  0.97181  0.36894  0.10465  1.0000
  C   C395      1.0  0.83223  0.33469  0.18115  1.0000
  C   C396      1.0  0.81134  0.13473  0.08000  1.0000
  C   C397      1.0  0.83263  0.26420  0.06666  1.0000
  C   C398      1.0  0.01120  0.38876  0.08259  1.0000
  H   H625      1.0  0.96983  0.35758  0.07686  1.0000
  H   H626      1.0  0.82136  0.38390  0.15622  1.0000
  N   N39       1.0  0.98431  0.39423  0.09723  1.0000
  H   H627      1.0  0.95193  0.37204  0.11711  1.0000
  H   H628      1.0  0.86681  0.40609  0.52263  1.0000
  H   H629      1.0  0.96468  0.41373  0.14585  1.0000
  C   C399      1.0  0.79422  0.23820  0.05687  1.0000
  H   H630      1.0  0.83678  0.35486  0.25441  1.0000
  H   H631      1.0  0.81156  0.33135  0.25407  1.0000
  H   H632      1.0  0.83118  0.33630  0.14834  1.0000
  H   H633      1.0  0.83492  0.52922  0.45585  1.0000
  H   H634      1.0  0.99578  0.39817  0.15788  1.0000
  H   H635      1.0  0.84858  0.53681  0.38582  1.0000
  H   H636      1.0  0.84155  0.38561  0.19915  1.0000
  H   H637      1.0  0.81113  0.15672  0.07814  1.0000
  H   H638      1.0  0.83138  0.08577  0.06418  1.0000
  C   C400      1.0  0.78722  0.35015  0.18868  1.0000
  H   H639      1.0  0.01120  0.37707  0.05472  1.0000
  H   H640      1.0  0.97772  0.42918  0.06153  1.0000
  S   S160      1.0  0.78619  0.43526  0.45318  1.0000
  H   H641      1.0  0.81543  0.53254  0.37173  1.0000
  H   H642      1.0  0.96877  0.39900  0.03855  1.0000
  H   H643      1.0  0.85712  0.12421  0.04368  1.0000
  N   N40       1.0  0.81533  0.12256  0.04069  1.0000
  H   H644      1.0  0.78472  0.35258  0.15619  1.0000
  C   C401      1.0  0.81641  0.54070  0.44946  1.0000
  C   C402      1.0  0.78431  0.30154  0.97386  1.0000
  C   C403      1.0  0.79399  0.13164  0.01399  1.0000
  H   H645      1.0  0.86006  0.26374  0.01840  1.0000
  C   C404      1.0  0.82686  0.24023  0.00532  1.0000
  C   C405      1.0  0.82799  0.31151  0.95338  1.0000
  H   H646      1.0  0.80727  0.36078  0.94523  1.0000
  C   C406      1.0  0.84158  0.25689  0.02899  1.0000
  H   H647      1.0  0.83594  0.29390  0.96971  1.0000
  C   C407      1.0  0.79307  0.34476  0.94748  1.0000
  H   H648      1.0  0.83396  0.23449  0.97634  1.0000
  S   S161      1.0  0.80043  0.44386  0.67763  1.0000
  C   C408      1.0  0.80313  0.23082  0.01926  1.0000
  N   N41       1.0  0.80363  0.32237  0.97165  1.0000
  S   S162      1.0  0.80131  0.41816  0.76794  1.0000
  S   S163      1.0  0.78451  0.21035  0.98922  1.0000
  H   H649      1.0  0.79652  0.12320  0.98386  1.0000
  C   C409      1.0  0.80256  0.53727  0.67695  1.0000
  C   C410      1.0  0.80673  0.53946  0.75914  1.0000
  S   S164      1.0  0.89535  0.31271  0.00843  1.0000
  Fe  Fe83      1.0  0.83399  0.39098  0.74649  1.0000
  H   H650      1.0  0.80805  0.54018  0.79104  1.0000
  S   S165      1.0  0.85707  0.35950  0.78057  1.0000
  Fe  Fe84      1.0  0.83280  0.41414  0.66362  1.0000
  H   H651      1.0  0.79118  0.33912  0.02729  1.0000
  S   S166      1.0  0.85405  0.40789  0.60575  1.0000
  Fe  Fe85      1.0  0.82170  0.44974  0.73464  1.0000
  H   H652      1.0  0.79989  0.42511  0.59532  1.0000
  S   S167      1.0  0.85592  0.42330  0.71779  1.0000
  S   S168      1.0  0.81307  0.37988  0.69111  1.0000
  H   H653      1.0  0.92602  0.32439  0.68707  1.0000
  H   H654      1.0  0.87916  0.33741  0.69628  1.0000
  H   H655      1.0  0.84344  0.32624  0.95352  1.0000
  S   S169      1.0  0.85792  0.37933  0.96526  1.0000
  C   C411      1.0  0.84055  0.13050  0.02412  1.0000
  H   H656      1.0  0.94871  0.34859  0.67176  1.0000
  H   H657      1.0  0.93471  0.37693  0.72837  1.0000
  C   C412      1.0  0.83516  0.41505  0.56317  1.0000
  C   C413      1.0  0.80889  0.42331  0.56652  1.0000
  H   H658      1.0  0.80116  0.53646  0.64506  1.0000
  C   C414      1.0  0.85851  0.36536  0.83183  1.0000
  C   C415      1.0  0.84482  0.38707  0.84829  1.0000
  C   C416      1.0  0.84524  0.39122  0.88917  1.0000
  C   C417      1.0  0.85975  0.37401  0.91396  1.0000
  C   C418      1.0  0.87399  0.35251  0.89761  1.0000
  C   C419      1.0  0.87319  0.34809  0.85656  1.0000
  H   H659      1.0  0.83384  0.40073  0.82964  1.0000
  H   H660      1.0  0.83432  0.40797  0.90162  1.0000
  H   H661      1.0  0.88541  0.33922  0.91655  1.0000
  H   H662      1.0  0.88399  0.33133  0.84398  1.0000
  S   S170      1.0  0.82575  0.48848  0.76600  1.0000
  C   C420      1.0  0.80923  0.33171  0.01195  1.0000
  H   H663      1.0  0.86828  0.37082  0.68748  1.0000
  H   H664      1.0  0.82287  0.34824  0.01113  1.0000
  S   S171      1.0  0.97304  0.31598  0.01317  1.0000
  H   H665      1.0  0.90081  0.38629  0.73472  1.0000
  H   H666      1.0  0.81839  0.49738  0.68244  1.0000
  H   H667      1.0  0.89919  0.40428  0.66609  1.0000
  H   H668      1.0  0.93309  0.39501  0.65938  1.0000
  Fe  Fe86      1.0  0.88244  0.35559  0.00889  1.0000
  C   C421      1.0  0.88262  0.35519  0.67776  1.0000
  C   C422      1.0  0.81215  0.51510  0.69808  1.0000
  H   H669      1.0  0.87793  0.35065  0.64646  1.0000
  H   H670      1.0  0.91168  0.35288  0.74347  1.0000
  C   C423      1.0  0.81430  0.51619  0.73916  1.0000
  S   S172      1.0  0.92023  0.36950  0.03179  1.0000
  N   N42       1.0  0.90958  0.36399  0.68197  1.0000
  C   C424      1.0  0.91296  0.38777  0.65720  1.0000
  C   C425      1.0  0.92814  0.34263  0.66899  1.0000
  C   C426      1.0  0.91453  0.37029  0.72386  1.0000
  H   H671      1.0  0.92485  0.33739  0.63751  1.0000
  H   H672      1.0  0.90889  0.38383  0.62547  1.0000
  H   H673      1.0  0.82498  0.30570  0.92212  1.0000
  H   H674      1.0  0.02593  0.32578  0.99120  1.0000
  H   H675      1.0  0.81844  0.31567  0.03051  1.0000
  H   H676      1.0  0.84092  0.15239  0.02049  1.0000
  H   H677      1.0  0.84426  0.12153  0.99454  1.0000
  H   H678      1.0  0.79293  0.15359  0.01106  1.0000
  H   H679      1.0  0.81764  0.08354  0.01544  1.0000
  C   C427      1.0  0.02554  0.32282  0.02289  1.0000
  H   H680      1.0  0.79142  0.28478  0.99297  1.0000
  H   H681      1.0  0.78876  0.33854  0.91675  1.0000
  H   H682      1.0  0.02334  0.78661  0.07584  1.0000
  H   H683      1.0  0.82730  0.55163  0.26442  1.0000
  S   S173      1.0  0.86005  0.75108  0.12299  1.0000
  Fe  Fe87      1.0  0.81976  0.65857  0.38614  1.0000
  S   S174      1.0  0.83681  0.64692  0.44535  1.0000
  Fe  Fe88      1.0  0.83072  0.66200  0.29660  1.0000
  H   H684      1.0  0.78785  0.58620  0.43720  1.0000
  S   S175      1.0  0.86308  0.66007  0.25109  1.0000
  C   C428      1.0  0.82933  0.54741  0.38163  1.0000
  H   H685      1.0  0.79700  0.59025  0.38659  1.0000
  S   S176      1.0  0.83136  0.69128  0.34590  1.0000
  S   S177      1.0  0.82380  0.62835  0.33812  1.0000
  H   H686      1.0  0.85234  0.66310  0.12502  1.0000
  H   H687      1.0  0.87747  0.66191  0.06291  1.0000
  Fe  Fe89      1.0  0.88260  0.74939  0.06551  1.0000
  H   H688      1.0  0.80207  0.59319  0.27911  1.0000
  H   H689      1.0  0.85311  0.70292  0.08108  1.0000
  C   C429      1.0  0.82886  0.65219  0.52493  1.0000
  S   S178      1.0  0.80016  0.89319  0.07063  1.0000
  H   H690      1.0  0.86025  0.63404  0.04578  1.0000
  S   S179      1.0  0.78841  0.66939  0.28180  1.0000
  C   C430      1.0  0.82420  0.66339  0.48749  1.0000
  H   H691      1.0  0.80664  0.69645  0.45563  1.0000
  H   H692      1.0  0.86109  0.76838  0.33934  1.0000
  C   C431      1.0  0.86629  0.74144  0.27155  1.0000
  N   N43       1.0  0.82014  0.56071  0.41819  1.0000
  C   C432      1.0  0.86036  0.72344  0.15457  1.0000
  C   C433      1.0  0.88282  0.70719  0.15962  1.0000
  C   C434      1.0  0.88324  0.68714  0.18856  1.0000
  C   C435      1.0  0.86123  0.68330  0.21233  1.0000
  C   C436      1.0  0.83838  0.69869  0.20574  1.0000
  C   C437      1.0  0.83795  0.71864  0.17680  1.0000
  H   H693      1.0  0.90018  0.71074  0.14243  1.0000
  H   H694      1.0  0.90093  0.67514  0.19344  1.0000
  H   H695      1.0  0.82121  0.69556  0.22344  1.0000
  H   H696      1.0  0.82031  0.73072  0.17210  1.0000
  N   N44       1.0  0.84722  0.76347  0.27990  1.0000
  C   C438      1.0  0.82229  0.75865  0.25987  1.0000
  C   C439      1.0  0.83975  0.57939  0.43114  1.0000
  H   H697      1.0  0.83174  0.84674  0.08848  1.0000
  C   C440      1.0  0.84268  0.76532  0.32299  1.0000
  C   C441      1.0  0.85759  0.78849  0.26512  1.0000
  H   H698      1.0  0.80670  0.77351  0.26844  1.0000
  H   H699      1.0  0.81504  0.73884  0.26771  1.0000
  H   H700      1.0  0.85891  0.56916  0.43742  1.0000
  H   H701      1.0  0.82444  0.75956  0.22722  1.0000
  C   C442      1.0  0.00002  0.75965  0.04332  1.0000
  H   H702      1.0  0.86144  0.78760  0.23267  1.0000
  H   H703      1.0  0.87057  0.73984  0.23934  1.0000
  C   C443      1.0  0.80149  0.70089  0.51880  1.0000
  H   H704      1.0  0.83421  0.74701  0.33480  1.0000
  H   H705      1.0  0.82852  0.78185  0.33038  1.0000
  C   C444      1.0  0.79507  0.57533  0.41055  1.0000
  H   H706      1.0  0.84355  0.80548  0.27045  1.0000
  H   H707      1.0  0.88515  0.74403  0.28692  1.0000
  C   C445      1.0  0.85963  0.65601  0.04705  1.0000
  H   H708      1.0  0.79112  0.71986  0.51633  1.0000
  C   C446      1.0  0.83619  0.85265  0.05851  1.0000
  S   S180      1.0  0.91505  0.77561  0.04711  1.0000
  H   H709      1.0  0.86402  0.82013  0.04911  1.0000
  H   H710      1.0  0.80952  0.55009  0.47751  1.0000
  Fe  Fe90      1.0  0.78843  0.69697  0.33365  1.0000
  H   H711      1.0  0.83149  0.56183  0.35696  1.0000
  C   C447      1.0  0.81022  0.68766  0.48442  1.0000
  H   H712      1.0  0.85888  0.72207  0.28132  1.0000
  H   H713      1.0  0.87630  0.79286  0.27984  1.0000
  C   C448      1.0  0.81255  0.65768  0.04530  1.0000
  H   H714      1.0  0.83969  0.63347  0.52749  1.0000
  H   H715      1.0  0.98178  0.76672  0.05640  1.0000
  N   N45       1.0  0.83564  0.66650  0.06683  1.0000
  C   C449      1.0  0.83537  0.69569  0.06671  1.0000
  H   H716      1.0  0.81823  0.70444  0.08293  1.0000
  C   C450      1.0  0.80913  0.55095  0.28068  1.0000
  H   H717      1.0  0.83334  0.59010  0.45840  1.0000
  C   C451      1.0  0.79497  0.57452  0.28930  1.0000
  H   H718      1.0  0.81740  0.66451  0.12419  1.0000
  C   C452      1.0  0.02361  0.77083  0.05437  1.0000
  H   H719      1.0  0.84309  0.59469  0.40811  1.0000
  C   C453      1.0  0.83508  0.65676  0.10812  1.0000
  H   H720      1.0  0.83520  0.63478  0.10950  1.0000
  H   H721      1.0  0.79410  0.66547  0.05917  1.0000
  C   C454      1.0  0.82339  0.87511  0.04207  1.0000
  H   H722      1.0  0.81201  0.63573  0.04485  1.0000
  C   C455      1.0  0.85450  0.83759  0.03624  1.0000
  H   H723      1.0  0.83490  0.70385  0.03611  1.0000
  Fe  Fe91      1.0  0.87493  0.72786  0.98234  1.0000
  S   S181      1.0  0.90630  0.75223  0.95657  1.0000
  S   S182      1.0  0.84593  0.70201  0.95262  1.0000
  C   C456      1.0  0.88861  0.59687  0.77891  1.0000
  H   H724      1.0  0.82220  0.83324  0.92572  1.0000
  H   H725      1.0  0.00765  0.78153  0.96444  1.0000
  H   H726      1.0  0.87864  0.63171  0.71959  1.0000
  C   C457      1.0  0.87923  0.61032  0.71171  1.0000
  Fe  Fe92      1.0  0.82056  0.66882  0.73525  1.0000
  Fe  Fe93      1.0  0.78820  0.62904  0.69249  1.0000
  S   S183      1.0  0.85744  0.67505  0.77000  1.0000
  H   H727      1.0  0.78659  0.81839  0.65608  1.0000
  H   H728      1.0  0.79120  0.83817  0.00176  1.0000
  C   C458      1.0  0.81500  0.81484  0.93934  1.0000
  H   H729      1.0  0.85686  0.56302  0.70821  1.0000
  H   H730      1.0  0.81268  0.66471  0.01397  1.0000
  S   S184      1.0  0.82360  0.65091  0.67456  1.0000
  H   H731      1.0  0.94646  0.78106  0.90659  1.0000
  S   S185      1.0  0.97106  0.72552  0.99877  1.0000
  H   H732      1.0  0.82334  0.65629  0.58782  1.0000
  C   C459      1.0  0.79528  0.56064  0.69679  1.0000
  C   C460      1.0  0.84404  0.60267  0.75723  1.0000
  C   C461      1.0  0.79696  0.56163  0.73797  1.0000
  H   H733      1.0  0.88251  0.58503  0.80491  1.0000
  C   C462      1.0  0.81962  0.66512  0.55918  1.0000
  C   C463      1.0  0.00019  0.73927  0.01553  1.0000
  H   H734      1.0  0.89039  0.55855  0.72322  1.0000
  S   S186      1.0  0.78363  0.58791  0.66920  1.0000
  S   S187      1.0  0.78746  0.64405  0.75499  1.0000
  H   H735      1.0  0.86638  0.60818  0.68551  1.0000
  N   N46       1.0  0.87069  0.59389  0.74522  1.0000
  H   H736      1.0  0.90896  0.59035  0.77109  1.0000
  H   H737      1.0  0.94697  0.82995  0.91130  1.0000
  H   H738      1.0  0.89954  0.60475  0.70242  1.0000
  H   H739      1.0  0.84349  0.62317  0.76882  1.0000
  H   H740      1.0  0.88894  0.61794  0.78847  1.0000
  H   H741      1.0  0.83036  0.60244  0.73177  1.0000
  C   C464      1.0  0.84920  0.69571  0.90149  1.0000
  C   C465      1.0  0.87278  0.69918  0.88160  1.0000
  C   C466      1.0  0.87510  0.69286  0.84123  1.0000
  C   C467      1.0  0.85373  0.68357  0.82034  1.0000
  C   C468      1.0  0.83003  0.68053  0.84009  1.0000
  C   C469      1.0  0.82788  0.68631  0.88062  1.0000
  H   H742      1.0  0.88939  0.70622  0.89746  1.0000
  H   H743      1.0  0.89350  0.69521  0.82615  1.0000
  H   H744      1.0  0.81343  0.67344  0.82430  1.0000
  H   H745      1.0  0.80958  0.68358  0.89579  1.0000
  H   H746      1.0  0.83634  0.58988  0.78102  1.0000
  C   C470      1.0  0.87069  0.56586  0.73307  1.0000
  H   H747      1.0  0.78877  0.78950  0.99564  1.0000
  Fe  Fe94      1.0  0.92950  0.74067  0.01092  1.0000
  C   C471      1.0  0.00235  0.80059  0.94941  1.0000
  C   C472      1.0  0.95868  0.80209  0.97657  1.0000
  H   H748      1.0  0.97156  0.76086  0.93003  1.0000
  H   H749      1.0  0.81003  0.76680  0.61905  1.0000
  S   S188      1.0  0.85640  0.76192  0.01537  1.0000
  C   C473      1.0  0.80618  0.68965  0.55627  1.0000
  H   H750      1.0  0.82020  0.79815  0.91913  1.0000
  H   H751      1.0  0.96376  0.81820  0.99705  1.0000
  Fe  Fe95      1.0  0.88977  0.78515  0.99443  1.0000
  S   S189      1.0  0.79507  0.70319  0.71486  1.0000
  C   C474      1.0  0.80157  0.76700  0.64942  1.0000
  H   H752      1.0  0.78643  0.85888  0.95894  1.0000
  H   H753      1.0  0.85289  0.87413  0.95162  1.0000
  H   H754      1.0  0.01471  0.80154  0.92238  1.0000
  H   H755      1.0  0.79046  0.57936  0.75347  1.0000
  S   S190      1.0  0.89911  0.71347  0.03398  1.0000
  H   H756      1.0  0.93738  0.80445  0.97040  1.0000
  C   C475      1.0  0.86070  0.84537  0.99773  1.0000
  H   H757      1.0  0.97907  0.77965  0.88668  1.0000
  H   H758      1.0  0.97309  0.84508  0.93673  1.0000
  C   C476      1.0  0.96753  0.78011  0.91458  1.0000
  H   H759      1.0  0.97930  0.82879  0.89029  1.0000
  S   S191      1.0  0.88276  0.82596  0.96890  1.0000
  H   H760      1.0  0.81975  0.90017  0.99061  1.0000
  H   H761      1.0  0.00803  0.81668  0.96956  1.0000
  N   N47       1.0  0.97422  0.80264  0.93975  1.0000
  C   C477      1.0  0.82933  0.88271  0.00335  1.0000
  C   C478      1.0  0.96817  0.82773  0.91851  1.0000
  H   H762      1.0  0.81463  0.77806  0.66895  1.0000
  C   C479      1.0  0.84820  0.86804  0.98141  1.0000
  Fe  Fe96      1.0  0.79498  0.68313  0.65576  1.0000
  H   H763      1.0  0.02444  0.71427  0.97781  1.0000
  H   H764      1.0  0.80220  0.74610  0.65973  1.0000
  C   C480      1.0  0.02412  0.73005  0.99929  1.0000
  H   H765      1.0  0.82618  0.81120  0.96711  1.0000
  H   H766      1.0  0.96195  0.78303  0.99256  1.0000
  S   S192      1.0  0.79575  0.70699  0.59903  1.0000
  H   H767      1.0  0.86448  0.55285  0.75775  1.0000
  H   H768      1.0  0.86102  0.66357  0.01612  1.0000
  N   N48       1.0  0.78663  0.81709  0.94720  1.0000
