data_image0
_chemical_formula_structural       HCSCHSC6H4CHCH5CNH3FeH4SH4C4HCH3NH4CH2SFe2HFeS2FeHSCH2SC6HCH2CHCHCSHSFeSH2NHCH2SCH5CH4CSH3C2FeHCSHCFeHFeHFeS2FeS3NCHC3HSCH4FeC3HCH3SH2CHSH2SHSC6H5CHNH2CFeHCHSHCH3CH4C3H4FeC2NSH4SCHCH2SHSH2C5H2CH5CHCH2CSHFeSHCSC2HSHCHC5NSHFeHCH2NHSCHFeCH5SC2H2CSH4Fe2H5C2HSHNCHC2HS2HSFeS2C7SH6C2HSCHCHNH2SCH2CH3FeNFeH4CH3CFeH4NH6CHCHC3FeHCFeCSHSFeSNSFeHSC6H6C2SHNCHCHSCH4CH12CHC2H2CSFeSHCFeC6HCH4C2SH2SH2NH3CH2CH3C3HSFeCSH2SHFeCSC2HC3HSH3CHCH4CNH4C2H4NH4CHC2H2C2H2C2HS2HC3HFeS2FeHSH2CHFeH2SCHCHSCSFeC2S2CHFeHC2H3SHNCHCHFeCH4CH2C3HSHSFeSCHC2H2FeH5SCFeSH3C3HC2H3NH3CNC2H2CSHNH2CH5CHCH2CH2CH2S2HSC3H3CHCFeCSH2SHFeHC3FeHSFeSHSHCSC6HCH2FeCH2FeNHCH2SH4SC2H3C2HCH2S2HFeSH4SC6H3FeHSHC2H3C2NHCHCHSHNH5CHC
_chemical_formula_sum              "H384 C240 S96 N24 Fe48"
_cell_length_a       35.872
_cell_length_b       24.3902
_cell_length_c       33.8795
_cell_angle_alpha    90.1597
_cell_angle_beta     71.5569
_cell_angle_gamma    89.7216

_space_group_name_H-M_alt    "P 1"
_space_group_IT_number       1

loop_
  _space_group_symop_operation_xyz
  'x, y, z'

loop_
  _atom_site_type_symbol
  _atom_site_label
  _atom_site_symmetry_multiplicity
  _atom_site_fract_x
  _atom_site_fract_y
  _atom_site_fract_z
  _atom_site_occupancy
  H   H1        1.0  0.21377  0.26602  0.11040  1.0000
  C   C1        1.0  0.21337  0.34050  0.17089  1.0000
  S   S1        1.0  0.08068  0.27770  0.11116  1.0000
  C   C2        1.0  0.02352  0.48528  0.51499  1.0000
  H   H2        1.0  0.04141  0.22328  0.18762  1.0000
  S   S2        1.0  0.12981  0.07494  0.20007  1.0000
  C   C3        1.0  0.09274  0.21763  0.13332  1.0000
  C   C4        1.0  0.12740  0.18839  0.11396  1.0000
  C   C5        1.0  0.13845  0.14435  0.13454  1.0000
  C   C6        1.0  0.11433  0.12826  0.17401  1.0000
  C   C7        1.0  0.07896  0.15617  0.19276  1.0000
  C   C8        1.0  0.06832  0.20096  0.17252  1.0000
  H   H3        1.0  0.14594  0.19992  0.08335  1.0000
  H   H4        1.0  0.16561  0.12244  0.11978  1.0000
  H   H5        1.0  0.22505  0.37695  0.15113  1.0000
  H   H6        1.0  0.21616  0.52207  0.12607  1.0000
  C   C9        1.0  0.16492  0.26840  0.18795  1.0000
  H   H7        1.0  0.25076  0.45171  0.49995  1.0000
  C   C10       1.0  0.19169  0.29984  0.11708  1.0000
  H   H8        1.0  0.06023  0.14404  0.22325  1.0000
  H   H9        1.0  0.20527  0.35388  0.20397  1.0000
  H   H10       1.0  0.06810  0.45321  0.06288  1.0000
  H   H11       1.0  0.18349  0.46026  0.49925  1.0000
  H   H12       1.0  0.13850  0.25069  0.18240  1.0000
  C   C11       1.0  0.14755  0.35801  0.16899  1.0000
  N   N1        1.0  0.17940  0.31668  0.16127  1.0000
  H   H13       1.0  0.03620  0.06880  0.47365  1.0000
  H   H14       1.0  0.18744  0.23514  0.18179  1.0000
  H   H15       1.0  0.15640  0.27917  0.22157  1.0000
  Fe  Fe1       1.0  0.08143  0.03752  0.25261  1.0000
  H   H16       1.0  0.20856  0.43769  0.08858  1.0000
  H   H17       1.0  0.12159  0.34129  0.16160  1.0000
  H   H18       1.0  0.15225  0.40353  0.49730  1.0000
  H   H19       1.0  0.20510  0.33441  0.09620  1.0000
  S   S3        1.0  0.06039  0.07149  0.31777  1.0000
  H   H20       1.0  0.23792  0.31031  0.16509  1.0000
  H   H21       1.0  0.13723  0.37145  0.20211  1.0000
  H   H22       1.0  0.15735  0.39501  0.14938  1.0000
  H   H23       1.0  0.04987  0.16318  0.44564  1.0000
  C   C12       1.0  0.25831  0.47782  0.52209  1.0000
  C   C13       1.0  0.15270  0.44528  0.51044  1.0000
  C   C14       1.0  0.05672  0.50805  0.48577  1.0000
  C   C15       1.0  0.23675  0.45739  0.08070  1.0000
  H   H24       1.0  0.06826  0.48995  0.45507  1.0000
  C   C16       1.0  0.24114  0.50512  0.10200  1.0000
  H   H25       1.0  0.13512  0.47267  0.49677  1.0000
  H   H26       1.0  0.02495  0.26028  0.35510  1.0000
  H   H27       1.0  0.16622  0.28555  0.10797  1.0000
  N   N2        1.0  0.13704  0.44525  0.55639  1.0000
  H   H28       1.0  0.03889  0.14623  0.52093  1.0000
  H   H29       1.0  0.07722  0.45479  0.55744  1.0000
  H   H30       1.0  0.09275  0.38510  0.55815  1.0000
  H   H31       1.0  0.08402  0.27442  0.79368  1.0000
  C   C17       1.0  0.24024  0.29382  0.80401  1.0000
  H   H32       1.0  0.24050  0.51876  0.00224  1.0000
  H   H33       1.0  0.08465  0.20629  0.81339  1.0000
  S   S4        1.0  0.18092  0.27377  0.01481  1.0000
  Fe  Fe2       1.0  0.04164  0.05626  0.83971  1.0000
  Fe  Fe3       1.0  0.20518  0.35838  0.01595  1.0000
  H   H34       1.0  0.06672  0.31089  0.86565  1.0000
  Fe  Fe4       1.0  0.16424  0.30345  0.95990  1.0000
  S   S5        1.0  0.10477  0.33537  0.99740  1.0000
  S   S6        1.0  0.17522  0.25798  0.89917  1.0000
  Fe  Fe5       1.0  0.13619  0.41404  0.99919  1.0000
  H   H35       1.0  0.02391  0.28596  0.90521  1.0000
  S   S7        1.0  0.19429  0.38428  0.95730  1.0000
  C   C18       1.0  0.05436  0.48985  0.05584  1.0000
  H   H36       1.0  0.08254  0.42711  0.60414  1.0000
  H   H37       1.0  0.02450  0.33284  0.82127  1.0000
  S   S8        1.0  0.06985  0.09364  0.77704  1.0000
  C   C19       1.0  0.14101  0.20625  0.90036  1.0000
  C   C20       1.0  0.11233  0.19210  0.93760  1.0000
  C   C21       1.0  0.08488  0.15116  0.93780  1.0000
  C   C22       1.0  0.08580  0.12463  0.90076  1.0000
  C   C23       1.0  0.11460  0.13861  0.86354  1.0000
  C   C24       1.0  0.14220  0.17933  0.86334  1.0000
  H   H38       1.0  0.11138  0.21244  0.96633  1.0000
  C   C25       1.0  0.06542  0.23826  0.80647  1.0000
  H   H39       1.0  0.11590  0.11754  0.83502  1.0000
  H   H40       1.0  0.16441  0.18988  0.83449  1.0000
  C   C26       1.0  0.07241  0.51893  0.01929  1.0000
  H   H41       1.0  0.06272  0.14035  0.96671  1.0000
  C   C27       1.0  0.04799  0.27420  0.87651  1.0000
  H   H42       1.0  0.20332  0.51835  0.97686  1.0000
  C   C28       1.0  0.16053  0.40741  0.57324  1.0000
  S   S9        1.0  0.04997  0.07543  0.90154  1.0000
  H   H43       1.0  0.14946  0.40643  0.60784  1.0000
  S   S10       1.0  0.14917  0.39450  0.05792  1.0000
  Fe  Fe6       1.0  0.12350  0.31198  0.05259  1.0000
  S   S11       1.0  0.11780  0.49751  0.98478  1.0000
  H   H44       1.0  0.12689  0.50337  0.60670  1.0000
  H   H45       1.0  0.05465  0.22167  0.78139  1.0000
  N   N3        1.0  0.03241  0.25281  0.84399  1.0000
  H   H46       1.0  0.21146  0.27334  0.80892  1.0000
  C   C29       1.0  0.09565  0.42714  0.56965  1.0000
  H   H47       1.0  0.06634  0.24287  0.88569  1.0000
  H   H48       1.0  0.02664  0.17011  0.86668  1.0000
  S   S12       1.0  0.26444  0.37457  0.02322  1.0000
  C   C30       1.0  0.26567  0.21602  0.83158  1.0000
  H   H49       1.0  0.18949  0.51262  0.03220  1.0000
  H   H50       1.0  0.19191  0.41983  0.56405  1.0000
  H   H51       1.0  0.23747  0.31808  0.83274  1.0000
  H   H52       1.0  0.24667  0.19845  0.76208  1.0000
  H   H53       1.0  0.23762  0.19321  0.83741  1.0000
  C   C31       1.0  0.13914  0.50133  0.57218  1.0000
  H   H54       1.0  0.16999  0.51619  0.56321  1.0000
  H   H55       1.0  0.24479  0.32309  0.77778  1.0000
  H   H56       1.0  0.26332  0.23902  0.86076  1.0000
  H   H57       1.0  0.15986  0.36477  0.56171  1.0000
  C   C32       1.0  0.26901  0.43502  0.04981  1.0000
  S   S13       1.0  0.08922  0.95134  0.27265  1.0000
  H   H58       1.0  0.08702  0.68057  0.43293  1.0000
  H   H59       1.0  0.19784  0.86093  0.33486  1.0000
  H   H60       1.0  0.14377  0.92355  0.33176  1.0000
  C   C33       1.0  0.14432  0.90760  0.36135  1.0000
  C   C34       1.0  0.17495  0.87232  0.36318  1.0000
  Fe  Fe7       1.0  0.06265  0.98409  0.33757  1.0000
  H   H61       1.0  0.09201  0.64051  0.38736  1.0000
  C   C35       1.0  0.07545  0.55329  0.49654  1.0000
  S   S14       1.0  0.07520  0.96555  0.39751  1.0000
  H   H62       1.0  0.09682  0.76130  0.31818  1.0000
  C   C36       1.0  0.13933  0.72747  0.36618  1.0000
  Fe  Fe8       1.0  0.02717  0.94024  0.27225  1.0000
  H   H63       1.0  0.09654  0.68764  0.32034  1.0000
  Fe  Fe9       1.0  0.21186  0.67482  0.52290  1.0000
  H   H64       1.0  0.07423  0.61217  0.54445  1.0000
  Fe  Fe10      1.0  0.19226  0.74997  0.46026  1.0000
  S   S15       1.0  0.12824  0.73111  0.48542  1.0000
  S   S16       1.0  0.21230  0.80386  0.40333  1.0000
  Fe  Fe11      1.0  0.14722  0.64439  0.48766  1.0000
  S   S17       1.0  0.11918  0.57768  0.46116  1.0000
  S   S18       1.0  0.19901  0.76565  0.52303  1.0000
  S   S19       1.0  0.21122  0.66172  0.45753  1.0000
  N   N4        1.0  0.09602  0.72781  0.37712  1.0000
  C   C37       1.0  0.07999  0.77869  0.40023  1.0000
  H   H65       1.0  0.08856  0.78278  0.42893  1.0000
  C   C38       1.0  0.17541  0.85083  0.40143  1.0000
  C   C39       1.0  0.11572  0.90187  0.43615  1.0000
  C   C40       1.0  0.14580  0.86591  0.43788  1.0000
  H   H66       1.0  0.14623  0.85040  0.46763  1.0000
  S   S20       1.0  0.14897  0.65058  0.55310  1.0000
  C   C41       1.0  0.06036  0.57666  0.53617  1.0000
  H   H67       1.0  0.15262  0.76323  0.34649  1.0000
  H   H68       1.0  0.04734  0.78003  0.40974  1.0000
  H   H69       1.0  0.15249  0.68955  0.34892  1.0000
  H   H70       1.0  0.09298  0.91339  0.46459  1.0000
  Fe  Fe12      1.0  0.13587  0.74003  0.54813  1.0000
  C   C42       1.0  0.11460  0.92242  0.39794  1.0000
  C   C43       1.0  0.08499  0.72551  0.33863  1.0000
  C   C44       1.0  0.07980  0.67970  0.40332  1.0000
  H   H71       1.0  0.09100  0.81571  0.38102  1.0000
  C   C45       1.0  0.25177  0.53479  0.52199  1.0000
  H   H72       1.0  0.14879  0.72952  0.39440  1.0000
  H   H73       1.0  0.23926  0.55255  0.49974  1.0000
  H   H74       1.0  0.26112  0.90599  0.37301  1.0000
  S   S21       1.0  0.25882  0.64077  0.54771  1.0000
  H   H75       1.0  0.05248  0.72608  0.34566  1.0000
  H   H76       1.0  0.04723  0.67800  0.41171  1.0000
  C   C46       1.0  0.26259  0.56878  0.54984  1.0000
  H   H77       1.0  0.19648  0.59200  0.07493  1.0000
  S   S22       1.0  0.02100  0.02413  0.24785  1.0000
  H   H78       1.0  0.27050  0.91334  0.09894  1.0000
  H   H79       1.0  0.12227  0.53092  0.55940  1.0000
  S   S23       1.0  0.12454  0.97130  0.70582  1.0000
  H   H80       1.0  0.06812  0.58854  0.98190  1.0000
  S   S24       1.0  0.08643  0.78586  0.59430  1.0000
  C   C47       1.0  0.09998  0.84097  0.62026  1.0000
  C   C48       1.0  0.13588  0.84097  0.62833  1.0000
  C   C49       1.0  0.14384  0.88221  0.65359  1.0000
  C   C50       1.0  0.11594  0.92338  0.67080  1.0000
  C   C51       1.0  0.08090  0.92462  0.66106  1.0000
  C   C52       1.0  0.07281  0.88330  0.63613  1.0000
  H   H81       1.0  0.15695  0.80830  0.61629  1.0000
  H   H82       1.0  0.05991  0.95724  0.67290  1.0000
  H   H83       1.0  0.05319  0.77040  0.68489  1.0000
  H   H84       1.0  0.17118  0.88137  0.66073  1.0000
  H   H85       1.0  0.14433  0.59020  0.03906  1.0000
  C   C53       1.0  0.16631  0.61056  0.01233  1.0000
  H   H86       1.0  0.05214  0.75912  0.75799  1.0000
  N   N5        1.0  0.20689  0.59360  0.00879  1.0000
  H   H87       1.0  0.16211  0.65564  0.01669  1.0000
  H   H88       1.0  0.22867  0.60648  0.94272  1.0000
  C   C54       1.0  0.21623  0.61146  0.04631  1.0000
  Fe  Fe13      1.0  0.07028  0.00822  0.75184  1.0000
  H   H89       1.0  0.02129  0.83680  0.96166  1.0000
  C   C55       1.0  0.21031  0.53324  0.00482  1.0000
  H   H90       1.0  0.15871  0.59909  0.98396  1.0000
  S   S25       1.0  0.04812  0.97046  0.81521  1.0000
  H   H91       1.0  0.05407  0.85177  0.72952  1.0000
  C   C56       1.0  0.05438  0.56616  0.01029  1.0000
  H   H92       1.0  0.04529  0.88396  0.62937  1.0000
  H   H93       1.0  0.24699  0.60049  0.04416  1.0000
  H   H94       1.0  0.23311  0.66470  0.97365  1.0000
  C   C57       1.0  0.23479  0.61912  0.97166  1.0000
  H   H95       1.0  0.21332  0.65668  0.05076  1.0000
  H   H96       1.0  0.26570  0.60713  0.96819  1.0000
  H   H97       1.0  0.05333  0.89462  0.95787  1.0000
  H   H98       1.0  0.02454  0.91574  0.03227  1.0000
  C   C58       1.0  0.02751  0.55351  0.56554  1.0000
  C   C59       1.0  0.02135  0.85156  0.73933  1.0000
  C   C60       1.0  0.02384  0.88206  0.95695  1.0000
  H   H99       1.0  0.02508  0.79543  0.87940  1.0000
  H   H100      1.0  0.02411  0.98760  0.97951  1.0000
  H   H101      1.0  0.02290  0.89067  0.92504  1.0000
  H   H102      1.0  0.50335  0.16152  0.43958  1.0000
  Fe  Fe14      1.0  0.41724  0.30456  0.53366  1.0000
  C   C61       1.0  0.27564  0.45462  0.54997  1.0000
  C   C62       1.0  0.48193  0.51708  0.11007  1.0000
  N   N6        1.0  0.46724  0.18274  0.31765  1.0000
  S   S26       1.0  0.40407  0.03572  0.41971  1.0000
  H   H103      1.0  0.43173  0.10175  0.53306  1.0000
  H   H104      1.0  0.44995  0.04875  0.55888  1.0000
  H   H105      1.0  0.47201  0.25937  0.34727  1.0000
  H   H106      1.0  0.36129  0.12513  0.46934  1.0000
  S   S27       1.0  0.28248  0.38298  0.55075  1.0000
  C   C63       1.0  0.44050  0.13524  0.32513  1.0000
  H   H107      1.0  0.46085  0.49910  0.13712  1.0000
  C   C64       1.0  0.42006  0.09451  0.44006  1.0000
  H   H108      1.0  0.44944  0.20532  0.38233  1.0000
  H   H109      1.0  0.51852  0.13212  0.29233  1.0000
  S   S28       1.0  0.39362  0.38642  0.52324  1.0000
  H   H110      1.0  0.48168  0.07490  0.41557  1.0000
  S   S29       1.0  0.46103  0.25437  0.48384  1.0000
  H   H111      1.0  0.50639  0.14616  0.34695  1.0000
  H   H112      1.0  0.45057  0.10423  0.29974  1.0000
  C   C65       1.0  0.40453  0.18162  0.47734  1.0000
  C   C66       1.0  0.44459  0.19243  0.46849  1.0000
  C   C67       1.0  0.47230  0.15366  0.44620  1.0000
  C   C68       1.0  0.46008  0.10474  0.43224  1.0000
  C   C69       1.0  0.39232  0.13275  0.46316  1.0000
  H   H113      1.0  0.38290  0.21149  0.49407  1.0000
  H   H114      1.0  0.49047  0.24281  0.26983  1.0000
  C   C70       1.0  0.46950  0.20794  0.27734  1.0000
  H   H115      1.0  0.42247  0.23880  0.35294  1.0000
  H   H116      1.0  0.41007  0.14769  0.32722  1.0000
  H   H117      1.0  0.51056  0.14866  0.17024  1.0000
  H   H118      1.0  0.44033  0.22352  0.27726  1.0000
  H   H119      1.0  0.43903  0.11417  0.35459  1.0000
  C   C71       1.0  0.45215  0.22343  0.35146  1.0000
  H   H120      1.0  0.47967  0.17764  0.25150  1.0000
  C   C72       1.0  0.45157  0.09340  0.55191  1.0000
  H   H121      1.0  0.48204  0.10238  0.53172  1.0000
  H   H122      1.0  0.49842  0.47835  0.50328  1.0000
  C   C73       1.0  0.50683  0.16415  0.31664  1.0000
  S   S30       1.0  0.50487  0.05812  0.22471  1.0000
  H   H123      1.0  0.47454  0.19630  0.56016  1.0000
  Fe  Fe15      1.0  0.37697  0.30742  0.62650  1.0000
  S   S31       1.0  0.36556  0.25169  0.68285  1.0000
  H   H124      1.0  0.49353  0.35693  0.86306  1.0000
  C   C74       1.0  0.44406  0.18557  0.57935  1.0000
  S   S32       1.0  0.34844  0.38978  0.62519  1.0000
  C   C75       1.0  0.40455  0.22858  0.70013  1.0000
  C   C76       1.0  0.44165  0.25277  0.68630  1.0000
  H   H125      1.0  0.46187  0.28142  0.91153  1.0000
  S   S33       1.0  0.50418  0.16863  0.74752  1.0000
  H   H126      1.0  0.29892  0.19077  0.75046  1.0000
  C   C77       1.0  0.39948  0.11513  0.61539  1.0000
  H   H127      1.0  0.47652  0.21165  0.89757  1.0000
  C   C78       1.0  0.42840  0.16598  0.74320  1.0000
  C   C79       1.0  0.51040  0.49871  0.63130  1.0000
  C   C80       1.0  0.31019  0.28240  0.78904  1.0000
  C   C81       1.0  0.47193  0.23375  0.70095  1.0000
  C   C82       1.0  0.39809  0.18499  0.72852  1.0000
  N   N7        1.0  0.50280  0.27074  0.84985  1.0000
  S   S34       1.0  0.42539  0.50211  0.57636  1.0000
  H   H128      1.0  0.47313  0.43913  0.61531  1.0000
  Fe  Fe16      1.0  0.40687  0.41371  0.58043  1.0000
  H   H129      1.0  0.39555  0.07112  0.62422  1.0000
  C   C83       1.0  0.47988  0.48217  0.61632  1.0000
  H   H130      1.0  0.45991  0.22450  0.83174  1.0000
  H   H131      1.0  0.44695  0.28668  0.66479  1.0000
  N   N8        1.0  0.44056  0.12689  0.59040  1.0000
  H   H132      1.0  0.46516  0.06985  0.62390  1.0000
  S   S35       1.0  0.50661  0.11909  0.93926  1.0000
  C   C84       1.0  0.47143  0.26699  0.83027  1.0000
  H   H133      1.0  0.37875  0.12522  0.59791  1.0000
  Fe  Fe17      1.0  0.49643  0.09909  0.79366  1.0000
  C   C85       1.0  0.46543  0.19044  0.72950  1.0000
  H   H134      1.0  0.44624  0.29458  0.84580  1.0000
  H   H135      1.0  0.45940  0.13857  0.64417  1.0000
  H   H136      1.0  0.43583  0.21214  0.60756  1.0000
  H   H137      1.0  0.36963  0.16561  0.73917  1.0000
  H   H138      1.0  0.31671  0.31025  0.76170  1.0000
  S   S36       1.0  0.43685  0.33449  0.58672  1.0000
  C   C86       1.0  0.45920  0.52137  0.60137  1.0000
  C   C87       1.0  0.30560  0.46081  0.04027  1.0000
  H   H139      1.0  0.50910  0.18929  0.00562  1.0000
  H   H140      1.0  0.49819  0.12267  0.59707  1.0000
  C   C88       1.0  0.27444  0.22122  0.75804  1.0000
  S   S37       1.0  0.45404  0.10768  0.85806  1.0000
  H   H141      1.0  0.30964  0.30751  0.81671  1.0000
  H   H142      1.0  0.27961  0.24816  0.73033  1.0000
  H   H143      1.0  0.42312  0.13245  0.76512  1.0000
  H   H144      1.0  0.33077  0.44346  0.01666  1.0000
  Fe  Fe18      1.0  0.33639  0.35920  0.56798  1.0000
  Fe  Fe19      1.0  0.50424  0.07999  0.87940  1.0000
  H   H145      1.0  0.28975  0.18525  0.82661  1.0000
  H   H146      1.0  0.50052  0.25293  0.69025  1.0000
  H   H147      1.0  0.33531  0.25315  0.78285  1.0000
  H   H148      1.0  0.29932  0.47125  0.59969  1.0000
  H   H149      1.0  0.39024  0.13988  0.64461  1.0000
  C   C89       1.0  0.46698  0.11386  0.61494  1.0000
  C   C90       1.0  0.48703  0.25484  0.89411  1.0000
  H   H150      1.0  0.48252  0.27805  0.79667  1.0000
  S   S38       1.0  0.35867  0.27394  0.57347  1.0000
  H   H151      1.0  0.50984  0.25788  0.90993  1.0000
  N   N9        1.0  0.27264  0.25334  0.79567  1.0000
  C   C91       1.0  0.28638  0.48868  0.57775  1.0000
  H   H152      1.0  0.42444  0.19667  0.56094  1.0000
  C   C92       1.0  0.51742  0.32762  0.84689  1.0000
  C   C93       1.0  0.30976  0.50944  0.06081  1.0000
  H   H153      1.0  0.43944  0.57121  0.09723  1.0000
  S   S39       1.0  0.51123  0.01945  0.33815  1.0000
  S   S40       1.0  0.37449  0.83147  0.13616  1.0000
  H   H154      1.0  0.27071  0.88623  0.41964  1.0000
  S   S41       1.0  0.38186  0.66796  0.11394  1.0000
  Fe  Fe20      1.0  0.46130  0.89104  0.30990  1.0000
  S   S42       1.0  0.43144  0.81608  0.29473  1.0000
  S   S43       1.0  0.46690  0.90221  0.37372  1.0000
  C   C94       1.0  0.39174  0.82552  0.17918  1.0000
  C   C95       1.0  0.40929  0.87096  0.19141  1.0000
  C   C96       1.0  0.42250  0.86794  0.22620  1.0000
  C   C97       1.0  0.41740  0.81976  0.24950  1.0000
  C   C98       1.0  0.39990  0.77422  0.23727  1.0000
  C   C99       1.0  0.38730  0.77695  0.20202  1.0000
  C   C100      1.0  0.27752  0.53168  0.09175  1.0000
  S   S44       1.0  0.43800  0.97588  0.30853  1.0000
  H   H155      1.0  0.39568  0.73693  0.25536  1.0000
  H   H156      1.0  0.37320  0.74201  0.19317  1.0000
  H   H157      1.0  0.31164  0.99647  0.08269  1.0000
  H   H158      1.0  0.34047  0.95928  0.33030  1.0000
  H   H159      1.0  0.34467  0.80739  0.33718  1.0000
  H   H160      1.0  0.43620  0.90316  0.23520  1.0000
  C   C101      1.0  0.34997  0.88993  0.38799  1.0000
  C   C102      1.0  0.33639  0.91497  0.32502  1.0000
  H   H161      1.0  0.30487  0.80275  0.38540  1.0000
  S   S45       1.0  0.28117  0.59352  0.11714  1.0000
  C   C103      1.0  0.37412  0.57376  0.50181  1.0000
  H   H162      1.0  0.44423  0.62376  0.47134  1.0000
  C   C104      1.0  0.31638  0.82659  0.35610  1.0000
  H   H163      1.0  0.29495  0.82144  0.33871  1.0000
  N   N10       1.0  0.50436  0.70616  0.14062  1.0000
  H   H164      1.0  0.35508  0.93361  0.39452  1.0000
  H   H165      1.0  0.41278  0.90867  0.17388  1.0000
  S   S46       1.0  0.31950  0.73546  0.07879  1.0000
  C   C105      1.0  0.46980  0.55794  0.08757  1.0000
  H   H166      1.0  0.44359  0.68465  0.16819  1.0000
  H   H167      1.0  0.52035  0.76476  0.09085  1.0000
  C   C106      1.0  0.42887  0.62862  0.50528  1.0000
  H   H168      1.0  0.37901  0.87184  0.37011  1.0000
  H   H169      1.0  0.30902  0.87587  0.11057  1.0000
  H   H170      1.0  0.38920  0.56550  0.46823  1.0000
  Fe  Fe21      1.0  0.37152  0.75523  0.09931  1.0000
  N   N11       1.0  0.32149  0.88505  0.36475  1.0000
  Fe  Fe22      1.0  0.33353  0.64732  0.08714  1.0000
  H   H171      1.0  0.38121  0.71275  0.50155  1.0000
  H   H172      1.0  0.38117  0.53927  0.51983  1.0000
  H   H173      1.0  0.46397  0.66900  0.11378  1.0000
  H   H174      1.0  0.34056  0.67181  0.49906  1.0000
  C   C107      1.0  0.37310  0.67178  0.49233  1.0000
  H   H175      1.0  0.31592  0.91155  0.30636  1.0000
  H   H176      1.0  0.33950  0.86831  0.41835  1.0000
  H   H177      1.0  0.52012  0.62134  0.12691  1.0000
  C   C108      1.0  0.33771  0.96927  0.06980  1.0000
  Fe  Fe23      1.0  0.44992  0.98992  0.36873  1.0000
  H   H178      1.0  0.36536  0.89832  0.30562  1.0000
  H   H179      1.0  0.34199  0.57235  0.50678  1.0000
  H   H180      1.0  0.43865  0.66811  0.51525  1.0000
  H   H181      1.0  0.43918  0.59509  0.52156  1.0000
  N   N12       1.0  0.38571  0.62723  0.51487  1.0000
  H   H182      1.0  0.28842  0.84995  0.07245  1.0000
  H   H183      1.0  0.45237  0.73856  0.13025  1.0000
  H   H184      1.0  0.48423  0.73400  0.20431  1.0000
  H   H185      1.0  0.49198  0.78750  0.16654  1.0000
  H   H186      1.0  0.38672  0.66738  0.45805  1.0000
  H   H187      1.0  0.28597  0.95255  0.39746  1.0000
  C   C109      1.0  0.29744  0.88814  0.08496  1.0000
  H   H188      1.0  0.34989  0.95994  0.09555  1.0000
  C   C110      1.0  0.46429  0.69933  0.13821  1.0000
  H   H189      1.0  0.51427  0.57117  0.52204  1.0000
  C   C111      1.0  0.51884  0.65302  0.15109  1.0000
  C   C112      1.0  0.28324  0.90867  0.38979  1.0000
  C   C113      1.0  0.50355  0.74723  0.17311  1.0000
  Fe  Fe24      1.0  0.50101  0.99948  0.27774  1.0000
  H   H190      1.0  0.49933  0.63693  0.18123  1.0000
  C   C114      1.0  0.36665  0.63476  0.56012  1.0000
  Fe  Fe25      1.0  0.44243  0.01822  0.85279  1.0000
  C   C115      1.0  0.47694  0.83611  0.83197  1.0000
  S   S47       1.0  0.37345  0.63652  0.02161  1.0000
  H   H191      1.0  0.46931  0.83694  0.73444  1.0000
  S   S48       1.0  0.41355  0.75347  0.03427  1.0000
  Fe  Fe26      1.0  0.36257  0.72610  0.01483  1.0000
  S   S49       1.0  0.34212  0.75415  0.96171  1.0000
  N   N13       1.0  0.45853  0.82263  0.79983  1.0000
  S   S50       1.0  0.48894  0.99094  0.87915  1.0000
  Fe  Fe27      1.0  0.42083  0.66457  0.04730  1.0000
  H   H192      1.0  0.33412  0.63704  0.56804  1.0000
  S   S51       1.0  0.38105  0.98477  0.87362  1.0000
  C   C116      1.0  0.35445  0.81873  0.93856  1.0000
  C   C117      1.0  0.32802  0.84387  0.92147  1.0000
  C   C118      1.0  0.33631  0.89530  0.90266  1.0000
  C   C119      1.0  0.37160  0.92160  0.89972  1.0000
  C   C120      1.0  0.39844  0.89640  0.91648  1.0000
  C   C121      1.0  0.38982  0.84491  0.93600  1.0000
  H   H193      1.0  0.30078  0.82367  0.92306  1.0000
  H   H194      1.0  0.31550  0.91439  0.88968  1.0000
  H   H195      1.0  0.42570  0.91646  0.91451  1.0000
  H   H196      1.0  0.41062  0.82525  0.94868  1.0000
  H   H197      1.0  0.38536  0.90467  0.00963  1.0000
  H   H198      1.0  0.50609  0.63636  0.61727  1.0000
  C   C122      1.0  0.46784  0.57707  0.60303  1.0000
  C   C123      1.0  0.49707  0.58148  0.05277  1.0000
  S   S52       1.0  0.48375  0.63546  0.02563  1.0000
  H   H199      1.0  0.40444  0.83961  0.78725  1.0000
  N   N14       1.0  0.32722  0.91841  0.05207  1.0000
  C   C124      1.0  0.48316  0.84374  0.75913  1.0000
  H   H200      1.0  0.36034  0.99290  0.04582  1.0000
  C   C125      1.0  0.49873  0.59345  0.61726  1.0000
  H   H201      1.0  0.48421  0.74191  0.78926  1.0000
  S   S53       1.0  0.48007  0.01174  0.78591  1.0000
  C   C126      1.0  0.45493  0.76246  0.79729  1.0000
  H   H202      1.0  0.44145  0.75072  0.77308  1.0000
  H   H203      1.0  0.39961  0.83251  0.84130  1.0000
  H   H204      1.0  0.48861  0.88852  0.76064  1.0000
  H   H205      1.0  0.42072  0.89359  0.81391  1.0000
  C   C127      1.0  0.41910  0.84819  0.81101  1.0000
  H   H206      1.0  0.37367  0.60018  0.57810  1.0000
  H   H207      1.0  0.28440  0.95838  0.02941  1.0000
  H   H208      1.0  0.37619  0.67338  0.57150  1.0000
  H   H209      1.0  0.33304  0.95453  0.99247  1.0000
  H   H210      1.0  0.45161  0.60757  0.59196  1.0000
  H   H211      1.0  0.50734  0.81911  0.82384  1.0000
  H   H212      1.0  0.43629  0.74527  0.82751  1.0000
  H   H213      1.0  0.45973  0.81962  0.86293  1.0000
  H   H214      1.0  0.28728  0.57109  0.60018  1.0000
  H   H215      1.0  0.47925  0.88126  0.83547  1.0000
  H   H216      1.0  0.51235  0.82310  0.74876  1.0000
  H   H217      1.0  0.35554  0.84412  0.02335  1.0000
  C   C128      1.0  0.36269  0.88387  0.03539  1.0000
  H   H218      1.0  0.30301  0.89447  0.00416  1.0000
  C   C129      1.0  0.31118  0.93215  0.01810  1.0000
  C   C130      1.0  0.27953  0.54540  0.57795  1.0000
  H   H219      1.0  0.33807  0.52915  0.05312  1.0000
  H   H220      1.0  0.37648  0.87427  0.05968  1.0000
  C   C131      1.0  0.52050  0.55423  0.63069  1.0000
  S   S54       1.0  0.63852  0.38753  0.12187  1.0000
  Fe  Fe28      1.0  0.63317  0.29861  0.10664  1.0000
  S   S55       1.0  0.64061  0.22979  0.14837  1.0000
  H   H221      1.0  0.62503  0.19040  0.07410  1.0000
  C   C132      1.0  0.53764  0.14677  0.17788  1.0000
  Fe  Fe29      1.0  0.59029  0.39991  0.09327  1.0000
  C   C133      1.0  0.60215  0.18356  0.17076  1.0000
  C   C134      1.0  0.56687  0.18610  0.16155  1.0000
  C   C135      1.0  0.54823  0.52217  0.06239  1.0000
  C   C136      1.0  0.59726  0.49725  0.47681  1.0000
  C   C137      1.0  0.57794  0.10345  0.21431  1.0000
  C   C138      1.0  0.60756  0.14219  0.19723  1.0000
  H   H222      1.0  0.56216  0.21812  0.14168  1.0000
  C   C139      1.0  0.52978  0.46669  0.49750  1.0000
  H   H223      1.0  0.58237  0.07167  0.23466  1.0000
  H   H224      1.0  0.63486  0.13998  0.20443  1.0000
  H   H225      1.0  0.60656  0.46424  0.45293  1.0000
  H   H226      1.0  0.60359  0.04150  0.07557  1.0000
  C   C140      1.0  0.59970  0.08649  0.08091  1.0000
  C   C141      1.0  0.54299  0.10550  0.20441  1.0000
  S   S56       1.0  0.58239  0.31027  0.08219  1.0000
  H   H227      1.0  0.56762  0.09483  0.09460  1.0000
  H   H228      1.0  0.53706  0.43304  0.47401  1.0000
  S   S57       1.0  0.53573  0.44856  0.12658  1.0000
  H   H229      1.0  0.53184  0.44977  0.52727  1.0000
  H   H230      1.0  0.52822  0.19847  0.30966  1.0000
  N   N15       1.0  0.55608  0.51423  0.48360  1.0000
  H   H231      1.0  0.56050  0.50503  0.41910  1.0000
  H   H232      1.0  0.69812  0.51324  0.09252  1.0000
  H   H233      1.0  0.60140  0.48174  0.50607  1.0000
  C   C142      1.0  0.74773  0.47770  0.55599  1.0000
  H   H234      1.0  0.57915  0.18738  0.06335  1.0000
  H   H235      1.0  0.61358  0.09780  0.10495  1.0000
  C   C143      1.0  0.52110  0.49883  0.09734  1.0000
  H   H236      1.0  0.52723  0.46835  0.64178  1.0000
  H   H237      1.0  0.70473  0.36939  0.96931  1.0000
  H   H238      1.0  0.56552  0.10976  0.02271  1.0000
  C   C144      1.0  0.65957  0.10577  0.02533  1.0000
  C   C145      1.0  0.72390  0.46845  0.93548  1.0000
  C   C146      1.0  0.54203  0.16702  0.94255  1.0000
  H   H239      1.0  0.54742  0.24310  0.79424  1.0000
  S   S58       1.0  0.73999  0.43322  0.02933  1.0000
  Fe  Fe30      1.0  0.62793  0.32414  0.02011  1.0000
  C   C147      1.0  0.59774  0.10144  0.01105  1.0000
  S   S59       1.0  0.63359  0.28952  0.95632  1.0000
  H   H240      1.0  0.72671  0.32979  0.92330  1.0000
  H   H241      1.0  0.68191  0.37248  0.89013  1.0000
  S   S60       1.0  0.63143  0.41499  0.02886  1.0000
  H   H242      1.0  0.67347  0.12876  0.99602  1.0000
  Fe  Fe31      1.0  0.67934  0.39552  0.05630  1.0000
  C   C148      1.0  0.68410  0.41164  0.90626  1.0000
  S   S61       1.0  0.54813  0.07673  0.81516  1.0000
  C   C149      1.0  0.59765  0.24348  0.95119  1.0000
  C   C150      1.0  0.56328  0.23437  0.98419  1.0000
  H   H243      1.0  0.55999  0.23564  0.84144  1.0000
  C   C151      1.0  0.53544  0.23344  0.82803  1.0000
  C   C152      1.0  0.57615  0.17654  0.90928  1.0000
  C   C153      1.0  0.60388  0.21478  0.91361  1.0000
  H   H244      1.0  0.55784  0.25694  0.01299  1.0000
  S   S62       1.0  0.67821  0.30517  0.04365  1.0000
  H   H245      1.0  0.58145  0.15383  0.88052  1.0000
  H   H246      1.0  0.63051  0.22155  0.88798  1.0000
  H   H247      1.0  0.75111  0.45066  0.85287  1.0000
  C   C154      1.0  0.75431  0.41597  0.87287  1.0000
  H   H248      1.0  0.75664  0.37217  0.94501  1.0000
  C   C155      1.0  0.72807  0.36983  0.93864  1.0000
  H   H249      1.0  0.62389  0.20165  0.02224  1.0000
  H   H250      1.0  0.75419  0.37723  0.85542  1.0000
  H   H251      1.0  0.70049  0.47010  0.96628  1.0000
  H   H252      1.0  0.67882  0.44607  0.88719  1.0000
  C   C156      1.0  0.75299  0.49803  0.04434  1.0000
  N   N16       1.0  0.72259  0.41652  0.91330  1.0000
  H   H253      1.0  0.65951  0.41168  0.93618  1.0000
  H   H254      1.0  0.71989  0.50474  0.91739  1.0000
  H   H255      1.0  0.60979  0.12465  0.98148  1.0000
  H   H256      1.0  0.57859  0.50915  0.05288  1.0000
  C   C157      1.0  0.53565  0.19617  0.97989  1.0000
  C   C158      1.0  0.61096  0.17682  0.05080  1.0000
  H   H257      1.0  0.60183  0.05699  0.00334  1.0000
  H   H258      1.0  0.75237  0.47310  0.94182  1.0000
  H   H259      1.0  0.54117  0.33178  0.86138  1.0000
  H   H260      1.0  0.66537  0.06133  0.01841  1.0000
  N   N17       1.0  0.61697  0.11754  0.04201  1.0000
  H   H261      1.0  0.67487  0.11794  0.04796  1.0000
  H   H262      1.0  0.52543  0.19021  0.83029  1.0000
  H   H263      1.0  0.52964  0.34083  0.81386  1.0000
  H   H264      1.0  0.72726  0.44393  0.56320  1.0000
  C   C159      1.0  0.54511  0.55724  0.51595  1.0000
  H   H265      1.0  0.53339  0.75416  0.17555  1.0000
  C   C160      1.0  0.73440  0.53048  0.54993  1.0000
  C   C161      1.0  0.60314  0.79567  0.43927  1.0000
  H   H266      1.0  0.71915  0.60286  0.11336  1.0000
  H   H267      1.0  0.53931  0.71956  0.40664  1.0000
  C   C162      1.0  0.60184  0.84424  0.41734  1.0000
  C   C163      1.0  0.58086  0.75030  0.43530  1.0000
  H   H268      1.0  0.53597  0.80616  0.36924  1.0000
  H   H269      1.0  0.62202  0.79307  0.45853  1.0000
  C   C164      1.0  0.53056  0.72493  0.09985  1.0000
  C   C165      1.0  0.55452  0.80352  0.38888  1.0000
  H   H270      1.0  0.70387  0.53709  0.55257  1.0000
  S   S63       1.0  0.57824  0.90948  0.36356  1.0000
  S   S64       1.0  0.66208  0.73633  0.51708  1.0000
  H   H271      1.0  0.56396  0.59391  0.50673  1.0000
  C   C166      1.0  0.55651  0.75445  0.41006  1.0000
  C   C167      1.0  0.57758  0.84845  0.39205  1.0000
  C   C168      1.0  0.73919  0.57941  0.08831  1.0000
  H   H272      1.0  0.61979  0.87872  0.41992  1.0000
  Fe  Fe32      1.0  0.61065  0.68775  0.51284  1.0000
  S   S65       1.0  0.74542  0.64087  0.53052  1.0000
  S   S66       1.0  0.58378  0.68741  0.46035  1.0000
  Fe  Fe33      1.0  0.52793  0.93015  0.33920  1.0000
  H   H273      1.0  0.75754  0.77608  0.53909  1.0000
  S   S67       1.0  0.63272  0.60957  0.53368  1.0000
  H   H274      1.0  0.56123  0.73026  0.10023  1.0000
  H   H275      1.0  0.54844  0.54242  0.54565  1.0000
  C   C169      1.0  0.76067  0.57434  0.54006  1.0000
  H   H276      1.0  0.53136  0.69483  0.07469  1.0000
  Fe  Fe34      1.0  0.68056  0.66062  0.54434  1.0000
  H   H277      1.0  0.54896  0.65662  0.15351  1.0000
  H   H278      1.0  0.57133  0.57267  0.43367  1.0000
  S   S68       1.0  0.52383  0.91278  0.27515  1.0000
  C   C170      1.0  0.72720  0.52868  0.07653  1.0000
  H   H279      1.0  0.61771  0.53240  0.46607  1.0000
  C   C171      1.0  0.55215  0.53619  0.44447  1.0000
  H   H280      1.0  0.52147  0.54965  0.44862  1.0000
  S   S69       1.0  0.64642  0.68246  0.61029  1.0000
  C   C172      1.0  0.75388  0.72933  0.61204  1.0000
  S   S70       1.0  0.62507  0.84239  0.60378  1.0000
  Fe  Fe35      1.0  0.59705  0.63705  0.59788  1.0000
  C   C173      1.0  0.60565  0.86008  0.65682  1.0000
  C   C174      1.0  0.59452  0.91467  0.66784  1.0000
  S   S71       1.0  0.57163  0.71136  0.57670  1.0000
  S   S72       1.0  0.56265  0.57365  0.64258  1.0000
  C   C175      1.0  0.60315  0.82159  0.68806  1.0000
  H   H281      1.0  0.57211  0.97293  0.71808  1.0000
  Fe  Fe36      1.0  0.52798  0.98983  0.81261  1.0000
  H   H282      1.0  0.61133  0.77932  0.67991  1.0000
  C   C176      1.0  0.57956  0.89274  0.74098  1.0000
  C   C177      1.0  0.59103  0.83822  0.72999  1.0000
  H   H283      1.0  0.72967  0.69984  0.61428  1.0000
  H   H284      1.0  0.70800  0.75984  0.56768  1.0000
  H   H285      1.0  0.71378  0.80184  0.67087  1.0000
  S   S73       1.0  0.56331  0.91169  0.79387  1.0000
  H   H286      1.0  0.69731  0.84479  0.63643  1.0000
  N   N18       1.0  0.74220  0.78602  0.60557  1.0000
  C   C178      1.0  0.73222  0.78839  0.56652  1.0000
  H   H287      1.0  0.59655  0.94464  0.64376  1.0000
  C   C179      1.0  0.58079  0.93079  0.70986  1.0000
  H   H288      1.0  0.59001  0.80861  0.75403  1.0000
  Fe  Fe37      1.0  0.62468  0.75454  0.58282  1.0000
  C   C180      1.0  0.70752  0.80264  0.64075  1.0000
  H   H289      1.0  0.55747  0.58196  0.01352  1.0000
  H   H290      1.0  0.76189  0.72574  0.64107  1.0000
  H   H291      1.0  0.76707  0.86672  0.59774  1.0000
  H   H292      1.0  0.68228  0.77493  0.64366  1.0000
  C   C181      1.0  0.53626  0.56359  0.04029  1.0000
  H   H293      1.0  0.72215  0.83010  0.56094  1.0000
  H   H294      1.0  0.93526  0.12408  0.52685  1.0000
  C   C182      1.0  0.95480  0.16240  0.36754  1.0000
  C   C183      1.0  0.95291  0.14678  0.49871  1.0000
  C   C184      1.0  0.81856  0.46711  0.11782  1.0000
  H   H295      1.0  0.90382  0.37044  0.43986  1.0000
  S   S74       1.0  0.94571  0.10002  0.34619  1.0000
  H   H296      1.0  0.98810  0.05197  0.50776  1.0000
  S   S75       1.0  0.88960  0.29578  0.52761  1.0000
  Fe  Fe38      1.0  0.00052  0.05076  0.31491  1.0000
  S   S76       1.0  0.80307  0.40051  0.55810  1.0000
  C   C185      1.0  0.78726  0.46834  0.55285  1.0000
  H   H297      1.0  0.85275  0.42645  0.36880  1.0000
  C   C186      1.0  0.00425  0.07785  0.48084  1.0000
  C   C187      1.0  0.01761  0.16932  0.45319  1.0000
  H   H298      1.0  0.85716  0.46572  0.17454  1.0000
  H   H299      1.0  0.83833  0.34130  0.48255  1.0000
  Fe  Fe39      1.0  0.86581  0.37823  0.55441  1.0000
  H   H300      1.0  0.85545  0.44029  0.47689  1.0000
  H   H301      1.0  0.88286  0.42351  0.13052  1.0000
  H   H302      1.0  0.82426  0.42471  0.10505  1.0000
  H   H303      1.0  0.91079  0.40615  0.39207  1.0000
  H   H304      1.0  0.81332  0.45486  0.46129  1.0000
  S   S77       1.0  0.91851  0.42397  0.51498  1.0000
  C   C188      1.0  0.99048  0.18969  0.35071  1.0000
  Fe  Fe40      1.0  0.94395  0.34085  0.49255  1.0000
  S   S78       1.0  0.97912  0.32221  0.42585  1.0000
  H   H305      1.0  0.00975  0.15736  0.42509  1.0000
  H   H306      1.0  0.89815  0.16430  0.41487  1.0000
  H   H307      1.0  0.80455  0.40556  0.40032  1.0000
  C   C189      1.0  0.87560  0.46656  0.14127  1.0000
  C   C190      1.0  0.00926  0.50754  0.55512  1.0000
  C   C191      1.0  0.96896  0.26108  0.40357  1.0000
  H   H308      1.0  0.83064  0.30618  0.43932  1.0000
  C   C192      1.0  0.93315  0.23396  0.42023  1.0000
  C   C193      1.0  0.89252  0.37460  0.41300  1.0000
  H   H309      1.0  0.91080  0.25084  0.44679  1.0000
  H   H310      1.0  0.01257  0.17313  0.32358  1.0000
  H   H311      1.0  0.80213  0.48918  0.09978  1.0000
  N   N19       1.0  0.85037  0.38956  0.42703  1.0000
  H   H312      1.0  0.00957  0.44972  0.50679  1.0000
  H   H313      1.0  0.79860  0.46451  0.15043  1.0000
  H   H314      1.0  0.94292  0.13402  0.47215  1.0000
  C   C194      1.0  0.92593  0.18507  0.40196  1.0000
  N   N20       1.0  0.99547  0.13679  0.48976  1.0000
  C   C195      1.0  0.99735  0.23922  0.36842  1.0000
  C   C196      1.0  0.82781  0.34667  0.45523  1.0000
  H   H315      1.0  0.94548  0.19105  0.50494  1.0000
  H   H316      1.0  0.99594  0.06404  0.45337  1.0000
  C   C197      1.0  0.84489  0.44259  0.44941  1.0000
  S   S79       1.0  0.97308  0.33069  0.54161  1.0000
  H   H317      1.0  0.79603  0.35752  0.46791  1.0000
  N   N21       1.0  0.85547  0.49566  0.11550  1.0000
  H   H318      1.0  0.89803  0.33474  0.39597  1.0000
  H   H319      1.0  0.00065  0.19763  0.53382  1.0000
  C   C198      1.0  0.83631  0.39434  0.39064  1.0000
  H   H320      1.0  0.86133  0.47615  0.42925  1.0000
  H   H321      1.0  0.84016  0.35500  0.37300  1.0000
  H   H322      1.0  0.90377  0.48702  0.13976  1.0000
  H   H323      1.0  0.00477  0.48631  0.11203  1.0000
  H   H324      1.0  0.84387  0.50593  0.54143  1.0000
  C   C199      1.0  0.81342  0.51241  0.54366  1.0000
  H   H325      1.0  0.01132  0.21403  0.45849  1.0000
  C   C200      1.0  0.00702  0.15335  0.52627  1.0000
  H   H326      1.0  0.99038  0.13014  0.55462  1.0000
  H   H327      1.0  0.90954  0.51820  0.06899  1.0000
  C   C201      1.0  0.88148  0.49668  0.07184  1.0000
  H   H328      1.0  0.91688  0.04086  0.28385  1.0000
  H   H329      1.0  0.86448  0.04615  0.29598  1.0000
  C   C202      1.0  0.01850  0.50853  0.08359  1.0000
  H   H330      1.0  0.99544  0.18727  0.83640  1.0000
  H   H331      1.0  0.86736  0.51846  0.05147  1.0000
  S   S80       1.0  0.92135  0.20556  0.60388  1.0000
  S   S81       1.0  0.98041  0.06718  0.83731  1.0000
  H   H332      1.0  0.98206  0.30648  0.86062  1.0000
  S   S82       1.0  0.88774  0.36809  0.60939  1.0000
  C   C203      1.0  0.94167  0.19938  0.64486  1.0000
  C   C204      1.0  0.95118  0.24570  0.66406  1.0000
  C   C205      1.0  0.94824  0.14701  0.65857  1.0000
  H   H333      1.0  0.78373  0.41949  0.87718  1.0000
  H   H334      1.0  0.96863  0.10042  0.70203  1.0000
  H   H335      1.0  0.94618  0.28622  0.65375  1.0000
  C   C206      1.0  0.97294  0.18724  0.71111  1.0000
  H   H336      1.0  0.97337  0.27563  0.71224  1.0000
  C   C207      1.0  0.96657  0.23960  0.69721  1.0000
  Fe  Fe41      1.0  0.00873  0.09840  0.77241  1.0000
  C   C208      1.0  0.96398  0.14091  0.69148  1.0000
  S   S83       1.0  0.97071  0.47607  0.59344  1.0000
  H   H337      1.0  0.99561  0.27973  0.80850  1.0000
  H   H338      1.0  0.94085  0.11102  0.64395  1.0000
  S   S84       1.0  0.99146  0.18152  0.75351  1.0000
  H   H339      1.0  0.98407  0.21234  0.88872  1.0000
  Fe  Fe42      1.0  0.91704  0.29031  0.57856  1.0000
  H   H340      1.0  0.81070  0.49540  0.99872  1.0000
  C   C209      1.0  0.00756  0.29496  0.83318  1.0000
  C   C210      1.0  0.79064  0.51870  0.02383  1.0000
  C   C211      1.0  0.00858  0.20355  0.85968  1.0000
  Fe  Fe43      1.0  0.94211  0.40902  0.56798  1.0000
  H   H341      1.0  0.88916  0.45459  0.05908  1.0000
  S   S85       1.0  0.79140  0.66271  0.08495  1.0000
  Fe  Fe44      1.0  0.90983  0.77167  0.09114  1.0000
  S   S86       1.0  0.91872  0.85439  0.11713  1.0000
  H   H342      1.0  0.94888  0.94998  0.27703  1.0000
  S   S87       1.0  0.87872  0.69702  0.12403  1.0000
  H   H343      1.0  0.99504  0.94354  0.19602  1.0000
  C   C212      1.0  0.84948  0.93859  0.31174  1.0000
  S   S88       1.0  0.00112  0.96562  0.33903  1.0000
  C   C213      1.0  0.94624  0.85448  0.15201  1.0000
  C   C214      1.0  0.96256  0.90369  0.16027  1.0000
  C   C215      1.0  0.98257  0.90547  0.18989  1.0000
  C   C216      1.0  0.98596  0.85815  0.21178  1.0000
  C   C217      1.0  0.97035  0.80874  0.20284  1.0000
  C   C218      1.0  0.95075  0.80679  0.17288  1.0000
  H   H344      1.0  0.95947  0.94062  0.14395  1.0000
  C   C219      1.0  0.80022  0.56504  0.53696  1.0000
  H   H345      1.0  0.97302  0.77189  0.21948  1.0000
  H   H346      1.0  0.93840  0.76861  0.16661  1.0000
  Fe  Fe45      1.0  0.85545  0.68736  0.06993  1.0000
  C   C220      1.0  0.77703  0.59975  0.06820  1.0000
  H   H347      1.0  0.84558  0.93876  0.34568  1.0000
  H   H348      1.0  0.91817  0.93303  0.32833  1.0000
  Fe  Fe46      1.0  0.93093  0.65019  0.08360  1.0000
  N   N22       1.0  0.88727  0.96357  0.28769  1.0000
  H   H349      1.0  0.82566  0.55352  0.16341  1.0000
  C   C221      1.0  0.91992  0.93246  0.29495  1.0000
  H   H350      1.0  0.82074  0.59872  0.52944  1.0000
  H   H351      1.0  0.86672  0.98398  0.23627  1.0000
  S   S89       1.0  0.95562  0.57886  0.10942  1.0000
  H   H352      1.0  0.91917  0.98185  0.22396  1.0000
  H   H353      1.0  0.87325  0.57467  0.13105  1.0000
  H   H354      1.0  0.92017  0.88878  0.28514  1.0000
  H   H355      1.0  0.83254  0.57631  0.11138  1.0000
  S   S90       1.0  0.00730  0.85982  0.25216  1.0000
  C   C222      1.0  0.89136  0.96210  0.24289  1.0000
  C   C223      1.0  0.00046  0.55583  0.07455  1.0000
  H   H356      1.0  0.89187  0.91916  0.23131  1.0000
  H   H357      1.0  0.84777  0.89520  0.30210  1.0000
  H   H358      1.0  0.82413  0.96113  0.30712  1.0000
  C   C224      1.0  0.84629  0.55242  0.13106  1.0000
  C   C225      1.0  0.88847  0.02106  0.30115  1.0000
  H   H359      1.0  0.88562  0.02378  0.33481  1.0000
  C   C226      1.0  0.01946  0.76007  0.76701  1.0000
  H   H360      1.0  0.97233  0.92392  0.05494  1.0000
  H   H361      1.0  0.01279  0.87178  0.83791  1.0000
  S   S91       1.0  0.90593  0.63564  0.03172  1.0000
  S   S92       1.0  0.88173  0.76716  0.04048  1.0000
  H   H362      1.0  0.95067  0.81442  0.78529  1.0000
  Fe  Fe47      1.0  0.93422  0.71584  0.00691  1.0000
  S   S93       1.0  0.97454  0.72879  0.94180  1.0000
  H   H363      1.0  0.94944  0.89924  0.95692  1.0000
  H   H364      1.0  0.01200  0.87920  0.71810  1.0000
  H   H365      1.0  0.83149  0.58516  0.01941  1.0000
  H   H366      1.0  0.00434  0.62038  0.03017  1.0000
  S   S94       1.0  0.94071  0.92049  0.83228  1.0000
  C   C227      1.0  0.96400  0.78331  0.91339  1.0000
  C   C228      1.0  0.92546  0.80072  0.91887  1.0000
  C   C229      1.0  0.91839  0.84319  0.89404  1.0000
  C   C230      1.0  0.94986  0.86954  0.86488  1.0000
  C   C231      1.0  0.98828  0.85283  0.86050  1.0000
  C   C232      1.0  0.99526  0.80911  0.88393  1.0000
  H   H367      1.0  0.90112  0.78050  0.94134  1.0000
  H   H368      1.0  0.88852  0.85564  0.89748  1.0000
  H   H369      1.0  0.94971  0.75620  0.75301  1.0000
  Fe  Fe48      1.0  0.98861  0.98332  0.80863  1.0000
  H   H370      1.0  0.92886  0.91170  0.01202  1.0000
  S   S95       1.0  0.01089  0.01511  0.74298  1.0000
  H   H371      1.0  0.00919  0.71717  0.76658  1.0000
  C   C233      1.0  0.77505  0.82370  0.60279  1.0000
  C   C234      1.0  0.80262  0.56933  0.03569  1.0000
  H   H372      1.0  0.80163  0.81224  0.57647  1.0000
  H   H373      1.0  0.99252  0.97995  0.94826  1.0000
  H   H374      1.0  0.78328  0.82306  0.63182  1.0000
  C   C235      1.0  0.95357  0.89153  0.98765  1.0000
  C   C236      1.0  0.96250  0.79764  0.75304  1.0000
  N   N23       1.0  0.99209  0.91165  0.98862  1.0000
  H   H375      1.0  0.95070  0.84653  0.99337  1.0000
  C   C237      1.0  0.01826  0.58428  0.03766  1.0000
  H   H376      1.0  0.97181  0.99480  0.00285  1.0000
  C   C238      1.0  0.99569  0.90181  0.03031  1.0000
  H   H377      1.0  0.95139  0.82466  0.73274  1.0000
  S   S96       1.0  0.96401  0.72549  0.05549  1.0000
  H   H378      1.0  0.77942  0.71499  0.58555  1.0000
  N   N24       1.0  0.00592  0.79557  0.73890  1.0000
  H   H379      1.0  0.01637  0.57092  0.59651  1.0000
  H   H380      1.0  0.01034  0.87043  0.77074  1.0000
  H   H381      1.0  0.00809  0.77479  0.79971  1.0000
  H   H382      1.0  0.01170  0.79924  0.67371  1.0000
  H   H383      1.0  0.00913  0.73111  0.69427  1.0000
  C   C239      1.0  0.99521  0.97105  0.97952  1.0000
  H   H384      1.0  0.99266  0.85743  0.03846  1.0000
  C   C240      1.0  0.02049  0.77304  0.69618  1.0000
