data_image0
_chemical_formula_structural       CHCHSCFeH2CSH2CH2CH2CHNC2H2SH2CH2CH3SC2HCHSHCH2SH4CFeC2SH3CNH3FeHSCSCSH2C2FeC3H2CFe2S2CFeHCNHC2HCH2CH2CHSHC2HCSHCSCH2C2HCH2SHNH2CH4FeH2SHCHCHCHCH3SHC3HFeH2SFeHSHNCHCHC2SFeH4SHSFeHCH3CH4CNH5CFeH2CHCHCHCHC3SHCHSHC2S2NCSH2FeS2HFeHFeCHSC2HCFeHS2H4CH2CH2CH2CHCH2SHFeH3CHCNHCSHSH2CHCFeSH2NHCHC2H4NHCH2SH2CHCHCSH3SH2SH2NCHCHCHC3FeC2HSFe2H2CSC2SCSFeHC2H3CHNSHCHCHC2HCSH2CH4FeHSHCH2SCFeH4SNC2HSHC2H3C2H3S2CH3CFeCH2CHFe2S2HC2HNCH3C3HCH2CHCH2SH2CH2CH2SCHSFeH3C2H2CFeHSHCNCS2CHC2NH3CH6C2HC2H2CH2FeCSHSCHCS2FeS2FeCH2CSFeCFeHCHCH2CH3CH2NH2CH2CHCHFeSHC2SCSCHCH6CH2NH2CHC2SCHCH2C6H3SHS2CS2CFeHCHNCH3CFeHC3H2FeH4CHSCH4FeHCHC3NHCSH2C4SHFeHFeH4SHCH2CH2CSHCNH4CSHCH3CH2FeHSC2H3SNCH2C3HC2HSH3FeH3SH2CHCH8C2H2S2CSFeCH2SCHSHFeC2HCH4C4HCSCS2H6NHCFeCH2C2HCHFeCH2CHCH2SNH3CH2CHC
_chemical_formula_sum              "C240 H384 S96 Fe48 N24"
_cell_length_a       33.685
_cell_length_b       37.885
_cell_length_c       18.8491
_cell_angle_alpha    90.4859
_cell_angle_beta     89.2433
_cell_angle_gamma    89.3876

_space_group_name_H-M_alt    "P 1"
_space_group_IT_number       1

loop_
  _space_group_symop_operation_xyz
  'x, y, z'

loop_
  _atom_site_type_symbol
  _atom_site_label
  _atom_site_symmetry_multiplicity
  _atom_site_fract_x
  _atom_site_fract_y
  _atom_site_fract_z
  _atom_site_occupancy
  C   C1        1.0  0.38532  0.14774  0.31777  1.0000
  H   H1        1.0  0.32931  0.17511  0.33143  1.0000
  C   C2        1.0  0.37800  0.21130  0.32631  1.0000
  H   H2        1.0  0.35901  0.23437  0.33141  1.0000
  S   S1        1.0  0.36329  0.10631  0.32330  1.0000
  C   C3        1.0  0.36117  0.17776  0.32559  1.0000
  Fe  Fe1       1.0  0.39317  0.06247  0.26201  1.0000
  H   H3        1.0  0.35306  0.19064  0.56000  1.0000
  H   H4        1.0  0.36159  0.15776  0.62648  1.0000
  C   C4        1.0  0.37644  0.17742  0.59192  1.0000
  S   S2        1.0  0.34694  0.26320  0.46790  1.0000
  H   H5        1.0  0.38922  0.19784  0.62733  1.0000
  H   H6        1.0  0.36481  0.14373  0.46891  1.0000
  C   C5        1.0  0.38910  0.13281  0.50208  1.0000
  H   H7        1.0  0.37610  0.11161  0.53521  1.0000
  H   H8        1.0  0.40208  0.20025  0.46581  1.0000
  C   C6        1.0  0.17418  0.27437  0.41919  1.0000
  H   H9        1.0  0.54379  0.14673  0.19916  1.0000
  H   H10       1.0  0.16861  0.26622  0.36509  1.0000
  C   C7        1.0  0.42642  0.15129  0.30894  1.0000
  H   H11       1.0  0.42644  0.12467  0.62666  1.0000
  N   N1        1.0  0.40731  0.16066  0.54597  1.0000
  C   C8        1.0  0.43865  0.14500  0.59043  1.0000
  C   C9        1.0  0.42499  0.18747  0.49907  1.0000
  H   H12       1.0  0.41117  0.12023  0.46497  1.0000
  H   H13       1.0  0.44519  0.12808  0.30277  1.0000
  S   S3        1.0  0.45768  0.04763  0.26031  1.0000
  H   H14       1.0  0.45306  0.16539  0.62418  1.0000
  H   H15       1.0  0.43956  0.20872  0.52970  1.0000
  C   C10       1.0  0.42918  0.26014  0.63998  1.0000
  H   H16       1.0  0.48521  0.23294  0.62284  1.0000
  H   H17       1.0  0.42695  0.26870  0.58568  1.0000
  C   C11       1.0  0.41917  0.21491  0.32255  1.0000
  H   H18       1.0  0.47535  0.18775  0.30859  1.0000
  H   H19       1.0  0.46246  0.13224  0.55730  1.0000
  H   H20       1.0  0.44786  0.17568  0.46262  1.0000
  S   S4        1.0  0.43999  0.25617  0.33966  1.0000
  C   C12       1.0  0.44342  0.18499  0.31187  1.0000
  C   C13       1.0  0.46188  0.23968  0.66077  1.0000
  H   H21       1.0  0.39411  0.13802  0.16837  1.0000
  C   C14       1.0  0.38200  0.16041  0.13714  1.0000
  H   H22       1.0  0.35574  0.15038  0.10834  1.0000
  S   S5        1.0  0.38566  0.05778  0.14461  1.0000
  H   H23       1.0  0.37966  0.26545  0.79827  1.0000
  C   C15       1.0  0.40261  0.25835  0.75987  1.0000
  H   H24       1.0  0.36877  0.19595  0.01728  1.0000
  H   H25       1.0  0.37131  0.18094  0.17563  1.0000
  S   S6        1.0  0.58834  0.22472  0.90209  1.0000
  H   H26       1.0  0.63271  0.17913  0.00337  1.0000
  H   H27       1.0  0.38532  0.22619  0.08445  1.0000
  H   H28       1.0  0.45995  0.16533  0.16044  1.0000
  H   H29       1.0  0.43754  0.12320  0.06664  1.0000
  C   C16       1.0  0.39505  0.20434  0.04812  1.0000
  Fe  Fe2       1.0  0.44850  0.03787  0.14380  1.0000
  C   C17       1.0  0.42544  0.14642  0.03791  1.0000
  C   C18       1.0  0.44666  0.18703  0.12883  1.0000
  S   S7        1.0  0.56609  0.20106  0.10178  1.0000
  H   H30       1.0  0.54681  0.16335  0.97387  1.0000
  H   H31       1.0  0.65266  0.17719  0.16076  1.0000
  H   H32       1.0  0.62884  0.14248  0.11322  1.0000
  C   C19       1.0  0.52013  0.10473  0.13494  1.0000
  N   N2        1.0  0.41230  0.17457  0.08795  1.0000
  H   H33       1.0  0.44922  0.15578  0.00124  1.0000
  H   H34       1.0  0.47058  0.19726  0.09350  1.0000
  H   H35       1.0  0.40052  0.13679  0.00508  1.0000
  Fe  Fe3       1.0  0.55541  0.23332  0.00494  1.0000
  H   H36       1.0  0.43799  0.23006  0.83532  1.0000
  S   S8        1.0  0.50611  0.20397  0.75766  1.0000
  C   C20       1.0  0.51239  0.09291  0.06605  1.0000
  S   S9        1.0  0.49526  0.23564  0.95583  1.0000
  C   C21       1.0  0.43557  0.23838  0.78083  1.0000
  S   S10       1.0  0.48682  0.05361  0.05146  1.0000
  H   H37       1.0  0.41697  0.21540  0.00992  1.0000
  H   H38       1.0  0.51254  0.08855  0.17984  1.0000
  C   C22       1.0  0.46492  0.22864  0.73108  1.0000
  C   C23       1.0  0.53805  0.13752  0.14579  1.0000
  Fe  Fe4       1.0  0.52887  0.23261  0.85268  1.0000
  C   C24       1.0  0.53973  0.14698  0.01891  1.0000
  C   C25       1.0  0.54708  0.15890  0.08782  1.0000
  C   C26       1.0  0.52293  0.11376  0.00800  1.0000
  H   H39       1.0  0.51692  0.10469  0.95463  1.0000
  H   H40       1.0  0.43808  0.20865  0.16652  1.0000
  C   C27       1.0  0.39935  0.26911  0.68941  1.0000
  Fe  Fe5       1.0  0.35932  0.30535  0.54779  1.0000
  Fe  Fe6       1.0  0.30778  0.30391  0.41861  1.0000
  S   S11       1.0  0.35496  0.32586  0.34695  1.0000
  S   S12       1.0  0.31577  0.34438  0.50458  1.0000
  C   C28       1.0  0.34672  0.42330  0.30285  1.0000
  Fe  Fe7       1.0  0.36710  0.36221  0.43830  1.0000
  H   H41       1.0  0.33038  0.40007  0.31772  1.0000
  C   C29       1.0  0.37331  0.43850  0.35048  1.0000
  N   N3        1.0  0.18780  0.39111  0.39314  1.0000
  H   H42       1.0  0.19334  0.30508  0.61245  1.0000
  C   C30       1.0  0.36274  0.46832  0.21629  1.0000
  C   C31       1.0  0.34114  0.43846  0.23585  1.0000
  H   H43       1.0  0.24996  0.38825  0.36518  1.0000
  C   C32       1.0  0.22969  0.38427  0.41150  1.0000
  H   H44       1.0  0.23955  0.40185  0.45529  1.0000
  H   H45       1.0  0.23412  0.35666  0.42934  1.0000
  C   C33       1.0  0.17657  0.36804  0.33316  1.0000
  H   H46       1.0  0.19515  0.37304  0.28516  1.0000
  H   H47       1.0  0.24930  0.29977  0.52615  1.0000
  C   C34       1.0  0.38910  0.48336  0.26415  1.0000
  H   H48       1.0  0.19052  0.44661  0.41715  1.0000
  S   S13       1.0  0.38305  0.41912  0.43245  1.0000
  H   H49       1.0  0.20231  0.43503  0.32648  1.0000
  C   C35       1.0  0.18295  0.42848  0.37273  1.0000
  C   C36       1.0  0.18803  0.29602  0.55886  1.0000
  H   H50       1.0  0.16984  0.40000  0.50196  1.0000
  C   C37       1.0  0.21965  0.29339  0.50976  1.0000
  S   S14       1.0  0.35815  0.29415  0.66413  1.0000
  H   H51       1.0  0.18041  0.33965  0.34649  1.0000
  C   C38       1.0  0.45042  0.38919  0.27069  1.0000
  S   S15       1.0  0.24957  0.28766  0.37370  1.0000
  C   C39       1.0  0.21243  0.28392  0.43917  1.0000
  H   H52       1.0  0.32075  0.42676  0.19879  1.0000
  H   H53       1.0  0.16438  0.35543  0.47084  1.0000
  C   C40       1.0  0.16197  0.38360  0.45512  1.0000
  C   C41       1.0  0.39402  0.46878  0.33138  1.0000
  H   H54       1.0  0.40577  0.50634  0.24944  1.0000
  C   C42       1.0  0.45381  0.33146  0.21525  1.0000
  H   H55       1.0  0.42739  0.32228  0.24572  1.0000
  H   H56       1.0  0.45216  0.37989  0.64040  1.0000
  S   S16       1.0  0.41183  0.32645  0.48829  1.0000
  H   H57       1.0  0.44833  0.41826  0.26271  1.0000
  N   N4        1.0  0.45176  0.36989  0.20220  1.0000
  H   H58       1.0  0.41466  0.48058  0.36798  1.0000
  H   H59       1.0  0.48044  0.32412  0.24649  1.0000
  C   C43       1.0  0.42613  0.37195  0.67330  1.0000
  H   H60       1.0  0.40102  0.39021  0.66132  1.0000
  H   H61       1.0  0.47732  0.38381  0.30261  1.0000
  H   H62       1.0  0.41749  0.34522  0.65479  1.0000
  H   H63       1.0  0.42426  0.38143  0.30350  1.0000
  Fe  Fe8       1.0  0.39515  0.28816  0.40267  1.0000
  H   H64       1.0  0.38825  0.37107  0.19188  1.0000
  H   H65       1.0  0.51498  0.37571  0.19069  1.0000
  S   S17       1.0  0.35882  0.48598  0.13104  1.0000
  H   H66       1.0  0.38904  0.33591  0.77731  1.0000
  C   C44       1.0  0.39963  0.36272  0.79160  1.0000
  H   H67       1.0  0.37467  0.38150  0.78238  1.0000
  C   C45       1.0  0.48718  0.38064  0.16094  1.0000
  H   H68       1.0  0.41540  0.36375  0.11015  1.0000
  C   C46       1.0  0.41560  0.37827  0.16177  1.0000
  H   H69       1.0  0.45827  0.31881  0.74736  1.0000
  C   C47       1.0  0.46721  0.34594  0.76325  1.0000
  H   H70       1.0  0.48593  0.40923  0.14773  1.0000
  H   H71       1.0  0.40576  0.36256  0.84959  1.0000
  H   H72       1.0  0.47439  0.34508  0.82060  1.0000
  S   S18       1.0  0.64818  0.30873  0.86753  1.0000
  H   H73       1.0  0.49499  0.35216  0.73354  1.0000
  C   C48       1.0  0.47569  0.37513  0.96458  1.0000
  C   C49       1.0  0.44873  0.40757  0.77134  1.0000
  C   C50       1.0  0.50570  0.44354  0.95290  1.0000
  H   H74       1.0  0.42543  0.42793  0.76169  1.0000
  Fe  Fe9       1.0  0.50617  0.29363  0.94930  1.0000
  H   H75       1.0  0.48976  0.36569  0.10997  1.0000
  H   H76       1.0  0.47605  0.41526  0.74170  1.0000
  S   S19       1.0  0.52519  0.48612  0.95150  1.0000
  Fe  Fe10      1.0  0.41275  0.51907  0.11379  1.0000
  H   H77       1.0  0.47086  0.53213  0.86475  1.0000
  S   S20       1.0  0.47038  0.49165  0.13667  1.0000
  H   H78       1.0  0.42155  0.40046  0.00144  1.0000
  N   N5        1.0  0.43539  0.37207  0.74978  1.0000
  C   C51       1.0  0.45167  0.40423  0.98261  1.0000
  H   H79       1.0  0.55941  0.41841  0.91385  1.0000
  C   C52       1.0  0.51440  0.38027  0.93910  1.0000
  H   H80       1.0  0.53323  0.35791  0.92540  1.0000
  C   C53       1.0  0.52924  0.41452  0.93242  1.0000
  C   C54       1.0  0.46681  0.43839  0.97749  1.0000
  S   S21       1.0  0.45742  0.33247  0.97534  1.0000
  Fe  Fe11      1.0  0.49085  0.51586  0.03493  1.0000
  H   H81       1.0  0.45581  0.40854  0.82882  1.0000
  H   H82       1.0  0.44828  0.46071  0.99277  1.0000
  H   H83       1.0  0.45524  0.31613  0.16456  1.0000
  H   H84       1.0  0.41335  0.40704  0.15009  1.0000
  S   S22       1.0  0.56333  0.29187  0.00856  1.0000
  H   H85       1.0  0.65250  0.29567  0.01714  1.0000
  S   S23       1.0  0.53497  0.29101  0.84173  1.0000
  Fe  Fe12      1.0  0.59134  0.28375  0.90112  1.0000
  H   H86       1.0  0.51692  0.53230  0.81692  1.0000
  C   C55       1.0  0.34422  0.75629  0.62198  1.0000
  H   H87       1.0  0.32712  0.75396  0.57211  1.0000
  H   H88       1.0  0.37310  0.76869  0.60840  1.0000
  H   H89       1.0  0.39634  0.59464  0.39110  1.0000
  C   C56       1.0  0.37390  0.69842  0.60675  1.0000
  H   H90       1.0  0.61903  0.75512  0.51086  1.0000
  H   H91       1.0  0.35910  0.69491  0.55471  1.0000
  H   H92       1.0  0.29448  0.70090  0.62033  1.0000
  H   H93       1.0  0.57908  0.60297  0.22659  1.0000
  C   C57       1.0  0.40054  0.70541  0.25768  1.0000
  N   N6        1.0  0.35033  0.72149  0.65521  1.0000
  H   H94       1.0  0.36987  0.70556  0.28024  1.0000
  H   H95       1.0  0.32774  0.77485  0.65826  1.0000
  H   H96       1.0  0.41434  0.67927  0.26950  1.0000
  H   H97       1.0  0.37842  0.67161  0.62921  1.0000
  H   H98       1.0  0.64822  0.54177  0.31708  1.0000
  C   C58       1.0  0.31149  0.70508  0.66982  1.0000
  Fe  Fe13      1.0  0.54792  0.71550  0.43219  1.0000
  H   H99       1.0  0.64259  0.74643  0.59372  1.0000
  H   H100      1.0  0.40387  0.70941  0.59582  1.0000
  C   C59       1.0  0.64441  0.76265  0.54488  1.0000
  H   H101      1.0  0.39879  0.76890  0.19428  1.0000
  C   C60       1.0  0.62216  0.55872  0.30414  1.0000
  H   H102      1.0  0.41755  0.72581  0.28689  1.0000
  C   C61       1.0  0.64386  0.71553  0.38158  1.0000
  H   H103      1.0  0.60727  0.64232  0.24464  1.0000
  C   C62       1.0  0.63578  0.74917  0.35483  1.0000
  H   H104      1.0  0.60479  0.54465  0.26297  1.0000
  C   C63       1.0  0.51141  0.59318  0.39907  1.0000
  C   C64       1.0  0.42841  0.59415  0.39377  1.0000
  C   C65       1.0  0.59902  0.61594  0.26540  1.0000
  S   S24       1.0  0.51714  0.70368  0.53522  1.0000
  H   H105      1.0  0.58118  0.62086  0.31465  1.0000
  C   C66       1.0  0.48944  0.61720  0.44092  1.0000
  H   H106      1.0  0.64126  0.61442  0.38537  1.0000
  S   S25       1.0  0.52014  0.54654  0.28886  1.0000
  H   H107      1.0  0.43542  0.55237  0.31640  1.0000
  C   C67       1.0  0.49208  0.57101  0.35139  1.0000
  C   C68       1.0  0.44800  0.61829  0.43709  1.0000
  S   S26       1.0  0.60550  0.68735  0.40708  1.0000
  S   S27       1.0  0.44365  0.75472  0.48096  1.0000
  N   N7        1.0  0.63453  0.59392  0.27953  1.0000
  C   C69       1.0  0.45053  0.57061  0.35062  1.0000
  S   S28       1.0  0.42169  0.65269  0.47966  1.0000
  H   H108      1.0  0.60282  0.56077  0.35240  1.0000
  H   H109      1.0  0.50477  0.63534  0.47506  1.0000
  Fe  Fe14      1.0  0.46277  0.69824  0.46975  1.0000
  S   S29       1.0  0.49465  0.70526  0.36613  1.0000
  S   S30       1.0  0.53749  0.77403  0.44075  1.0000
  H   H110      1.0  0.54339  0.59293  0.40169  1.0000
  Fe  Fe15      1.0  0.50124  0.76114  0.53781  1.0000
  H   H111      1.0  0.60550  0.75732  0.34517  1.0000
  Fe  Fe16      1.0  0.48100  0.76261  0.38317  1.0000
  C   C70       1.0  0.38005  0.63040  0.96959  1.0000
  H   H112      1.0  0.32145  0.62387  0.92650  1.0000
  S   S31       1.0  0.30370  0.68842  0.85286  1.0000
  C   C71       1.0  0.34592  0.67431  0.89873  1.0000
  C   C72       1.0  0.34685  0.64101  0.93047  1.0000
  H   H113      1.0  0.38014  0.60515  0.99594  1.0000
  C   C73       1.0  0.37887  0.69626  0.90388  1.0000
  Fe  Fe17      1.0  0.28994  0.74561  0.87606  1.0000
  H   H114      1.0  0.37928  0.72127  0.87746  1.0000
  S   S32       1.0  0.24994  0.76354  0.96596  1.0000
  S   S33       1.0  0.26201  0.78107  0.79567  1.0000
  H   H115      1.0  0.37684  0.70040  0.74891  1.0000
  H   H116      1.0  0.31510  0.67894  0.69580  1.0000
  H   H117      1.0  0.16455  0.75087  0.93269  1.0000
  H   H118      1.0  0.35479  0.74337  0.76015  1.0000
  C   C74       1.0  0.37188  0.72615  0.72230  1.0000
  H   H119      1.0  0.29289  0.72168  0.70645  1.0000
  H   H120      1.0  0.37556  0.69031  0.08616  1.0000
  C   C75       1.0  0.38236  0.74735  0.16741  1.0000
  H   H121      1.0  0.34683  0.68333  0.16525  1.0000
  H   H122      1.0  0.39186  0.65828  0.14931  1.0000
  C   C76       1.0  0.37770  0.68483  0.14387  1.0000
  H   H123      1.0  0.45684  0.68606  0.16286  1.0000
  H   H124      1.0  0.40135  0.73851  0.71330  1.0000
  C   C77       1.0  0.41255  0.65286  0.97554  1.0000
  H   H125      1.0  0.64133  0.57741  0.17064  1.0000
  C   C78       1.0  0.50983  0.59235  0.89194  1.0000
  H   H126      1.0  0.54060  0.58130  0.89090  1.0000
  H   H127      1.0  0.49328  0.59194  0.71437  1.0000
  S   S34       1.0  0.45397  0.64123  0.02518  1.0000
  H   H128      1.0  0.53978  0.58771  0.75933  1.0000
  Fe  Fe18      1.0  0.45320  0.58623  0.06723  1.0000
  H   H129      1.0  0.43732  0.70291  0.94625  1.0000
  H   H130      1.0  0.44317  0.71657  0.09513  1.0000
  H   H131      1.0  0.44741  0.62708  0.83868  1.0000
  C   C79       1.0  0.44733  0.59785  0.83170  1.0000
  H   H132      1.0  0.43001  0.59165  0.78338  1.0000
  C   C80       1.0  0.50889  0.59827  0.76458  1.0000
  N   N8        1.0  0.48815  0.58320  0.82676  1.0000
  H   H133      1.0  0.51067  0.62755  0.76889  1.0000
  C   C81       1.0  0.41207  0.68560  0.94216  1.0000
  S   S35       1.0  0.51387  0.56432  0.08754  1.0000
  H   H134      1.0  0.49474  0.58164  0.93972  1.0000
  S   S36       1.0  0.42739  0.56943  0.17140  1.0000
  H   H135      1.0  0.43084  0.58696  0.87803  1.0000
  H   H136      1.0  0.51153  0.62146  0.89999  1.0000
  C   C82       1.0  0.48659  0.54436  0.81899  1.0000
  H   H137      1.0  0.38215  0.75354  0.10975  1.0000
  C   C83       1.0  0.44199  0.71198  0.15338  1.0000
  Fe  Fe19      1.0  0.48660  0.54305  0.18705  1.0000
  S   S37       1.0  0.43187  0.53896  0.00716  1.0000
  H   H138      1.0  0.47089  0.53638  0.76994  1.0000
  H   H139      1.0  0.35104  0.74878  0.18679  1.0000
  N   N9        1.0  0.40063  0.71239  0.18062  1.0000
  H   H140      1.0  0.45999  0.73277  0.17956  1.0000
  C   C84       1.0  0.37742  0.90011  0.44789  1.0000
  H   H141      1.0  0.36941  0.89749  0.50504  1.0000
  C   C85       1.0  0.30875  0.89249  0.41637  1.0000
  C   C86       1.0  0.33515  0.95114  0.43164  1.0000
  H   H142      1.0  0.31070  0.96339  0.40075  1.0000
  H   H143      1.0  0.38140  0.93245  0.32125  1.0000
  H   H144      1.0  0.32622  0.95171  0.48869  1.0000
  H   H145      1.0  0.29936  0.89140  0.47317  1.0000
  N   N10       1.0  0.34412  0.91477  0.40670  1.0000
  H   H146      1.0  0.36158  0.96841  0.42554  1.0000
  C   C87       1.0  0.35522  0.91544  0.33064  1.0000
  H   H147      1.0  0.36311  0.88861  0.30989  1.0000
  H   H148      1.0  0.37899  0.85020  0.60816  1.0000
  S   S38       1.0  0.37187  0.00795  0.28407  1.0000
  H   H149      1.0  0.33066  0.92611  0.29785  1.0000
  H   H150      1.0  0.28315  0.90284  0.38571  1.0000
  C   C88       1.0  0.45954  0.80602  0.67125  1.0000
  H   H151      1.0  0.31475  0.86493  0.39778  1.0000
  C   C89       1.0  0.39801  0.83700  0.64559  1.0000
  H   H152      1.0  0.38694  0.87362  0.42746  1.0000
  C   C90       1.0  0.64724  0.82114  0.49540  1.0000
  S   S39       1.0  0.50550  0.78815  0.64363  1.0000
  H   H153      1.0  0.40380  0.91751  0.44491  1.0000
  H   H154      1.0  0.64596  0.85008  0.50590  1.0000
  H   H155      1.0  0.60161  0.79473  0.64784  1.0000
  S   S40       1.0  0.46073  0.95670  0.35629  1.0000
  H   H156      1.0  0.44258  0.91717  0.22815  1.0000
  H   H157      1.0  0.57989  0.80480  0.56423  1.0000
  S   S41       1.0  0.45795  0.79322  0.29123  1.0000
  H   H158      1.0  0.48063  0.83279  0.41545  1.0000
  H   H159      1.0  0.62294  0.81468  0.45809  1.0000
  N   N11       1.0  0.64367  0.80083  0.56178  1.0000
  C   C91       1.0  0.43461  0.82262  0.62268  1.0000
  H   H160      1.0  0.44117  0.85289  0.20374  1.0000
  C   C92       1.0  0.45117  0.89895  0.26884  1.0000
  H   H161      1.0  0.48333  0.89712  0.43905  1.0000
  C   C93       1.0  0.60586  0.81019  0.59837  1.0000
  H   H162      1.0  0.44395  0.82505  0.56780  1.0000
  C   C94       1.0  0.47272  0.85112  0.37426  1.0000
  C   C95       1.0  0.47421  0.88752  0.38759  1.0000
  C   C96       1.0  0.45010  0.86254  0.25522  1.0000
  Fe  Fe20      1.0  0.43585  0.99213  0.27228  1.0000
  C   C97       1.0  0.46302  0.91150  0.33518  1.0000
  C   C98       1.0  0.46069  0.83863  0.30800  1.0000
  H   H163      1.0  0.60446  0.83867  0.61322  1.0000
  S   S42       1.0  0.27122  0.84468  0.91409  1.0000
  Fe  Fe21      1.0  0.30844  0.81960  0.82812  1.0000
  Fe  Fe22      1.0  0.22667  0.80302  0.88799  1.0000
  H   H164      1.0  0.26008  0.92898  0.06525  1.0000
  H   H165      1.0  0.26092  0.86365  0.05979  1.0000
  C   C99       1.0  0.31706  0.85852  0.11207  1.0000
  S   S43       1.0  0.32207  0.81348  0.09340  1.0000
  C   C100      1.0  0.28499  0.87744  0.08477  1.0000
  C   C101      1.0  0.28435  0.91432  0.08846  1.0000
  S   S44       1.0  0.33931  0.85101  0.74348  1.0000
  C   C102      1.0  0.31579  0.93228  0.11949  1.0000
  S   S45       1.0  0.16361  0.82231  0.87677  1.0000
  Fe  Fe23      1.0  0.29715  0.80346  0.98533  1.0000
  H   H166      1.0  0.39242  0.90105  0.81074  1.0000
  C   C103      1.0  0.38566  0.83367  0.71645  1.0000
  C   C104      1.0  0.34036  0.92894  0.90511  1.0000
  H   H167      1.0  0.32126  0.92814  0.95377  1.0000
  H   H168      1.0  0.32588  0.91250  0.86369  1.0000
  H   H169      1.0  0.36616  0.86162  0.90340  1.0000
  C   C105      1.0  0.37934  0.87921  0.94421  1.0000
  H   H170      1.0  0.40936  0.86859  0.95654  1.0000
  N   N12       1.0  0.38105  0.91608  0.91944  1.0000
  S   S46       1.0  0.31738  0.97821  0.11338  1.0000
  H   H171      1.0  0.36077  0.87706  0.99314  1.0000
  C   C106      1.0  0.34690  0.91331  0.15025  1.0000
  H   H172      1.0  0.34036  0.95674  0.88657  1.0000
  C   C107      1.0  0.39905  0.93855  0.97466  1.0000
  H   H173      1.0  0.38124  0.93837  0.02471  1.0000
  C   C108      1.0  0.44766  0.80359  0.74249  1.0000
  C   C109      1.0  0.34741  0.87632  0.14692  1.0000
  H   H174      1.0  0.40165  0.81495  0.81991  1.0000
  C   C110      1.0  0.41051  0.81693  0.76488  1.0000
  S   S47       1.0  0.43230  0.98098  0.15529  1.0000
  H   H175      1.0  0.40744  0.94499  0.83355  1.0000
  H   H176      1.0  0.40088  0.96659  0.95777  1.0000
  C   C111      1.0  0.40535  0.91753  0.85367  1.0000
  H   H177      1.0  0.43611  0.90760  0.86244  1.0000
  H   H178      1.0  0.42961  0.92944  0.98764  1.0000
  H   H179      1.0  0.46706  0.79100  0.78024  1.0000
  H   H180      1.0  0.37230  0.86164  0.16779  1.0000
  Fe  Fe24      1.0  0.37005  0.00171  0.16636  1.0000
  H   H181      1.0  0.37126  0.92711  0.17422  1.0000
  S   S48       1.0  0.33905  0.78269  0.90171  1.0000
  H   H182      1.0  0.93232  0.21486  0.62970  1.0000
  C   C112      1.0  0.92196  0.19309  0.59474  1.0000
  H   H183      1.0  0.89023  0.19877  0.58291  1.0000
  H   H184      1.0  0.88123  0.26516  0.57523  1.0000
  S   S49       1.0  0.85629  0.08813  0.24925  1.0000
  C   C113      1.0  0.14277  0.27651  0.46844  1.0000
  Fe  Fe25      1.0  0.90267  0.06000  0.31204  1.0000
  H   H185      1.0  0.11336  0.26885  0.45290  1.0000
  H   H186      1.0  0.88043  0.13442  0.56796  1.0000
  H   H187      1.0  0.94267  0.14406  0.22620  1.0000
  H   H188      1.0  0.93906  0.19441  0.54389  1.0000
  S   S50       1.0  0.90688  0.06923  0.42909  1.0000
  N   N13       1.0  0.92676  0.15833  0.62887  1.0000
  C   C114      1.0  0.97168  0.22453  0.39376  1.0000
  C   C115      1.0  0.94736  0.19583  0.37817  1.0000
  H   H189      1.0  0.01077  0.19117  0.27805  1.0000
  S   S51       1.0  0.95988  0.26644  0.36131  1.0000
  H   H190      1.0  0.98105  0.17238  0.68025  1.0000
  C   C116      1.0  0.96920  0.15193  0.64377  1.0000
  C   C117      1.0  0.91230  0.13038  0.58081  1.0000
  H   H191      1.0  0.98755  0.15228  0.59418  1.0000
  H   H192      1.0  0.02536  0.24132  0.44448  1.0000
  H   H193      1.0  0.91556  0.10371  0.60455  1.0000
  C   C118      1.0  0.00630  0.21931  0.43261  1.0000
  C   C119      1.0  0.01713  0.18528  0.45424  1.0000
  H   H194      1.0  0.94192  0.19155  0.22772  1.0000
  H   H195      1.0  0.92931  0.12991  0.52981  1.0000
  H   H196      1.0  0.04427  0.18125  0.48338  1.0000
  S   S52       1.0  0.00825  0.11396  0.46200  1.0000
  S   S53       1.0  0.96744  0.06839  0.29081  1.0000
  C   C120      1.0  0.99359  0.15641  0.43646  1.0000
  H   H197      1.0  0.00980  0.14377  0.27665  1.0000
  H   H198      1.0  0.94004  0.13954  0.38532  1.0000
  H   H199      1.0  0.92015  0.19992  0.34936  1.0000
  C   C121      1.0  0.95851  0.16170  0.39884  1.0000
  Fe  Fe26      1.0  0.97225  0.07218  0.40885  1.0000
  C   C122      1.0  0.01701  0.16744  0.24443  1.0000
  H   H200      1.0  0.04952  0.16675  0.23337  1.0000
  H   H201      1.0  0.97398  0.12568  0.66858  1.0000
  C   C123      1.0  0.95102  0.16799  0.19566  1.0000
  H   H202      1.0  0.87145  0.16307  0.68678  1.0000
  Fe  Fe27      1.0  0.86977  0.23795  0.83207  1.0000
  Fe  Fe28      1.0  0.83775  0.23700  0.98327  1.0000
  S   S54       1.0  0.78408  0.24431  0.05293  1.0000
  S   S55       1.0  0.84493  0.19484  0.89975  1.0000
  H   H203      1.0  0.86186  0.15927  0.03565  1.0000
  C   C124      1.0  0.74530  0.25998  0.00103  1.0000
  C   C125      1.0  0.75006  0.26185  0.92737  1.0000
  H   H204      1.0  0.77683  0.25187  0.90185  1.0000
  N   N14       1.0  0.68246  0.16116  0.06392  1.0000
  C   C126      1.0  0.85754  0.12611  0.12714  1.0000
  H   H205      1.0  0.83188  0.14001  0.14897  1.0000
  H   H206      1.0  0.70551  0.13418  0.97122  1.0000
  H   H207      1.0  0.65852  0.11828  0.00315  1.0000
  C   C127      1.0  0.68768  0.12886  0.02009  1.0000
  C   C128      1.0  0.87469  0.09830  0.16464  1.0000
  C   C129      1.0  0.87466  0.13711  0.06304  1.0000
  H   H208      1.0  0.70329  0.10769  0.04981  1.0000
  C   C130      1.0  0.72176  0.17412  0.08548  1.0000
  H   H209      1.0  0.73791  0.15450  0.11828  1.0000
  H   H210      1.0  0.67330  0.13316  0.16159  1.0000
  C   C131      1.0  0.65837  0.15308  0.12776  1.0000
  H   H211      1.0  0.98903  0.13785  0.08226  1.0000
  C   C132      1.0  0.66196  0.18856  0.02219  1.0000
  H   H212      1.0  0.74097  0.17976  0.03847  1.0000
  H   H213      1.0  0.67986  0.19646  0.97492  1.0000
  S   S56       1.0  0.85865  0.24301  0.71543  1.0000
  H   H214      1.0  0.71910  0.19906  0.11700  1.0000
  H   H215      1.0  0.99583  0.11216  0.16075  1.0000
  C   C133      1.0  0.72003  0.27668  0.88620  1.0000
  H   H216      1.0  0.91368  0.17876  0.73353  1.0000
  H   H217      1.0  0.70625  0.27034  0.09039  1.0000
  C   C134      1.0  0.70995  0.27176  0.03337  1.0000
  H   H218      1.0  0.65598  0.21283  0.05449  1.0000
  H   H219      1.0  0.90637  0.13208  0.72331  1.0000
  S   S57       1.0  0.89781  0.22970  0.03059  1.0000
  C   C135      1.0  0.00319  0.20085  0.13881  1.0000
  H   H220      1.0  0.72381  0.27831  0.82919  1.0000
  S   S58       1.0  0.93440  0.13812  0.96332  1.0000
  Fe  Fe29      1.0  0.90674  0.19069  0.94154  1.0000
  H   H221      1.0  0.95075  0.07754  0.05029  1.0000
  H   H222      1.0  0.98610  0.20228  0.08864  1.0000
  H   H223      1.0  0.03686  0.13563  0.12241  1.0000
  C   C136      1.0  0.92468  0.09105  0.07150  1.0000
  C   C137      1.0  0.90889  0.12023  0.03612  1.0000
  H   H224      1.0  0.93288  0.16822  0.14682  1.0000
  H   H225      1.0  0.92033  0.05799  0.16374  1.0000
  C   C138      1.0  0.00444  0.13712  0.13408  1.0000
  Fe  Fe30      1.0  0.91712  0.26969  0.95097  1.0000
  H   H226      1.0  0.03530  0.20210  0.12463  1.0000
  S   S59       1.0  0.93263  0.22993  0.86618  1.0000
  H   H227      1.0  0.99546  0.22492  0.17079  1.0000
  C   C139      1.0  0.90773  0.08023  0.13603  1.0000
  N   N15       1.0  0.99394  0.16833  0.17829  1.0000
  C   C140      1.0  0.90359  0.15793  0.69605  1.0000
  S   S60       1.0  0.85611  0.28063  0.91153  1.0000
  S   S61       1.0  0.85315  0.50256  0.27028  1.0000
  C   C141      1.0  0.82284  0.36667  0.31123  1.0000
  H   H228      1.0  0.85863  0.31130  0.37285  1.0000
  C   C142      1.0  0.86058  0.37929  0.41638  1.0000
  C   C143      1.0  0.87816  0.32914  0.34181  1.0000
  N   N16       1.0  0.86285  0.36588  0.34248  1.0000
  H   H229      1.0  0.82361  0.35654  0.25560  1.0000
  H   H230      1.0  0.88077  0.31825  0.28682  1.0000
  H   H231      1.0  0.81060  0.39408  0.30945  1.0000
  C   C144      1.0  0.88964  0.38839  0.30015  1.0000
  H   H232      1.0  0.80162  0.35023  0.34191  1.0000
  H   H233      1.0  0.84054  0.36300  0.44985  1.0000
  H   H234      1.0  0.89407  0.37771  0.24546  1.0000
  H   H235      1.0  0.87767  0.41577  0.29548  1.0000
  H   H236      1.0  0.84944  0.40706  0.41864  1.0000
  H   H237      1.0  0.89022  0.37888  0.44193  1.0000
  C   C145      1.0  0.90180  0.31850  0.58664  1.0000
  C   C146      1.0  0.87450  0.28391  0.68306  1.0000
  H   H238      1.0  0.90815  0.32737  0.36524  1.0000
  C   C147      1.0  0.88494  0.28717  0.61133  1.0000
  C   C148      1.0  0.14933  0.28883  0.53732  1.0000
  H   H239      1.0  0.13017  0.38887  0.44335  1.0000
  H   H240      1.0  0.91944  0.39034  0.32394  1.0000
  C   C149      1.0  0.90751  0.34684  0.63335  1.0000
  H   H241      1.0  0.91108  0.32045  0.53166  1.0000
  H   H242      1.0  0.14489  0.37219  0.31872  1.0000
  Fe  Fe31      1.0  0.98250  0.36189  0.53327  1.0000
  C   C150      1.0  0.03339  0.51458  0.30272  1.0000
  S   S62       1.0  0.99732  0.30423  0.53766  1.0000
  H   H243      1.0  0.08882  0.48906  0.32806  1.0000
  S   S63       1.0  0.97603  0.36367  0.41589  1.0000
  C   C151      1.0  0.05747  0.48546  0.31904  1.0000
  H   H244      1.0  0.00004  0.34810  0.67295  1.0000
  C   C152      1.0  0.97634  0.47640  0.29540  1.0000
  S   S64       1.0  0.04593  0.37891  0.53213  1.0000
  S   S65       1.0  0.05998  0.31885  0.40535  1.0000
  Fe  Fe32      1.0  0.04090  0.37552  0.41378  1.0000
  S   S66       1.0  0.93495  0.38331  0.60598  1.0000
  S   S67       1.0  0.10883  0.29984  0.59278  1.0000
  Fe  Fe33      1.0  0.99529  0.30701  0.41926  1.0000
  C   C153      1.0  0.00033  0.44735  0.31344  1.0000
  H   H245      1.0  0.98766  0.42138  0.31662  1.0000
  H   H246      1.0  0.94507  0.47281  0.28573  1.0000
  C   C154      1.0  0.04090  0.45191  0.32541  1.0000
  S   S68       1.0  0.07165  0.41609  0.34751  1.0000
  Fe  Fe34      1.0  0.06024  0.32113  0.52449  1.0000
  C   C155      1.0  0.99286  0.51008  0.29088  1.0000
  Fe  Fe35      1.0  0.90565  0.53051  0.22326  1.0000
  H   H247      1.0  0.15180  0.43452  0.35765  1.0000
  C   C156      1.0  0.82388  0.38302  0.93384  1.0000
  H   H248      1.0  0.84355  0.35922  0.93183  1.0000
  C   C157      1.0  0.88835  0.33142  0.06200  1.0000
  H   H249      1.0  0.83043  0.39891  0.88580  1.0000
  H   H250      1.0  0.73819  0.34762  0.87351  1.0000
  C   C158      1.0  0.77040  0.35405  0.87309  1.0000
  H   H251      1.0  0.83689  0.34240  0.12752  1.0000
  H   H252      1.0  0.77637  0.36980  0.82464  1.0000
  H   H253      1.0  0.78724  0.32871  0.86737  1.0000
  C   C159      1.0  0.86277  0.35347  0.10185  1.0000
  H   H254      1.0  0.79352  0.32630  0.99811  1.0000
  H   H255      1.0  0.83267  0.39902  0.98071  1.0000
  N   N17       1.0  0.78152  0.37334  0.93826  1.0000
  H   H256      1.0  0.76451  0.42088  0.99444  1.0000
  H   H257      1.0  0.76115  0.42347  0.89946  1.0000
  C   C160      1.0  0.87028  0.38963  0.10755  1.0000
  H   H258      1.0  0.78191  0.36480  0.05092  1.0000
  H   H259      1.0  0.74328  0.34220  0.00456  1.0000
  C   C161      1.0  0.75686  0.40572  0.94561  1.0000
  H   H260      1.0  0.72469  0.39930  0.94925  1.0000
  C   C162      1.0  0.77477  0.35070  0.00068  1.0000
  H   H261      1.0  0.88198  0.30365  0.05773  1.0000
  Fe  Fe36      1.0  0.85099  0.47465  0.16431  1.0000
  S   S69       1.0  0.83615  0.41683  0.15461  1.0000
  H   H262      1.0  0.86996  0.31094  0.78367  1.0000
  C   C163      1.0  0.87867  0.31286  0.72887  1.0000
  C   C164      1.0  0.68502  0.28916  0.91862  1.0000
  S   S70       1.0  0.90726  0.49863  0.12333  1.0000
  C   C165      1.0  0.90406  0.40338  0.07432  1.0000
  S   S71       1.0  0.81047  0.51464  0.11422  1.0000
  C   C166      1.0  0.89473  0.34446  0.70391  1.0000
  H   H263      1.0  0.03513  0.37488  0.71850  1.0000
  C   C167      1.0  0.00831  0.35838  0.72609  1.0000
  H   H264      1.0  0.89892  0.36643  0.73999  1.0000
  H   H265      1.0  0.96849  0.29777  0.73341  1.0000
  H   H266      1.0  0.05433  0.28387  0.78362  1.0000
  H   H267      1.0  0.07566  0.32085  0.73837  1.0000
  H   H268      1.0  0.95441  0.32502  0.80838  1.0000
  H   H269      1.0  0.98350  0.37593  0.74477  1.0000
  C   C168      1.0  0.97895  0.30858  0.78497  1.0000
  H   H270      1.0  0.91018  0.43105  0.07783  1.0000
  H   H271      1.0  0.05511  0.35929  0.84110  1.0000
  N   N18       1.0  0.01559  0.32922  0.77596  1.0000
  H   H272      1.0  0.95588  0.39210  0.00909  1.0000
  H   H273      1.0  0.00368  0.36146  0.86843  1.0000
  C   C169      1.0  0.92196  0.34523  0.02827  1.0000
  H   H274      1.0  0.98372  0.28615  0.82159  1.0000
  C   C170      1.0  0.04765  0.30605  0.74722  1.0000
  C   C171      1.0  0.02732  0.34381  0.84549  1.0000
  S   S72       1.0  0.95251  0.31786  0.97467  1.0000
  C   C172      1.0  0.92999  0.38122  0.03509  1.0000
  H   H275      1.0  0.03226  0.32246  0.88481  1.0000
  C   C173      1.0  0.67962  0.28608  0.99202  1.0000
  H   H276      1.0  0.03952  0.29434  0.69501  1.0000
  H   H277      1.0  0.86608  0.59868  0.45612  1.0000
  C   C174      1.0  0.81881  0.63744  0.45992  1.0000
  C   C175      1.0  0.78318  0.64855  0.42958  1.0000
  C   C176      1.0  0.76769  0.63010  0.37143  1.0000
  C   C177      1.0  0.78774  0.60040  0.34350  1.0000
  C   C178      1.0  0.82318  0.58914  0.37436  1.0000
  C   C179      1.0  0.83845  0.60737  0.43295  1.0000
  H   H278      1.0  0.74066  0.63932  0.34726  1.0000
  H   H279      1.0  0.76768  0.67139  0.45104  1.0000
  H   H280      1.0  0.83901  0.56639  0.35321  1.0000
  S   S73       1.0  0.84040  0.66211  0.52835  1.0000
  H   H281      1.0  0.68955  0.67886  0.41296  1.0000
  S   S74       1.0  0.76907  0.57835  0.26869  1.0000
  S   S75       1.0  0.84414  0.75350  0.42993  1.0000
  C   C180      1.0  0.68316  0.70473  0.39183  1.0000
  S   S76       1.0  0.76432  0.74162  0.53089  1.0000
  S   S77       1.0  0.85099  0.75665  0.60383  1.0000
  C   C181      1.0  0.71423  0.72807  0.37861  1.0000
  Fe  Fe37      1.0  0.82622  0.71997  0.52225  1.0000
  H   H282      1.0  0.74454  0.71993  0.38760  1.0000
  C   C182      1.0  0.81224  0.67468  0.21742  1.0000
  H   H283      1.0  0.78702  0.68220  0.25342  1.0000
  N   N19       1.0  0.84959  0.69129  0.24000  1.0000
  C   C183      1.0  0.85848  0.68064  0.31330  1.0000
  H   H284      1.0  0.83402  0.68849  0.35038  1.0000
  H   H285      1.0  0.82018  0.73983  0.27116  1.0000
  H   H286      1.0  0.86239  0.65151  0.31727  1.0000
  C   C184      1.0  0.84522  0.73014  0.23673  1.0000
  Fe  Fe38      1.0  0.81710  0.54474  0.21676  1.0000
  H   H287      1.0  0.68550  0.57316  0.22264  1.0000
  C   C185      1.0  0.65847  0.61107  0.33484  1.0000
  C   C186      1.0  0.65864  0.58993  0.21380  1.0000
  C   C187      1.0  0.70614  0.76231  0.35581  1.0000
  H   H288      1.0  0.81469  0.64532  0.21738  1.0000
  H   H289      1.0  0.67215  0.75484  0.51574  1.0000
  Fe  Fe39      1.0  0.78410  0.77848  0.44496  1.0000
  H   H290      1.0  0.88613  0.69303  0.33286  1.0000
  H   H291      1.0  0.66784  0.63784  0.31810  1.0000
  H   H292      1.0  0.66920  0.61592  0.19450  1.0000
  H   H293      1.0  0.68578  0.59539  0.34632  1.0000
  C   C188      1.0  0.88249  0.67955  0.19261  1.0000
  H   H294      1.0  0.85507  0.68774  0.68087  1.0000
  S   S78       1.0  0.96347  0.54682  0.26950  1.0000
  C   C189      1.0  0.66704  0.77255  0.34146  1.0000
  H   H295      1.0  0.04621  0.54057  0.29921  1.0000
  H   H296      1.0  0.87269  0.74367  0.25417  1.0000
  H   H297      1.0  0.88637  0.65039  0.19352  1.0000
  H   H298      1.0  0.91109  0.69153  0.20852  1.0000
  Fe  Fe40      1.0  0.79038  0.78144  0.60393  1.0000
  H   H299      1.0  0.78802  0.65486  0.04761  1.0000
  C   C190      1.0  0.82982  0.61449  0.01400  1.0000
  H   H300      1.0  0.81097  0.59296  0.03022  1.0000
  C   C191      1.0  0.84381  0.66900  0.72138  1.0000
  C   C192      1.0  0.84221  0.67714  0.00673  1.0000
  C   C193      1.0  0.81697  0.64942  0.02421  1.0000
  N   N20       1.0  0.82090  0.68747  0.77828  1.0000
  H   H301      1.0  0.87367  0.70176  0.83423  1.0000
  C   C194      1.0  0.84625  0.71405  0.81280  1.0000
  S   S79       1.0  0.82792  0.72048  0.02650  1.0000
  H   H302      1.0  0.86996  0.65460  0.74277  1.0000
  H   H303      1.0  0.85536  0.73500  0.77500  1.0000
  C   C195      1.0  0.86708  0.60744  0.98324  1.0000
  C   C196      1.0  0.87961  0.67004  0.97651  1.0000
  C   C197      1.0  0.80750  0.66159  0.83147  1.0000
  C   C198      1.0  0.89166  0.63517  0.96304  1.0000
  S   S80       1.0  0.88468  0.56419  0.97777  1.0000
  H   H304      1.0  0.83308  0.64716  0.85475  1.0000
  Fe  Fe41      1.0  0.86726  0.54037  0.08126  1.0000
  H   H305      1.0  0.83043  0.72744  0.85806  1.0000
  Fe  Fe42      1.0  0.88179  0.75436  0.02291  1.0000
  H   H306      1.0  0.87686  0.68712  0.13685  1.0000
  H   H307      1.0  0.89945  0.69129  0.96394  1.0000
  H   H308      1.0  0.79090  0.67476  0.87605  1.0000
  H   H309      1.0  0.78774  0.64150  0.80760  1.0000
  S   S81       1.0  0.86976  0.57452  0.17812  1.0000
  H   H310      1.0  0.92061  0.62973  0.93974  1.0000
  C   C199      1.0  0.05510  0.78168  0.91197  1.0000
  H   H311      1.0  0.76877  0.72059  0.78842  1.0000
  H   H312      1.0  0.83901  0.73897  0.18167  1.0000
  C   C200      1.0  0.10294  0.73739  0.94779  1.0000
  H   H313      1.0  0.03276  0.58834  0.16830  1.0000
  H   H314      1.0  0.76565  0.68606  0.72229  1.0000
  C   C201      1.0  0.06342  0.74867  0.94127  1.0000
  S   S82       1.0  0.91825  0.76116  0.92396  1.0000
  H   H315      1.0  0.94888  0.57079  0.12196  1.0000
  C   C202      1.0  0.01565  0.62813  0.05392  1.0000
  N   N21       1.0  0.99993  0.59291  0.07151  1.0000
  H   H316      1.0  0.93942  0.61150  0.07729  1.0000
  H   H317      1.0  0.02232  0.56842  0.97538  1.0000
  H   H318      1.0  0.99493  0.64321  0.01952  1.0000
  H   H319      1.0  0.98150  0.54583  0.01699  1.0000
  C   C203      1.0  0.96157  0.59702  0.10954  1.0000
  S   S83       1.0  0.93413  0.74350  0.09149  1.0000
  H   H320      1.0  0.10949  0.71179  0.97010  1.0000
  C   C204      1.0  0.13411  0.75952  0.92683  1.0000
  H   H321      1.0  0.97258  0.58581  0.96996  1.0000
  H   H322      1.0  0.01687  0.54729  0.13184  1.0000
  H   H323      1.0  0.96489  0.61132  0.16092  1.0000
  C   C205      1.0  0.99398  0.57236  0.00553  1.0000
  H   H324      1.0  0.04461  0.62612  0.02495  1.0000
  H   H325      1.0  0.02034  0.64440  0.10250  1.0000
  Fe  Fe43      1.0  0.97060  0.75592  0.99514  1.0000
  H   H326      1.0  0.05763  0.57019  0.09083  1.0000
  S   S84       1.0  0.02453  0.72224  0.97240  1.0000
  C   C206      1.0  0.02818  0.57390  0.11738  1.0000
  C   C207      1.0  0.78598  0.70526  0.74749  1.0000
  H   H327      1.0  0.80413  0.68298  0.16297  1.0000
  H   H328      1.0  0.79502  0.72422  0.70580  1.0000
  H   H329      1.0  0.82531  0.64942  0.69272  1.0000
  S   S85       1.0  0.80440  0.82062  0.51936  1.0000
  N   N22       1.0  0.84631  0.88544  0.31946  1.0000
  C   C208      1.0  0.80571  0.87205  0.30918  1.0000
  H   H330      1.0  0.86490  0.85917  0.58393  1.0000
  H   H331      1.0  0.85049  0.92332  0.59068  1.0000
  C   C209      1.0  0.86320  0.89685  0.25068  1.0000
  C   C210      1.0  0.84505  0.91579  0.36933  1.0000
  C   C211      1.0  0.87143  0.85704  0.34880  1.0000
  H   H332      1.0  0.83335  0.90814  0.42248  1.0000
  C   C212      1.0  0.87584  0.91358  0.56020  1.0000
  C   C213      1.0  0.88361  0.87729  0.55563  1.0000
  H   H333      1.0  0.87520  0.92679  0.37734  1.0000
  S   S86       1.0  0.74432  0.79325  0.35551  1.0000
  H   H334      1.0  0.85986  0.84796  0.40093  1.0000
  H   H335      1.0  0.79222  0.86316  0.36019  1.0000
  H   H336      1.0  0.67774  0.83793  0.62249  1.0000
  Fe  Fe44      1.0  0.86330  0.79230  0.51264  1.0000
  H   H337      1.0  0.67592  0.81527  0.46732  1.0000
  H   H338      1.0  0.84432  0.91743  0.22567  1.0000
  H   H339      1.0  0.90231  0.86605  0.35701  1.0000
  S   S87       1.0  0.88619  0.98169  0.52081  1.0000
  H   H340      1.0  0.78578  0.89268  0.28701  1.0000
  H   H341      1.0  0.87321  0.83368  0.31268  1.0000
  C   C214      1.0  0.89984  0.93717  0.52303  1.0000
  H   H342      1.0  0.82606  0.93769  0.34944  1.0000
  C   C215      1.0  0.67724  0.80935  0.60840  1.0000
  H   H343      1.0  0.70628  0.80271  0.58245  1.0000
  H   H344      1.0  0.10078  0.87286  0.19822  1.0000
  H   H345      1.0  0.81541  0.84872  0.67138  1.0000
  H   H346      1.0  0.86647  0.87429  0.21266  1.0000
  H   H347      1.0  0.89322  0.90838  0.25738  1.0000
  H   H348      1.0  0.67576  0.79441  0.65899  1.0000
  H   H349      1.0  0.80565  0.84897  0.27215  1.0000
  H   H350      1.0  0.66076  0.79897  0.32295  1.0000
  C   C216      1.0  0.96111  0.86448  0.22198  1.0000
  C   C217      1.0  0.94134  0.88830  0.48184  1.0000
  H   H351      1.0  0.99765  0.92529  0.33752  1.0000
  H   H352      1.0  0.94552  0.88741  0.65632  1.0000
  S   S88       1.0  0.94376  0.82114  0.22072  1.0000
  S   S89       1.0  0.00726  0.97689  0.22788  1.0000
  C   C218      1.0  0.98821  0.93416  0.22627  1.0000
  S   S90       1.0  0.90722  0.00117  0.31915  1.0000
  Fe  Fe45      1.0  0.97270  0.00995  0.30696  1.0000
  C   C219      1.0  0.93307  0.92462  0.48486  1.0000
  H   H353      1.0  0.03036  0.85966  0.63511  1.0000
  H   H354      1.0  0.96672  0.87856  0.45169  1.0000
  S   S91       1.0  0.92205  0.81918  0.50147  1.0000
  C   C220      1.0  0.98741  0.91406  0.28812  1.0000
  H   H355      1.0  0.97497  0.86306  0.33282  1.0000
  S   S92       1.0  0.98409  0.01433  0.42383  1.0000
  H   H356      1.0  0.92640  0.82560  0.65183  1.0000
  Fe  Fe46      1.0  0.91787  0.01101  0.43478  1.0000
  C   C221      1.0  0.00529  0.84078  0.63458  1.0000
  C   C222      1.0  0.97451  0.87902  0.28558  1.0000
  H   H357      1.0  0.95187  0.94281  0.45649  1.0000
  C   C223      1.0  0.91560  0.86460  0.51477  1.0000
  H   H358      1.0  0.98798  0.84591  0.58577  1.0000
  H   H359      1.0  0.01798  0.81363  0.62935  1.0000
  H   H360      1.0  0.95807  0.79172  0.68650  1.0000
  H   H361      1.0  0.84394  0.80896  0.91502  1.0000
  C   C224      1.0  0.83777  0.81800  0.86224  1.0000
  C   C225      1.0  0.85367  0.85458  0.76136  1.0000
  C   C226      1.0  0.86235  0.84287  0.82971  1.0000
  C   C227      1.0  0.79745  0.81507  0.75706  1.0000
  H   H362      1.0  0.87216  0.87407  0.73604  1.0000
  C   C228      1.0  0.82163  0.84020  0.72465  1.0000
  S   S93       1.0  0.87753  0.81167  0.05159  1.0000
  C   C229      1.0  0.80499  0.80451  0.82640  1.0000
  S   S94       1.0  0.90574  0.85679  0.87184  1.0000
  S   S95       1.0  0.76095  0.79386  0.70784  1.0000
  H   H363      1.0  0.78630  0.78514  0.85170  1.0000
  H   H364      1.0  0.06701  0.80749  0.06257  1.0000
  H   H365      1.0  0.92919  0.81938  0.74546  1.0000
  H   H366      1.0  0.02470  0.79006  0.90479  1.0000
  H   H367      1.0  0.02939  0.85573  0.76661  1.0000
  H   H368      1.0  0.97533  0.93526  0.11469  1.0000
  N   N23       1.0  0.98003  0.84457  0.69898  1.0000
  H   H369      1.0  0.02392  0.87893  0.05865  1.0000
  C   C230      1.0  0.12570  0.79284  0.89902  1.0000
  Fe  Fe47      1.0  0.93368  0.80180  0.11036  1.0000
  C   C231      1.0  0.00399  0.83731  0.76251  1.0000
  H   H370      1.0  0.94454  0.88488  0.75115  1.0000
  H   H371      1.0  0.12389  0.84180  0.01490  1.0000
  C   C232      1.0  0.97513  0.91952  0.16237  1.0000
  C   C233      1.0  0.12227  0.85845  0.06383  1.0000
  H   H372      1.0  0.06483  0.90351  0.02391  1.0000
  C   C234      1.0  0.05506  0.87653  0.03869  1.0000
  H   H373      1.0  0.03639  0.82593  0.13289  1.0000
  Fe  Fe48      1.0  0.91798  0.81798  0.95732  1.0000
  C   C235      1.0  0.08617  0.80374  0.89109  1.0000
  H   H374      1.0  0.98578  0.84037  0.81205  1.0000
  H   H375      1.0  0.01625  0.80989  0.76149  1.0000
  C   C236      1.0  0.96103  0.88482  0.16043  1.0000
  H   H376      1.0  0.94977  0.87403  0.11149  1.0000
  C   C237      1.0  0.08040  0.88322  0.15719  1.0000
  H   H377      1.0  0.07966  0.82938  0.86899  1.0000
  H   H378      1.0  0.05475  0.86017  0.98938  1.0000
  S   S96       1.0  0.97428  0.81385  0.01897  1.0000
  N   N24       1.0  0.08124  0.86082  0.09253  1.0000
  H   H379      1.0  0.08646  0.81227  0.15029  1.0000
  H   H380      1.0  0.14296  0.84652  0.10268  1.0000
  H   H381      1.0  0.05013  0.88450  0.18154  1.0000
  C   C238      1.0  0.06717  0.82507  0.11031  1.0000
  H   H382      1.0  0.13385  0.88492  0.04963  1.0000
  H   H383      1.0  0.08913  0.91087  0.14545  1.0000
  C   C239      1.0  0.96384  0.88099  0.70331  1.0000
  H   H384      1.0  0.98786  0.90085  0.70605  1.0000
  C   C240      1.0  0.94705  0.81919  0.69551  1.0000
