data_image0
_chemical_formula_structural       H6C2HSH3C3SC5NCSCSH2FeCHCS2C3HCHFeH2FeHFeH2SH5C4FeHCHSCHCHC2HCSH2C2HFeHCHNHCHCHSCH6SHCSCHCSC2H2SFe2CHS2CH2CHCHC3H5SH5SCH4C2NH6NH4SHC3HCFe2CH3CHCH2SCHCNH2CSCSHSFeHC2H6CSHFeH3C2H4CHSHCNCHC2H4CFeH2SCH2SH4CSHCH2CHCSH2NC2H3C3HFeH2SFeHCFe2S4HSHFe2H4CH3CHC5FeS2CHS2CHFe2HFeH2CHCNHCH2C2H4C2SHC2H2NHC2HCH2CHC2SH2CHCHCHC3NSCHCH3CH4CH3CHC2H2CH2NSH2SHFeH2CSHCHSH2CH5SHFeS2C3HSHC2SCH3C2H2CH3CFeC2HFeH2SH4CH3CH2CSFeNHSCH3FeH2C2NC2H4SHC3SH2CH5C2S2CHCH2CHNH4CHSHCHCHCHSHC3HFeSFeSHSHC3FeCH2S3FeHSCH2CHC3HCHSCNC3SNH3C2H7CH4CH5CHCHFe2CSFeHCHCHSCH2NHCH2SHSC3HFeSH4CH3CH6CHC2HCH4NHC2NCSH3CHC2SC3H6NCSHCH2NFeHCHSHSFeH2FeCH2C3HSC3H6SCHCHSNCH3CHCHCH3SCH5SCH5CNSCHSFeS2HC2Fe2HFeCSCHCHCHC2SFe3S3CH2NSC2H4CSH2C2H2FeCH3C3SH3
_chemical_formula_sum              "H384 C240 S96 N24 Fe48"
_cell_length_a       35.7875
_cell_length_b       26.8389
_cell_length_c       29.269
_cell_angle_alpha    89.9962
_cell_angle_beta     88.8752
_cell_angle_gamma    89.9841

_space_group_name_H-M_alt    "P 1"
_space_group_IT_number       1

loop_
  _space_group_symop_operation_xyz
  'x, y, z'

loop_
  _atom_site_type_symbol
  _atom_site_label
  _atom_site_symmetry_multiplicity
  _atom_site_fract_x
  _atom_site_fract_y
  _atom_site_fract_z
  _atom_site_occupancy
  H   H1        1.0  0.18910  0.13890  0.15329  1.0000
  H   H2        1.0  0.31812  0.05978  0.19476  1.0000
  H   H3        1.0  0.11283  0.09595  0.18202  1.0000
  H   H4        1.0  0.35491  0.29560  0.61791  1.0000
  H   H5        1.0  0.11779  0.20636  0.52722  1.0000
  H   H6        1.0  0.26113  0.43119  0.60828  1.0000
  C   C1        1.0  0.14016  0.09599  0.51656  1.0000
  C   C2        1.0  0.31890  0.41300  0.61936  1.0000
  H   H7        1.0  0.15737  0.11205  0.48955  1.0000
  S   S1        1.0  0.17290  0.23310  0.60148  1.0000
  H   H8        1.0  0.16791  0.13546  0.57006  1.0000
  H   H9        1.0  0.24184  0.34326  0.59798  1.0000
  H   H10       1.0  0.33272  0.51382  0.53701  1.0000
  C   C3        1.0  0.28176  0.40175  0.60964  1.0000
  C   C4        1.0  0.34552  0.37483  0.62064  1.0000
  C   C5        1.0  0.29696  0.31365  0.60855  1.0000
  S   S2        1.0  0.28229  0.25168  0.61350  1.0000
  C   C6        1.0  0.33461  0.32520  0.61469  1.0000
  C   C7        1.0  0.14581  0.10982  0.56205  1.0000
  C   C8        1.0  0.27078  0.35199  0.60423  1.0000
  C   C9        1.0  0.12336  0.08971  0.59704  1.0000
  C   C10       1.0  0.11241  0.06139  0.50603  1.0000
  N   N1        1.0  0.31029  0.32205  0.75671  1.0000
  C   C11       1.0  0.18944  0.37784  0.78020  1.0000
  S   S3        1.0  0.19822  0.31555  0.67739  1.0000
  C   C12       1.0  0.32663  0.34814  0.79605  1.0000
  S   S4        1.0  0.20895  0.19620  0.69932  1.0000
  H   H11       1.0  0.20115  0.45265  0.75719  1.0000
  H   H12       1.0  0.30452  0.36654  0.81749  1.0000
  Fe  Fe1       1.0  0.17894  0.26140  0.73107  1.0000
  C   C13       1.0  0.28434  0.28293  0.77331  1.0000
  H   H13       1.0  0.17376  0.36837  0.75039  1.0000
  C   C14       1.0  0.20427  0.42588  0.78451  1.0000
  S   S5        1.0  0.18288  0.27980  0.80596  1.0000
  S   S6        1.0  0.24002  0.49972  0.83055  1.0000
  C   C15       1.0  0.19453  0.34252  0.81465  1.0000
  C   C16       1.0  0.21180  0.35657  0.85513  1.0000
  C   C17       1.0  0.22249  0.43940  0.82441  1.0000
  H   H14       1.0  0.26223  0.29870  0.79614  1.0000
  C   C18       1.0  0.28971  0.35830  0.72875  1.0000
  H   H15       1.0  0.26999  0.26428  0.74448  1.0000
  Fe  Fe2       1.0  0.15611  0.18439  0.66077  1.0000
  H   H16       1.0  0.27692  0.33993  0.69888  1.0000
  H   H17       1.0  0.13939  0.50047  0.74124  1.0000
  Fe  Fe3       1.0  0.14569  0.29439  0.64211  1.0000
  H   H18       1.0  0.26670  0.37629  0.74873  1.0000
  Fe  Fe4       1.0  0.22362  0.24927  0.64247  1.0000
  H   H19       1.0  0.35747  0.27278  0.74907  1.0000
  H   H20       1.0  0.29907  0.25366  0.79293  1.0000
  S   S7        1.0  0.12452  0.24438  0.69818  1.0000
  H   H21       1.0  0.34207  0.32195  0.81831  1.0000
  H   H22       1.0  0.30832  0.38845  0.71546  1.0000
  H   H23       1.0  0.34656  0.37765  0.78454  1.0000
  H   H24       1.0  0.16905  0.53179  0.81180  1.0000
  H   H25       1.0  0.13125  0.45347  0.81291  1.0000
  C   C19       1.0  0.22538  0.40518  0.86023  1.0000
  C   C20       1.0  0.16080  0.39673  0.05502  1.0000
  C   C21       1.0  0.34424  0.51902  0.87931  1.0000
  C   C22       1.0  0.34030  0.29878  0.72861  1.0000
  Fe  Fe5       1.0  0.21006  0.47867  0.99615  1.0000
  H   H26       1.0  0.32847  0.27698  0.69989  1.0000
  C   C23       1.0  0.18527  0.28875  0.98116  1.0000
  H   H27       1.0  0.34118  0.51368  0.91692  1.0000
  S   S8        1.0  0.12792  0.10994  0.65363  1.0000
  C   C24       1.0  0.11611  0.34429  0.09555  1.0000
  H   H28       1.0  0.35946  0.32725  0.71348  1.0000
  C   C25       1.0  0.11483  0.52384  0.75111  1.0000
  H   H29       1.0  0.13485  0.29582  0.91518  1.0000
  C   C26       1.0  0.19766  0.07883  0.10547  1.0000
  C   C27       1.0  0.14755  0.13924  0.10093  1.0000
  H   H30       1.0  0.12235  0.23092  0.91368  1.0000
  C   C28       1.0  0.12287  0.26099  0.00107  1.0000
  S   S9        1.0  0.20643  0.40659  0.03431  1.0000
  H   H31       1.0  0.19398  0.28615  0.01738  1.0000
  H   H32       1.0  0.19523  0.19327  0.95663  1.0000
  C   C29       1.0  0.14496  0.25750  0.92259  1.0000
  C   C30       1.0  0.15284  0.35421  0.08097  1.0000
  H   H33       1.0  0.31970  0.50124  0.86309  1.0000
  Fe  Fe6       1.0  0.22574  0.52040  0.90247  1.0000
  H   H34       1.0  0.17512  0.32908  0.09011  1.0000
  C   C31       1.0  0.13209  0.43007  0.04470  1.0000
  H   H35       1.0  0.17785  0.19536  0.01469  1.0000
  N   N2        1.0  0.15579  0.25212  0.97082  1.0000
  H   H36       1.0  0.21553  0.32960  0.88209  1.0000
  C   C32       1.0  0.13428  0.11564  0.06188  1.0000
  H   H37       1.0  0.17549  0.32765  0.97557  1.0000
  C   C33       1.0  0.17010  0.20116  0.97840  1.0000
  H   H38       1.0  0.12970  0.25496  0.03762  1.0000
  S   S10       1.0  0.26316  0.49995  0.95949  1.0000
  C   C34       1.0  0.15378  0.07496  0.04344  1.0000
  H   H39       1.0  0.21063  0.28311  0.95921  1.0000
  H   H40       1.0  0.23886  0.41579  0.89154  1.0000
  H   H41       1.0  0.13817  0.46350  0.02540  1.0000
  H   H42       1.0  0.16899  0.24997  0.89888  1.0000
  H   H43       1.0  0.14866  0.17258  0.97024  1.0000
  H   H44       1.0  0.11226  0.29981  0.99781  1.0000
  S   S11       1.0  0.17335  0.49226  0.93641  1.0000
  H   H45       1.0  0.14403  0.05704  0.01276  1.0000
  C   C35       1.0  0.14299  0.55230  0.82060  1.0000
  S   S12       1.0  0.33141  0.47388  0.63397  1.0000
  C   C36       1.0  0.18533  0.05636  0.06540  1.0000
  H   H46       1.0  0.13364  0.17166  0.11444  1.0000
  C   C37       1.0  0.17931  0.12101  0.12262  1.0000
  S   S13       1.0  0.21973  0.92778  0.19427  1.0000
  C   C38       1.0  0.14980  0.82397  0.29983  1.0000
  C   C39       1.0  0.15222  0.83411  0.25285  1.0000
  H   H47       1.0  0.17445  0.81256  0.31786  1.0000
  H   H48       1.0  0.17873  0.83045  0.23475  1.0000
  S   S14       1.0  0.31007  0.85577  0.21798  1.0000
  Fe  Fe7       1.0  0.26520  0.87677  0.16921  1.0000
  Fe  Fe8       1.0  0.18229  0.88088  0.15159  1.0000
  C   C40       1.0  0.35288  0.85256  0.18811  1.0000
  H   H49       1.0  0.17761  0.96605  0.33265  1.0000
  S   S15       1.0  0.22647  0.82506  0.13280  1.0000
  S   S16       1.0  0.12318  0.86323  0.17127  1.0000
  C   C41       1.0  0.16273  0.95512  0.36482  1.0000
  H   H50       1.0  0.14492  0.92245  0.35671  1.0000
  H   H51       1.0  0.13390  0.01297  0.24785  1.0000
  C   C42       1.0  0.35365  0.84443  0.14091  1.0000
  H   H52       1.0  0.22911  0.91060  0.35422  1.0000
  C   C43       1.0  0.11570  0.82974  0.32347  1.0000
  H   H53       1.0  0.13738  0.96396  0.20624  1.0000
  C   C44       1.0  0.12024  0.84835  0.22938  1.0000
  C   C45       1.0  0.32596  0.03260  0.16753  1.0000
  C   C46       1.0  0.13253  0.00468  0.21070  1.0000
  H   H54       1.0  0.30628  0.00062  0.17092  1.0000
  H   H55       1.0  0.15612  0.02448  0.19307  1.0000
  H   H56       1.0  0.35099  0.95807  0.21869  1.0000
  H   H57       1.0  0.35168  0.57875  0.59142  1.0000
  H   H58       1.0  0.14386  0.98641  0.37503  1.0000
  S   S17       1.0  0.23442  0.05266  0.13583  1.0000
  H   H59       1.0  0.32050  0.05061  0.13402  1.0000
  H   H60       1.0  0.22817  0.99992  0.38040  1.0000
  H   H61       1.0  0.35659  0.94790  0.13473  1.0000
  H   H62       1.0  0.23413  0.89170  0.41281  1.0000
  H   H63       1.0  0.15042  0.89508  0.43711  1.0000
  S   S18       1.0  0.11357  0.82397  0.38300  1.0000
  C   C47       1.0  0.16811  0.92840  0.44323  1.0000
  H   H64       1.0  0.18710  0.91914  0.47161  1.0000
  H   H65       1.0  0.19664  0.86731  0.37969  1.0000
  H   H66       1.0  0.14924  0.95876  0.45543  1.0000
  H   H67       1.0  0.19405  0.01939  0.42272  1.0000
  C   C48       1.0  0.21201  0.98755  0.41123  1.0000
  C   C49       1.0  0.21344  0.90145  0.38639  1.0000
  N   N3        1.0  0.18913  0.94313  0.40141  1.0000
  H   H68       1.0  0.23221  0.98002  0.43882  1.0000
  H   H69       1.0  0.33284  0.60277  0.51319  1.0000
  H   H70       1.0  0.13457  0.69910  0.82849  1.0000
  H   H71       1.0  0.14616  0.59093  0.80724  1.0000
  H   H72       1.0  0.31367  0.63885  0.87490  1.0000
  H   H73       1.0  0.11876  0.56125  0.73534  1.0000
  N   N4        1.0  0.34697  0.57245  0.86741  1.0000
  H   H74       1.0  0.35391  0.61759  0.80713  1.0000
  H   H75       1.0  0.26341  0.68021  0.93926  1.0000
  H   H76       1.0  0.11922  0.81686  0.69236  1.0000
  H   H77       1.0  0.14051  0.64403  0.05789  1.0000
  S   S19       1.0  0.28002  0.92266  0.10739  1.0000
  H   H78       1.0  0.12544  0.68188  0.10547  1.0000
  C   C50       1.0  0.35205  0.57775  0.81739  1.0000
  C   C51       1.0  0.13043  0.68187  0.06782  1.0000
  C   C52       1.0  0.26362  0.78693  0.00148  1.0000
  H   H79       1.0  0.19145  0.70930  0.11286  1.0000
  C   C53       1.0  0.26863  0.70489  0.96740  1.0000
  Fe  Fe9       1.0  0.25054  0.57693  0.98478  1.0000
  Fe  Fe10      1.0  0.16817  0.56966  0.96460  1.0000
  C   C54       1.0  0.25731  0.75472  0.96491  1.0000
  H   H80       1.0  0.28894  0.79526  0.06717  1.0000
  H   H81       1.0  0.21467  0.73962  0.06585  1.0000
  H   H82       1.0  0.20586  0.67406  0.06319  1.0000
  C   C55       1.0  0.19394  0.71035  0.07491  1.0000
  H   H83       1.0  0.30969  0.70715  0.07121  1.0000
  C   C56       1.0  0.12499  0.65960  0.89179  1.0000
  H   H84       1.0  0.30719  0.59393  0.91956  1.0000
  H   H85       1.0  0.16364  0.80036  0.05841  1.0000
  S   S20       1.0  0.29697  0.62391  0.01174  1.0000
  C   C57       1.0  0.16224  0.72048  0.00349  1.0000
  H   H86       1.0  0.18157  0.75054  0.99170  1.0000
  C   C58       1.0  0.31230  0.59818  0.88216  1.0000
  N   N5        1.0  0.15758  0.72071  0.05380  1.0000
  H   H87       1.0  0.15419  0.65864  0.90017  1.0000
  H   H88       1.0  0.28754  0.58285  0.86452  1.0000
  C   C59       1.0  0.14388  0.77016  0.06896  1.0000
  S   S21       1.0  0.18978  0.92732  0.08894  1.0000
  C   C60       1.0  0.28350  0.77022  0.03919  1.0000
  S   S22       1.0  0.21702  0.59936  0.92421  1.0000
  H   H89       1.0  0.17380  0.68433  0.99101  1.0000
  S   S23       1.0  0.24313  0.84605  0.00164  1.0000
  Fe  Fe11      1.0  0.23730  0.87560  0.07289  1.0000
  H   H90       1.0  0.13508  0.72622  0.98633  1.0000
  C   C61       1.0  0.28676  0.68739  0.00612  1.0000
  C   C62       1.0  0.29528  0.72044  0.04140  1.0000
  H   H91       1.0  0.14056  0.77213  0.10687  1.0000
  H   H92       1.0  0.20020  0.02479  0.05110  1.0000
  H   H93       1.0  0.24243  0.76787  0.93542  1.0000
  H   H94       1.0  0.11628  0.77904  0.05410  1.0000
  H   H95       1.0  0.32837  0.56060  0.79886  1.0000
  H   H96       1.0  0.32822  0.83508  0.12358  1.0000
  C   C63       1.0  0.11382  0.68292  0.85142  1.0000
  S   S24       1.0  0.20081  0.55392  0.02763  1.0000
  H   H97       1.0  0.14071  0.55486  0.85852  1.0000
  Fe  Fe12      1.0  0.23146  0.96966  0.12960  1.0000
  H   H98       1.0  0.11873  0.02833  0.12390  1.0000
  H   H99       1.0  0.53556  0.14460  0.28679  1.0000
  H   H100      1.0  0.48061  0.11218  0.32620  1.0000
  C   C64       1.0  0.56042  0.13622  0.26478  1.0000
  C   C65       1.0  0.49025  0.08005  0.34490  1.0000
  H   H101      1.0  0.56998  0.10538  0.35216  1.0000
  H   H102      1.0  0.56150  0.16457  0.23707  1.0000
  H   H103      1.0  0.55565  0.09936  0.24850  1.0000
  H   H104      1.0  0.57492  0.19478  0.33576  1.0000
  C   C66       1.0  0.58214  0.12197  0.14548  1.0000
  H   H105      1.0  0.39491  0.54696  0.59913  1.0000
  S   S25       1.0  0.53661  0.09885  0.15268  1.0000
  H   H106      1.0  0.43613  0.52660  0.53324  1.0000
  C   C67       1.0  0.59943  0.18556  0.31329  1.0000
  N   N6        1.0  0.59504  0.13635  0.29139  1.0000
  C   C68       1.0  0.59270  0.09728  0.32688  1.0000
  H   H107      1.0  0.60275  0.21579  0.28748  1.0000
  C   C69       1.0  0.39025  0.06003  0.16813  1.0000
  C   C70       1.0  0.58805  0.17349  0.14486  1.0000
  H   H108      1.0  0.56448  0.19863  0.14763  1.0000
  H   H109      1.0  0.38425  0.08686  0.19632  1.0000
  H   H110      1.0  0.38698  0.08026  0.13523  1.0000
  H   H111      1.0  0.42278  0.54403  0.47653  1.0000
  C   C71       1.0  0.59406  0.54435  0.58910  1.0000
  Fe  Fe13      1.0  0.55883  0.14492  0.45355  1.0000
  H   H112      1.0  0.57520  0.37627  0.56312  1.0000
  H   H113      1.0  0.48052  0.29360  0.55149  1.0000
  S   S26       1.0  0.60009  0.08251  0.44813  1.0000
  C   C72       1.0  0.55581  0.54155  0.60058  1.0000
  H   H114      1.0  0.37428  0.38315  0.62794  1.0000
  H   H115      1.0  0.37591  0.48198  0.54481  1.0000
  S   S27       1.0  0.56224  0.15270  0.52939  1.0000
  H   H116      1.0  0.41249  0.28536  0.56224  1.0000
  H   H117      1.0  0.57262  0.22253  0.60396  1.0000
  H   H118      1.0  0.40825  0.26759  0.50333  1.0000
  H   H119      1.0  0.50788  0.24228  0.53036  1.0000
  C   C73       1.0  0.56086  0.25960  0.60536  1.0000
  S   S28       1.0  0.43599  0.45262  0.61432  1.0000
  H   H120      1.0  0.38936  0.22830  0.54782  1.0000
  C   C74       1.0  0.50150  0.08534  0.39017  1.0000
  H   H121      1.0  0.48193  0.18805  0.59041  1.0000
  H   H122      1.0  0.54512  0.51038  0.62029  1.0000
  C   C75       1.0  0.41327  0.25304  0.53829  1.0000
  H   H123      1.0  0.43221  0.18039  0.59729  1.0000
  C   C76       1.0  0.48014  0.26085  0.52815  1.0000
  S   S29       1.0  0.50578  0.14485  0.41403  1.0000
  H   H124      1.0  0.47764  0.27501  0.49261  1.0000
  H   H125      1.0  0.42645  0.15734  0.51575  1.0000
  N   N7        1.0  0.44934  0.22631  0.54038  1.0000
  C   C77       1.0  0.53124  0.35606  0.61093  1.0000
  C   C78       1.0  0.45452  0.20733  0.58724  1.0000
  H   H126      1.0  0.51954  0.39321  0.61262  1.0000
  H   H127      1.0  0.44626  0.19690  0.47206  1.0000
  H   H128      1.0  0.47624  0.16289  0.50900  1.0000
  C   C79       1.0  0.56269  0.34645  0.58294  1.0000
  C   C80       1.0  0.57699  0.29795  0.57947  1.0000
  C   C81       1.0  0.44948  0.18406  0.50797  1.0000
  H   H129      1.0  0.45374  0.23818  0.61270  1.0000
  Fe  Fe14      1.0  0.60743  0.09456  0.52308  1.0000
  H   H130      1.0  0.36205  0.49903  0.48821  1.0000
  H   H131      1.0  0.58704  0.06004  0.31185  1.0000
  S   S30       1.0  0.60117  0.20378  0.43819  1.0000
  Fe  Fe15      1.0  0.60875  0.20688  0.51379  1.0000
  H   H132      1.0  0.61015  0.38230  0.48605  1.0000
  C   C82       1.0  0.36228  0.51165  0.52439  1.0000
  Fe  Fe16      1.0  0.45720  0.40724  0.67246  1.0000
  Fe  Fe17      1.0  0.43963  0.48546  0.74292  1.0000
  S   S31       1.0  0.40706  0.42038  0.71767  1.0000
  S   S32       1.0  0.49166  0.46938  0.70140  1.0000
  S   S33       1.0  0.44198  0.49928  0.81817  1.0000
  S   S34       1.0  0.47264  0.32670  0.66622  1.0000
  H   H133      1.0  0.51730  0.23949  0.65365  1.0000
  S   S35       1.0  0.41561  0.53845  0.69249  1.0000
  H   H134      1.0  0.49608  0.51829  0.88712  1.0000
  Fe  Fe18      1.0  0.38880  0.47142  0.66218  1.0000
  Fe  Fe19      1.0  0.46455  0.51669  0.64788  1.0000
  H   H135      1.0  0.36971  0.49829  0.86780  1.0000
  H   H136      1.0  0.57860  0.22154  0.00062  1.0000
  H   H137      1.0  0.61163  0.50981  0.96114  1.0000
  H   H138      1.0  0.59083  0.46492  0.03096  1.0000
  C   C83       1.0  0.60611  0.28842  0.05931  1.0000
  H   H139      1.0  0.58812  0.32142  0.05264  1.0000
  H   H140      1.0  0.60833  0.23807  0.95280  1.0000
  H   H141      1.0  0.57596  0.28295  0.97633  1.0000
  C   C84       1.0  0.59553  0.25231  0.98522  1.0000
  H   H142      1.0  0.58831  0.25934  0.07586  1.0000
  C   C85       1.0  0.47049  0.55091  0.82823  1.0000
  C   C86       1.0  0.49472  0.55063  0.86512  1.0000
  C   C87       1.0  0.51447  0.31722  0.63569  1.0000
  C   C88       1.0  0.52973  0.26928  0.63363  1.0000
  C   C89       1.0  0.41951  0.86939  0.18546  1.0000
  Fe  Fe20      1.0  0.52298  0.94404  0.24521  1.0000
  S   S36       1.0  0.51174  0.93447  0.32007  1.0000
  S   S37       1.0  0.48489  0.98090  0.19577  1.0000
  C   C90       1.0  0.50591  0.99210  0.34726  1.0000
  H   H143      1.0  0.44482  0.87940  0.20281  1.0000
  S   S38       1.0  0.57415  0.98587  0.22255  1.0000
  S   S39       1.0  0.53456  0.87740  0.20118  1.0000
  C   C91       1.0  0.38607  0.86327  0.21062  1.0000
  H   H144      1.0  0.38561  0.86906  0.24722  1.0000
  Fe  Fe21      1.0  0.58257  0.92242  0.17369  1.0000
  Fe  Fe22      1.0  0.53721  0.01717  0.16865  1.0000
  H   H145      1.0  0.57864  0.88369  0.29027  1.0000
  Fe  Fe23      1.0  0.50122  0.91797  0.14918  1.0000
  H   H146      1.0  0.56728  0.88160  0.37334  1.0000
  H   H147      1.0  0.48571  0.02994  0.28771  1.0000
  C   C92       1.0  0.41985  0.86368  0.13793  1.0000
  H   H148      1.0  0.59344  0.80513  0.18602  1.0000
  C   C93       1.0  0.37031  0.99049  0.21507  1.0000
  N   N8        1.0  0.36526  0.01625  0.17097  1.0000
  H   H149      1.0  0.58231  0.72407  0.14859  1.0000
  C   C94       1.0  0.49326  0.03362  0.32310  1.0000
  H   H150      1.0  0.36460  0.01572  0.24452  1.0000
  H   H151      1.0  0.39928  0.97590  0.21823  1.0000
  C   C95       1.0  0.60825  0.79601  0.15463  1.0000
  C   C96       1.0  0.37448  0.98169  0.13309  1.0000
  H   H152      1.0  0.40407  0.96890  0.13424  1.0000
  H   H153      1.0  0.60830  0.04966  0.14218  1.0000
  H   H154      1.0  0.59247  0.92312  0.58259  1.0000
  H   H155      1.0  0.39561  0.61111  0.58301  1.0000
  C   C97       1.0  0.51357  0.04366  0.41444  1.0000
  C   C98       1.0  0.61143  0.92659  0.55354  1.0000
  S   S40       1.0  0.48436  0.57952  0.60326  1.0000
  H   H156      1.0  0.52499  0.96489  0.41203  1.0000
  C   C99       1.0  0.54559  0.61974  0.56144  1.0000
  C   C100      1.0  0.38083  0.57511  0.57774  1.0000
  H   H157      1.0  0.43652  0.59071  0.51709  1.0000
  H   H158      1.0  0.37641  0.63516  0.50481  1.0000
  N   N9        1.0  0.38163  0.56000  0.52920  1.0000
  H   H159      1.0  0.52695  0.64909  0.55074  1.0000
  C   C101      1.0  0.58370  0.62260  0.55017  1.0000
  C   C102      1.0  0.53170  0.57964  0.58711  1.0000
  H   H160      1.0  0.59422  0.65362  0.53021  1.0000
  C   C103      1.0  0.51534  0.99695  0.39318  1.0000
  H   H161      1.0  0.58957  0.95986  0.33654  1.0000
  H   H162      1.0  0.42014  0.04890  0.17036  1.0000
  C   C104      1.0  0.42090  0.55509  0.51312  1.0000
  H   H163      1.0  0.59907  0.83019  0.37955  1.0000
  C   C105      1.0  0.60808  0.58542  0.56461  1.0000
  C   C106      1.0  0.59718  0.87153  0.37784  1.0000
  S   S41       1.0  0.60800  0.02711  0.56868  1.0000
  H   H164      1.0  0.60979  0.83169  0.29439  1.0000
  H   H165      1.0  0.60555  0.88610  0.41173  1.0000
  C   C107      1.0  0.60820  0.87305  0.29613  1.0000
  H   H166      1.0  0.36259  0.58804  0.46489  1.0000
  C   C108      1.0  0.36253  0.59820  0.50177  1.0000
  H   H167      1.0  0.52184  0.04744  0.44963  1.0000
  C   C109      1.0  0.60229  0.74992  0.13367  1.0000
  H   H168      1.0  0.48876  0.66729  0.78754  1.0000
  C   C110      1.0  0.46860  0.59284  0.80001  1.0000
  C   C111      1.0  0.51616  0.63362  0.84477  1.0000
  C   C112      1.0  0.49085  0.63456  0.80889  1.0000
  N   N10       1.0  0.58378  0.65322  0.71045  1.0000
  S   S42       1.0  0.54540  0.68505  0.85342  1.0000
  C   C113      1.0  0.51803  0.59162  0.87289  1.0000
  H   H169      1.0  0.44954  0.59348  0.77183  1.0000
  C   C114      1.0  0.55838  0.60986  0.70831  1.0000
  H   H170      1.0  0.54317  0.60401  0.74141  1.0000
  H   H171      1.0  0.53705  0.61487  0.68148  1.0000
  H   H172      1.0  0.54694  0.69726  0.75301  1.0000
  C   C115      1.0  0.56174  0.69892  0.71927  1.0000
  H   H173      1.0  0.57393  0.57495  0.70020  1.0000
  H   H174      1.0  0.54051  0.70492  0.69255  1.0000
  H   H175      1.0  0.61189  0.78906  0.77406  1.0000
  H   H176      1.0  0.53709  0.59075  0.90091  1.0000
  C   C116      1.0  0.60447  0.65832  0.66651  1.0000
  H   H177      1.0  0.38281  0.63470  0.88168  1.0000
  H   H178      1.0  0.59573  0.64217  0.78138  1.0000
  H   H179      1.0  0.57995  0.73249  0.71963  1.0000
  C   C117      1.0  0.61052  0.64597  0.74770  1.0000
  H   H180      1.0  0.40565  0.57511  0.88168  1.0000
  C   C118      1.0  0.37914  0.59475  0.89087  1.0000
  C   C119      1.0  0.52072  0.78279  0.06767  1.0000
  H   H181      1.0  0.37813  0.55914  0.80508  1.0000
  H   H182      1.0  0.54090  0.71864  0.00144  1.0000
  C   C120      1.0  0.38717  0.84977  0.11582  1.0000
  H   H183      1.0  0.37025  0.99929  0.09916  1.0000
  H   H184      1.0  0.61150  0.58479  0.11356  1.0000
  N   N11       1.0  0.52664  0.79434  0.01865  1.0000
  S   S43       1.0  0.55027  0.95751  0.11725  1.0000
  H   H185      1.0  0.58598  0.78409  0.01967  1.0000
  H   H186      1.0  0.50427  0.86847  0.02343  1.0000
  S   S44       1.0  0.45991  0.87863  0.10554  1.0000
  H   H187      1.0  0.49128  0.77165  0.07530  1.0000
  Fe  Fe24      1.0  0.59494  0.66926  0.89715  1.0000
  H   H188      1.0  0.57025  0.82375  0.97477  1.0000
  H   H189      1.0  0.52678  0.81564  0.08958  1.0000
  C   C121      1.0  0.52113  0.74864  0.99134  1.0000
  S   S45       1.0  0.60909  0.68286  0.06460  1.0000
  H   H190      1.0  0.57088  0.84615  0.03276  1.0000
  C   C122      1.0  0.49975  0.83296  0.00462  1.0000
  H   H191      1.0  0.38736  0.84504  0.07910  1.0000
  S   S46       1.0  0.59912  0.61450  0.95459  1.0000
  H   H192      1.0  0.49228  0.73377  0.99607  1.0000
  H   H193      1.0  0.52587  0.75562  0.95413  1.0000
  C   C123      1.0  0.56510  0.81301  0.01107  1.0000
  H   H194      1.0  0.37545  0.59265  0.92874  1.0000
  H   H195      1.0  0.47037  0.82131  0.01205  1.0000
  H   H196      1.0  0.53909  0.75180  0.07871  1.0000
  H   H197      1.0  0.50238  0.84118  0.96744  1.0000
  H   H198      1.0  0.58517  0.66549  0.63793  1.0000
  S   S47       1.0  0.71919  0.40670  0.17520  1.0000
  H   H199      1.0  0.70976  0.16994  0.29554  1.0000
  Fe  Fe25      1.0  0.70971  0.34343  0.22434  1.0000
  S   S48       1.0  0.70160  0.35178  0.30027  1.0000
  S   S49       1.0  0.75398  0.29407  0.19311  1.0000
  C   C124      1.0  0.69959  0.29207  0.32469  1.0000
  C   C125      1.0  0.70462  0.20224  0.31684  1.0000
  C   C126      1.0  0.70592  0.24989  0.29755  1.0000
  H   H200      1.0  0.71138  0.25366  0.26150  1.0000
  S   S50       1.0  0.66283  0.31029  0.18515  1.0000
  H   H201      1.0  0.65387  0.12413  0.28028  1.0000
  C   C127      1.0  0.69507  0.19634  0.36300  1.0000
  C   C128      1.0  0.69112  0.28628  0.37126  1.0000
  S   S51       1.0  0.68649  0.13642  0.38438  1.0000
  C   C129      1.0  0.85668  0.15838  0.25245  1.0000
  H   H202      1.0  0.83306  0.15296  0.22868  1.0000
  H   H203      1.0  0.85720  0.22397  0.18356  1.0000
  H   H204      1.0  0.84676  0.18401  0.28004  1.0000
  C   C130      1.0  0.62752  0.12634  0.26079  1.0000
  C   C131      1.0  0.61266  0.08954  0.14207  1.0000
  H   H205      1.0  0.63131  0.15629  0.23484  1.0000
  H   H206      1.0  0.61915  0.09467  0.34613  1.0000
  C   C132      1.0  0.64908  0.10873  0.13824  1.0000
  H   H207      1.0  0.62431  0.09053  0.24211  1.0000
  H   H208      1.0  0.65612  0.51475  0.17538  1.0000
  H   H209      1.0  0.62880  0.23214  0.14178  1.0000
  C   C133      1.0  0.62447  0.19254  0.14185  1.0000
  Fe  Fe26      1.0  0.70748  0.26522  0.15008  1.0000
  C   C134      1.0  0.68841  0.23837  0.39034  1.0000
  C   C135      1.0  0.65508  0.16029  0.13855  1.0000
  H   H210      1.0  0.72290  0.43458  0.47751  1.0000
  Fe  Fe27      1.0  0.64315  0.14223  0.44009  1.0000
  H   H211      1.0  0.64739  0.38847  0.55631  1.0000
  H   H212      1.0  0.69588  0.42840  0.42667  1.0000
  S   S52       1.0  0.70085  0.18366  0.13456  1.0000
  H   H213      1.0  0.62449  0.18640  0.33497  1.0000
  H   H214      1.0  0.67369  0.48724  0.51399  1.0000
  H   H215      1.0  0.69485  0.41040  0.55304  1.0000
  H   H216      1.0  0.71147  0.37381  0.45604  1.0000
  C   C136      1.0  0.70055  0.41232  0.46120  1.0000
  H   H217      1.0  0.62640  0.46550  0.51721  1.0000
  H   H218      1.0  0.63094  0.39859  0.43150  1.0000
  H   H219      1.0  0.68605  0.31872  0.39227  1.0000
  C   C137      1.0  0.65262  0.46410  0.49611  1.0000
  H   H220      1.0  0.64565  0.34353  0.46114  1.0000
  H   H221      1.0  0.68121  0.23394  0.42617  1.0000
  C   C138      1.0  0.67313  0.38947  0.53429  1.0000
  S   S53       1.0  0.61371  0.28491  0.54104  1.0000
  Fe  Fe28      1.0  0.75948  0.35418  0.14055  1.0000
  N   N12       1.0  0.66577  0.41229  0.48936  1.0000
  H   H222      1.0  0.68279  0.35016  0.53055  1.0000
  S   S54       1.0  0.65450  0.14953  0.51472  1.0000
  C   C139      1.0  0.63684  0.38308  0.46589  1.0000
  H   H223      1.0  0.64694  0.48272  0.46298  1.0000
  H   H224      1.0  0.67267  0.08355  0.13547  1.0000
  H   H225      1.0  0.61292  0.51553  0.60034  1.0000
  Fe  Fe29      1.0  0.67676  0.36814  0.13245  1.0000
  H   H226      1.0  0.75933  0.53421  0.85135  1.0000
  H   H227      1.0  0.75398  0.54772  0.79157  1.0000
  C   C140      1.0  0.69742  0.53218  0.09951  1.0000
  C   C141      1.0  0.69431  0.45704  0.98960  1.0000
  N   N13       1.0  0.62437  0.26978  0.01693  1.0000
  C   C142      1.0  0.61972  0.46255  0.01947  1.0000
  C   C143      1.0  0.63154  0.48842  0.98026  1.0000
  H   H228      1.0  0.63398  0.19627  0.04391  1.0000
  H   H229      1.0  0.79563  0.27736  0.09688  1.0000
  H   H230      1.0  0.70280  0.41147  0.04888  1.0000
  H   H231      1.0  0.62250  0.52039  0.10318  1.0000
  S   S55       1.0  0.63082  0.40795  0.09637  1.0000
  H   H232      1.0  0.68973  0.49247  0.10524  1.0000
  C   C144      1.0  0.84763  0.23799  0.08753  1.0000
  C   C145      1.0  0.64539  0.43513  0.04461  1.0000
  C   C146      1.0  0.82574  0.28034  0.09644  1.0000
  S   S56       1.0  0.71773  0.32030  0.09388  1.0000
  H   H233      1.0  0.66449  0.21349  0.99708  1.0000
  H   H234      1.0  0.67122  0.23936  0.05276  1.0000
  C   C147      1.0  0.64956  0.22796  0.02803  1.0000
  H   H235      1.0  0.66792  0.32480  0.01830  1.0000
  H   H236      1.0  0.66050  0.29795  0.96315  1.0000
  H   H237      1.0  0.69972  0.53827  0.06189  1.0000
  H   H238      1.0  0.83433  0.20244  0.08145  1.0000
  H   H239      1.0  0.62801  0.34282  0.98663  1.0000
  C   C148      1.0  0.64613  0.31050  0.99518  1.0000
  C   C149      1.0  0.84287  0.32629  0.10451  1.0000
  S   S57       1.0  0.81591  0.37935  0.11602  1.0000
  S   S58       1.0  0.68458  0.52339  0.91999  1.0000
  C   C150      1.0  0.68262  0.43182  0.02933  1.0000
  H   H240      1.0  0.72332  0.45554  0.97852  1.0000
  C   C151      1.0  0.66894  0.48633  0.96568  1.0000
  H   H241      1.0  0.62714  0.30035  0.08461  1.0000
  H   H242      1.0  0.72566  0.53756  0.11398  1.0000
  C   C152      1.0  0.66024  0.87631  0.34718  1.0000
  H   H243      1.0  0.67896  0.89016  0.31915  1.0000
  N   N14       1.0  0.62111  0.89196  0.34058  1.0000
  H   H244      1.0  0.62532  0.88815  0.26705  1.0000
  H   H245      1.0  0.66278  0.83498  0.34843  1.0000
  H   H246      1.0  0.63640  0.96372  0.31340  1.0000
  H   H247      1.0  0.67114  0.89062  0.37999  1.0000
  C   C153      1.0  0.61882  0.94697  0.34119  1.0000
  H   H248      1.0  0.64479  0.57874  0.18741  1.0000
  S   S59       1.0  0.63899  0.88890  0.16002  1.0000
  H   H249      1.0  0.83189  0.75339  0.47762  1.0000
  C   C154      1.0  0.86154  0.74140  0.47309  1.0000
  H   H250      1.0  0.62837  0.96238  0.37434  1.0000
  C   C155      1.0  0.66562  0.55396  0.17012  1.0000
  H   H251      1.0  0.69268  0.55824  0.18783  1.0000
  C   C156      1.0  0.62209  0.97387  0.53788  1.0000
  H   H252      1.0  0.85358  0.81831  0.53077  1.0000
  S   S60       1.0  0.80587  0.73584  0.57106  1.0000
  H   H253      1.0  0.65495  0.01437  0.48784  1.0000
  C   C157      1.0  0.62509  0.88363  0.53163  1.0000
  C   C158      1.0  0.82575  0.71368  0.62146  1.0000
  C   C159      1.0  0.64863  0.88779  0.49312  1.0000
  H   H254      1.0  0.61689  0.84725  0.54414  1.0000
  Fe  Fe30      1.0  0.67843  0.77726  0.51980  1.0000
  S   S61       1.0  0.65623  0.59156  0.55441  1.0000
  Fe  Fe31      1.0  0.67434  0.67207  0.55904  1.0000
  S   S62       1.0  0.66574  0.83395  0.46571  1.0000
  H   H255      1.0  0.69057  0.91555  0.59254  1.0000
  S   S63       1.0  0.71424  0.70930  0.50961  1.0000
  H   H256      1.0  0.68067  0.98057  0.59916  1.0000
  C   C160      1.0  0.64573  0.97806  0.49941  1.0000
  C   C161      1.0  0.63357  0.82995  0.13526  1.0000
  C   C162      1.0  0.65871  0.93509  0.47681  1.0000
  Fe  Fe32      1.0  0.67078  0.76191  0.62156  1.0000
  C   C163      1.0  0.69570  0.94857  0.61460  1.0000
  H   H257      1.0  0.72610  0.95702  0.61252  1.0000
  H   H258      1.0  0.67762  0.93867  0.44777  1.0000
  S   S64       1.0  0.70615  0.69303  0.62153  1.0000
  S   S65       1.0  0.71079  0.80649  0.57863  1.0000
  S   S66       1.0  0.63552  0.73783  0.56331  1.0000
  Fe  Fe33      1.0  0.74317  0.73543  0.57250  1.0000
  H   H259      1.0  0.85005  0.83628  0.44752  1.0000
  S   S67       1.0  0.64006  0.79342  0.68238  1.0000
  C   C164      1.0  0.66282  0.78330  0.73386  1.0000
  H   H260      1.0  0.71796  0.77651  0.70340  1.0000
  H   H261      1.0  0.80663  0.69646  0.73473  1.0000
  C   C165      1.0  0.71902  0.76779  0.77671  1.0000
  H   H262      1.0  0.63253  0.91691  0.69794  1.0000
  C   C166      1.0  0.64291  0.92578  0.66278  1.0000
  C   C167      1.0  0.82202  0.69568  0.70273  1.0000
  C   C168      1.0  0.64174  0.78269  0.77453  1.0000
  H   H263      1.0  0.74898  0.76277  0.77750  1.0000
  C   C169      1.0  0.70150  0.77575  0.73480  1.0000
  H   H264      1.0  0.64226  0.77075  0.84703  1.0000
  S   S68       1.0  0.64921  0.64596  0.86452  1.0000
  C   C170      1.0  0.65895  0.77241  0.81595  1.0000
  N   N15       1.0  0.76981  0.61050  0.83252  1.0000
  C   C171      1.0  0.69757  0.76495  0.81722  1.0000
  C   C172      1.0  0.70492  0.89889  0.68233  1.0000
  C   C173      1.0  0.80539  0.71339  0.66279  1.0000
  S   S69       1.0  0.71803  0.74813  0.86894  1.0000
  N   N16       1.0  0.68287  0.93970  0.66225  1.0000
  H   H265      1.0  0.77714  0.72755  0.66414  1.0000
  H   H266      1.0  0.67833  0.98026  0.72540  1.0000
  H   H267      1.0  0.69567  0.89078  0.71813  1.0000
  C   C174      1.0  0.68779  0.98566  0.68927  1.0000
  C   C175      1.0  0.81022  0.60302  0.82351  1.0000
  H   H268      1.0  0.70160  0.86373  0.66276  1.0000
  H   H269      1.0  0.73527  0.90784  0.68255  1.0000
  H   H270      1.0  0.82615  0.63833  0.82795  1.0000
  H   H271      1.0  0.72503  0.65483  0.80610  1.0000
  H   H272      1.0  0.71761  0.99741  0.68942  1.0000
  H   H273      1.0  0.75957  0.63564  0.76406  1.0000
  H   H274      1.0  0.67130  0.01706  0.67494  1.0000
  C   C176      1.0  0.75538  0.64775  0.80017  1.0000
  H   H275      1.0  0.76989  0.68411  0.80427  1.0000
  H   H276      1.0  0.63805  0.89204  0.64155  1.0000
  H   H277      1.0  0.62529  0.95634  0.64905  1.0000
  H   H278      1.0  0.81591  0.59038  0.78777  1.0000
  C   C177      1.0  0.76387  0.62871  0.87974  1.0000
  H   H279      1.0  0.73367  0.63482  0.88733  1.0000
  H   H280      1.0  0.71910  0.56752  0.83287  1.0000
  H   H281      1.0  0.77817  0.66506  0.88521  1.0000
  H   H282      1.0  0.82220  0.57483  0.84689  1.0000
  H   H283      1.0  0.62772  0.61190  0.74218  1.0000
  C   C178      1.0  0.74973  0.56287  0.82668  1.0000
  H   H284      1.0  0.62992  0.67825  0.75038  1.0000
  C   C179      1.0  0.63306  0.55915  0.09887  1.0000
  H   H285      1.0  0.63501  0.56703  0.06152  1.0000
  Fe  Fe34      1.0  0.62782  0.67636  0.99128  1.0000
  Fe  Fe35      1.0  0.65616  0.59752  0.92569  1.0000
  C   C180      1.0  0.62092  0.73809  0.09265  1.0000
  S   S70       1.0  0.68543  0.65497  0.96724  1.0000
  Fe  Fe36      1.0  0.67424  0.70528  0.90784  1.0000
  H   H286      1.0  0.66164  0.76224  0.04208  1.0000
  C   C181      1.0  0.65355  0.81722  0.09528  1.0000
  H   H287      1.0  0.77431  0.60164  0.90529  1.0000
  C   C182      1.0  0.64700  0.77137  0.07368  1.0000
  H   H288      1.0  0.66175  0.64453  0.13167  1.0000
  S   S71       1.0  0.61926  0.73299  0.93605  1.0000
  C   C183      1.0  0.68194  0.61810  0.11530  1.0000
  H   H289      1.0  0.70966  0.62450  0.13078  1.0000
  H   H290      1.0  0.68419  0.62858  0.07850  1.0000
  N   N17       1.0  0.66952  0.56589  0.12094  1.0000
  H   H291      1.0  0.67328  0.84342  0.08035  1.0000
  C   C184      1.0  0.85877  0.67768  0.70125  1.0000
  H   H292      1.0  0.62079  0.62413  0.65795  1.0000
  H   H293      1.0  0.62452  0.68992  0.66733  1.0000
  S   S72       1.0  0.03253  0.17304  0.25172  1.0000
  H   H294      1.0  0.04242  0.11896  0.33406  1.0000
  S   S73       1.0  0.98482  0.25308  0.15845  1.0000
  C   C185      1.0  0.01405  0.11581  0.26991  1.0000
  C   C186      1.0  0.99002  0.08814  0.24256  1.0000
  C   C187      1.0  0.02390  0.09764  0.31275  1.0000
  H   H295      1.0  0.98222  0.10205  0.20953  1.0000
  Fe  Fe37      1.0  0.02511  0.19366  0.17841  1.0000
  S   S74       1.0  0.07320  0.22717  0.13933  1.0000
  H   H296      1.0  0.94660  0.19920  0.24340  1.0000
  H   H297      1.0  0.90812  0.10594  0.20554  1.0000
  H   H298      1.0  0.92749  0.15701  0.17340  1.0000
  H   H299      1.0  0.90486  0.24310  0.18830  1.0000
  C   C188      1.0  0.92078  0.18476  0.26072  1.0000
  H   H300      1.0  0.92830  0.14872  0.27704  1.0000
  H   H301      1.0  0.91312  0.21137  0.28851  1.0000
  H   H302      1.0  0.08986  0.18729  0.60293  1.0000
  C   C189      1.0  0.90184  0.14356  0.19166  1.0000
  H   H303      1.0  0.86270  0.12165  0.26843  1.0000
  H   H304      1.0  0.06504  0.44014  0.59734  1.0000
  H   H305      1.0  0.04065  0.18243  0.49209  1.0000
  H   H306      1.0  0.09028  0.08349  0.23621  1.0000
  H   H307      1.0  0.07981  0.25177  0.61352  1.0000
  H   H308      1.0  0.01906  0.16822  0.54662  1.0000
  C   C190      1.0  0.04590  0.17855  0.52928  1.0000
  H   H309      1.0  0.04309  0.20646  0.61700  1.0000
  C   C191      1.0  0.09703  0.23702  0.52419  1.0000
  C   C192      1.0  0.06890  0.21721  0.59763  1.0000
  H   H310      1.0  0.09257  0.24338  0.48713  1.0000
  C   C193      1.0  0.03494  0.26628  0.54334  1.0000
  H   H311      1.0  0.06536  0.14654  0.53339  1.0000
  H   H312      1.0  0.00805  0.25861  0.56175  1.0000
  H   H313      1.0  0.02873  0.27311  0.50677  1.0000
  H   H314      1.0  0.04635  0.30165  0.55753  1.0000
  N   N18       1.0  0.06166  0.22474  0.54858  1.0000
  H   H315      1.0  0.06330  0.08627  0.18547  1.0000
  C   C194      1.0  0.09602  0.05437  0.58655  1.0000
  C   C195      1.0  0.88067  0.22728  0.20781  1.0000
  N   N19       1.0  0.89001  0.17852  0.22819  1.0000
  C   C196      1.0  0.09045  0.07366  0.19923  1.0000
  S   S75       1.0  0.10955  0.35142  0.60803  1.0000
  H   H316      1.0  0.87989  0.13929  0.16545  1.0000
  H   H317      1.0  0.87214  0.25496  0.23433  1.0000
  H   H318      1.0  0.10990  0.27146  0.53823  1.0000
  C   C197      1.0  0.05665  0.39827  0.72388  1.0000
  H   H319      1.0  0.05418  0.38617  0.75906  1.0000
  C   C198      1.0  0.04064  0.45598  0.66384  1.0000
  C   C199      1.0  0.03712  0.44037  0.70933  1.0000
  S   S76       1.0  0.01003  0.47396  0.74936  1.0000
  C   C200      1.0  0.07970  0.37184  0.69315  1.0000
  C   C201      1.0  0.08242  0.38632  0.64733  1.0000
  C   C202      1.0  0.06287  0.42852  0.63270  1.0000
  H   H320      1.0  0.09504  0.34002  0.70503  1.0000
  H   H321      1.0  0.08151  0.45719  0.80688  1.0000
  H   H322      1.0  0.02578  0.48871  0.65246  1.0000
  H   H323      1.0  0.08990  0.50686  0.73529  1.0000
  H   H324      1.0  0.05069  0.53825  0.80044  1.0000
  H   H325      1.0  0.10271  0.47810  0.85871  1.0000
  N   N20       1.0  0.11012  0.52731  0.80130  1.0000
  C   C203      1.0  0.10626  0.47676  0.82086  1.0000
  S   S77       1.0  0.00965  0.14020  0.12324  1.0000
  H   H326      1.0  0.98315  0.43565  0.07356  1.0000
  C   C204      1.0  0.08720  0.37686  0.08445  1.0000
  H   H327      1.0  0.95645  0.44845  0.95194  1.0000
  H   H328      1.0  0.98007  0.47770  0.99844  1.0000
  N   N21       1.0  0.95890  0.40439  0.01322  1.0000
  Fe  Fe38      1.0  0.03136  0.28164  0.11331  1.0000
  H   H329      1.0  0.07322  0.44610  0.05158  1.0000
  C   C205      1.0  0.99395  0.37921  0.99881  1.0000
  H   H330      1.0  0.11045  0.31203  0.11626  1.0000
  S   S78       1.0  0.04080  0.36319  0.10036  1.0000
  H   H331      1.0  0.92891  0.33503  0.01645  1.0000
  S   S79       1.0  0.09358  0.13639  0.03553  1.0000
  Fe  Fe39      1.0  0.05442  0.17876  0.08198  1.0000
  H   H332      1.0  0.93375  0.29032  0.09475  1.0000
  H   H333      1.0  0.89488  0.36507  0.11123  1.0000
  Fe  Fe40      1.0  0.97287  0.20233  0.09976  1.0000
  C   C206      1.0  0.88181  0.32978  0.10397  1.0000
  H   H334      1.0  0.09958  0.23508  0.99311  1.0000
  H   H335      1.0  0.92475  0.36786  0.96357  1.0000
  C   C207      1.0  0.95889  0.41252  0.06318  1.0000
  C   C208      1.0  0.95620  0.45300  0.98976  1.0000
  C   C209      1.0  0.09531  0.42022  0.05957  1.0000
  H   H336      1.0  0.01891  0.40179  0.00765  1.0000
  S   S80       1.0  0.91383  0.18782  0.07994  1.0000
  C   C210      1.0  0.88662  0.24145  0.08740  1.0000
  C   C211      1.0  0.92665  0.37288  0.00120  1.0000
  C   C212      1.0  0.90369  0.28739  0.09539  1.0000
  H   H337      1.0  0.99703  0.34264  0.01637  1.0000
  H   H338      1.0  0.93297  0.43161  0.07542  1.0000
  H   H339      1.0  0.89975  0.38925  0.01386  1.0000
  H   H340      1.0  0.96106  0.37662  0.08204  1.0000
  H   H341      1.0  0.92996  0.47286  0.99976  1.0000
  H   H342      1.0  0.99497  0.37223  0.96135  1.0000
  S   S81       1.0  0.01592  0.23572  0.05267  1.0000
  C   C213      1.0  0.08380  0.84396  0.29991  1.0000
  H   H343      1.0  0.05733  0.84817  0.31801  1.0000
  C   C214      1.0  0.08593  0.85240  0.25274  1.0000
  H   H344      1.0  0.06107  0.86281  0.23460  1.0000
  S   S82       1.0  0.96995  0.96580  0.32028  1.0000
  N   N22       1.0  0.09614  0.01965  0.19204  1.0000
  C   C215      1.0  0.98609  0.02395  0.30110  1.0000
  H   H345      1.0  0.06497  0.99930  0.25301  1.0000
  H   H346      1.0  0.95726  0.02077  0.23725  1.0000
  H   H347      1.0  0.06938  0.95075  0.21095  1.0000
  C   C216      1.0  0.06581  0.99167  0.21558  1.0000
  H   H348      1.0  0.03795  0.00179  0.20213  1.0000
  C   C217      1.0  0.09583  0.00845  0.14258  1.0000
  H   H349      1.0  0.09970  0.96782  0.13603  1.0000
  C   C218      1.0  0.97577  0.04234  0.25833  1.0000
  H   H350      1.0  0.86659  0.71225  0.49941  1.0000
  H   H351      1.0  0.88282  0.80753  0.40821  1.0000
  H   H352      1.0  0.95492  0.72382  0.62052  1.0000
  S   S83       1.0  0.06608  0.94908  0.37155  1.0000
  C   C219      1.0  0.09055  0.04014  0.54102  1.0000
  H   H353      1.0  0.01789  0.03824  0.36142  1.0000
  H   H354      1.0  0.88898  0.77758  0.55126  1.0000
  H   H355      1.0  0.07866  0.03864  0.61358  1.0000
  H   H356      1.0  0.04070  0.82926  0.61174  1.0000
  H   H357      1.0  0.86453  0.72362  0.43891  1.0000
  S   S84       1.0  0.00988  0.65437  0.58401  1.0000
  C   C220      1.0  0.97149  0.74243  0.59449  1.0000
  H   H358      1.0  0.04015  0.71962  0.51529  1.0000
  H   H359      1.0  0.87852  0.69631  0.58838  1.0000
  H   H360      1.0  0.93431  0.73921  0.49836  1.0000
  H   H361      1.0  0.89829  0.85497  0.44677  1.0000
  H   H362      1.0  0.94392  0.81312  0.60441  1.0000
  C   C221      1.0  0.87924  0.82232  0.44355  1.0000
  N   N23       1.0  0.88747  0.78383  0.47806  1.0000
  S   S85       1.0  0.10500  0.04605  0.44887  1.0000
  C   C222      1.0  0.99884  0.71605  0.56973  1.0000
  H   H363      1.0  0.90170  0.83780  0.52925  1.0000
  S   S86       1.0  0.07220  0.90950  0.47732  1.0000
  Fe  Fe41      1.0  0.06861  0.87598  0.40758  1.0000
  S   S87       1.0  0.97639  0.87949  0.53794  1.0000
  S   S88       1.0  0.00638  0.86568  0.40951  1.0000
  H   H364      1.0  0.09000  0.83694  0.61790  1.0000
  C   C223      1.0  0.96502  0.79285  0.58500  1.0000
  C   C224      1.0  0.01239  0.79031  0.52486  1.0000
  Fe  Fe42      1.0  0.06500  0.98237  0.44133  1.0000
  Fe  Fe43      1.0  0.00963  0.90576  0.47673  1.0000
  H   H365      1.0  0.06901  0.01343  0.53300  1.0000
  Fe  Fe44      1.0  0.00424  0.94296  0.38017  1.0000
  C   C225      1.0  0.88278  0.80543  0.52428  1.0000
  S   S89       1.0  0.00243  0.98268  0.44765  1.0000
  C   C226      1.0  0.92634  0.76627  0.47134  1.0000
  H   H366      1.0  0.94641  0.79787  0.47238  1.0000
  C   C227      1.0  0.01899  0.73994  0.53458  1.0000
  H   H367      1.0  0.93049  0.74762  0.43769  1.0000
  C   C228      1.0  0.98543  0.81682  0.55016  1.0000
  H   H368      1.0  0.02824  0.80853  0.49783  1.0000
  C   C229      1.0  0.86268  0.69653  0.62021  1.0000
  C   C230      1.0  0.01010  0.05177  0.32821  1.0000
  S   S90       1.0  0.97941  0.60531  0.78549  1.0000
  Fe  Fe45      1.0  0.99583  0.63420  0.65688  1.0000
  Fe  Fe46      1.0  0.02012  0.65864  0.75298  1.0000
  Fe  Fe47      1.0  0.93897  0.63414  0.73405  1.0000
  S   S91       1.0  0.97810  0.69279  0.70712  1.0000
  S   S92       1.0  0.04134  0.60421  0.70068  1.0000
  S   S93       1.0  0.06326  0.70662  0.78639  1.0000
  C   C231      1.0  0.07606  0.68368  0.83988  1.0000
  H   H369      1.0  0.02002  0.66397  0.86109  1.0000
  H   H370      1.0  0.06701  0.72728  0.69071  1.0000
  N   N24       1.0  0.06141  0.80560  0.67658  1.0000
  S   S94       1.0  0.87925  0.65407  0.75084  1.0000
  C   C232      1.0  0.87907  0.67837  0.65995  1.0000
  C   C233      1.0  0.02450  0.80972  0.69986  1.0000
  H   H371      1.0  0.02276  0.78517  0.73055  1.0000
  H   H372      1.0  0.90737  0.66455  0.65839  1.0000
  H   H373      1.0  0.01879  0.84851  0.71146  1.0000
  H   H374      1.0  0.00153  0.79872  0.67678  1.0000
  C   C234      1.0  0.06747  0.75363  0.66137  1.0000
  S   S95       1.0  0.95349  0.57738  0.68015  1.0000
  H   H375      1.0  0.05788  0.87869  0.64654  1.0000
  H   H376      1.0  0.07754  0.59414  0.79677  1.0000
  C   C235      1.0  0.06264  0.83914  0.63650  1.0000
  C   C236      1.0  0.09096  0.81987  0.70864  1.0000
  H   H377      1.0  0.09059  0.79533  0.73938  1.0000
  H   H378      1.0  0.08724  0.85888  0.72083  1.0000
  Fe  Fe48      1.0  0.99729  0.55302  0.72916  1.0000
  C   C237      1.0  0.07633  0.55662  0.81274  1.0000
  H   H379      1.0  0.04532  0.74128  0.63786  1.0000
  H   H380      1.0  0.09473  0.74908  0.64297  1.0000
  H   H381      1.0  0.10301  0.68737  0.05118  1.0000
  C   C238      1.0  0.06036  0.64103  0.91076  1.0000
  C   C239      1.0  0.04927  0.66305  0.86971  1.0000
  C   C240      1.0  0.09830  0.63811  0.92122  1.0000
  S   S96       1.0  0.11184  0.60630  0.97051  1.0000
  H   H382      1.0  0.03960  0.62487  0.93369  1.0000
  H   H383      1.0  0.07273  0.56142  0.85029  1.0000
  H   H384      1.0  0.06904  0.01998  0.12701  1.0000
