data_image0
_chemical_formula_structural       SCHC2HNH3FeH6SH4C3HSHS2Fe2SFeCH2CS2C4H3NC3H5FeH2C2HCH2CH4C3HCSCFeS2C2HFeHNCHCHC2H3CHCH4CH2CHC2H2SHSH2CNC2SC4HCH2FeHCH2C2H3NH3CH6C2H4CSHSH2FeSFeSFeHS2C4HNC4H6CHCH2C5H4CHFe2CHSH2SHNC2SCH3CH2NCH2CH4FeS2FeSFeS2CSNCHCH5CHCSH3CH2C2HCH3CH2C2HSHCH4CHCHCHSHNH4CHC3NCHC2SH8SH2C2H3CHCHSC3HCFeCSHC2Fe2NH2SHCSCSC4H2FeSH3CH3SCHSFeC3SH2CH6CH3CHCH8C3H2CH2C2H3CSC4H2C2NH8FeH3S2H2CSH2SNH4CHNSHC3HCFeHC2FeHC2SFeCH4SC4H2CH2FeCHC2H2C5HCFe3S4HFeSH4SHC2NH3CH4NFeH4CH2CSHSCHCH3S3HFe2HCHNH2CH3SHC2SHNFeC2HCH2CH2SC2FeCSC2HFe2SHS3H2NHC4H3C2H5C2H2CHC2H2CHCH4CH4CH2C2HC2HCSHC2HNH4CHCH2CH2SHFeSC2HS2HC2HFeNH2CHCH2CHCHS2CFeCH2SFeHCH2CH4S2CHSHC3SCFeSH2CH2CH3SCH2NHCHCH8SCH5CHNHFeS2C3HSFeHCHCH3CSH2FeS2C3FeH3CFeH3FeS3H2CHFeS2CS2FeCFe2SHS2HCH4NCH6CH2CH2C2H3C2H2SCSC3H2NFeCSHCHCH3C2H3CH3C2H3SHFeS4Fe2CHSCHCSFeHSHC4H3CH3SCSHC2S2FeSFeH2CH2C2H2NC2HCNSCHCH3CHCH2CHCH2C3HCSHC2NH2CHSC2H2CH6C2H2NH3CHCH3CH3S2HCH3CFeSHCNSFeH4C2H3C2FeSHFeC2SHFeHSH6FeH2CH6C2HCH2C2H2CH3C2H3CSHC3SCFeS3FeHFe2HSCSCHSC2H3NH4FeH2CFeCH3C2SCSHFeSHSHSH2CHNCHC6H2C2HFeC2SNFeCH2C2H2SCH2SCH3SHSH3C2H2CHCH2SCFeH2CH3CSCNSH3FeHCH5CHCH4NS2CHCHCHCH3S2HSHSH2C2Fe2H5NH3CH4C6H3NC2HCHFe2HS2FeCSH3SHSHC2HS2FeC2H2C4H2NCH10CSH5CH3CHCSCH2CH2C2H2CHC2NCH5C3H5SCNSC2SCH3SHCFeC2H2CSC3HSCHCHNCHC2H4FeHCH9CHCHCFeC2H3SCNSHSFeCHSH3SH2C3NSC4H3SFe3SCS3HCH4C2FeCN2HC4H2CH2SHCH2C4SH5CH4CH2CHCH3CHCH2C2HFeCSC2SCHSFeH2CH3C2H2CH6S2C4H2SHCHFeS2Fe2CNC2SH6CH4NFeH2CSHCHCH3CH2C3H5
_chemical_formula_sum              "S192 C480 H768 N48 Fe96"
_cell_length_a       33.8507
_cell_length_b       36.9613
_cell_length_c       36.5129
_cell_angle_alpha    90.3329
_cell_angle_beta     89.8754
_cell_angle_gamma    89.6836

_space_group_name_H-M_alt    "P 1"
_space_group_IT_number       1

loop_
  _space_group_symop_operation_xyz
  'x, y, z'

loop_
  _atom_site_type_symbol
  _atom_site_label
  _atom_site_symmetry_multiplicity
  _atom_site_fract_x
  _atom_site_fract_y
  _atom_site_fract_z
  _atom_site_occupancy
  S   S1        1.0  0.29692  0.29258  0.22729  1.0000
  C   C1        1.0  0.29470  0.28020  0.27355  1.0000
  H   H1        1.0  0.23223  0.26963  0.27186  1.0000
  C   C2        1.0  0.20387  0.15049  0.23174  1.0000
  C   C3        1.0  0.13422  0.16035  0.24203  1.0000
  H   H2        1.0  0.13936  0.17410  0.26886  1.0000
  N   N1        1.0  0.16491  0.13279  0.23413  1.0000
  H   H3        1.0  0.13321  0.18158  0.22054  1.0000
  H   H4        1.0  0.15432  0.13420  0.17593  1.0000
  H   H5        1.0  0.25800  0.16379  0.50566  1.0000
  Fe  Fe1       1.0  0.35647  0.28317  0.20203  1.0000
  H   H6        1.0  0.20462  0.17072  0.20927  1.0000
  H   H7        1.0  0.21112  0.16499  0.25766  1.0000
  H   H8        1.0  0.49544  0.14837  0.51252  1.0000
  H   H9        1.0  0.41424  0.17597  0.36153  1.0000
  H   H10       1.0  0.32150  0.36706  0.20149  1.0000
  H   H11       1.0  0.35294  0.16730  0.25969  1.0000
  S   S2        1.0  0.26433  0.13855  0.41239  1.0000
  H   H12       1.0  0.58820  0.14681  0.29079  1.0000
  H   H13       1.0  0.22790  0.13038  0.22663  1.0000
  H   H14       1.0  0.35635  0.28955  0.28432  1.0000
  H   H15       1.0  0.56915  0.33217  0.12208  1.0000
  C   C4        1.0  0.59346  0.21360  0.18829  1.0000
  C   C5        1.0  0.59471  0.22134  0.22588  1.0000
  C   C6        1.0  0.44064  0.36183  0.08630  1.0000
  H   H16       1.0  0.54760  0.29244  0.14183  1.0000
  S   S3        1.0  0.36874  0.30348  0.14546  1.0000
  H   H17       1.0  0.51867  0.33307  0.13713  1.0000
  S   S4        1.0  0.38131  0.22768  0.19167  1.0000
  S   S5        1.0  0.41184  0.30534  0.22646  1.0000
  Fe  Fe2       1.0  0.42650  0.32111  0.16900  1.0000
  Fe  Fe3       1.0  0.39912  0.24996  0.13706  1.0000
  S   S6        1.0  0.39277  0.21839  0.08462  1.0000
  Fe  Fe4       1.0  0.43818  0.25162  0.21143  1.0000
  C   C7        1.0  0.42592  0.18173  0.08443  1.0000
  H   H18       1.0  0.44281  0.18903  0.14061  1.0000
  H   H19       1.0  0.43821  0.33370  0.09396  1.0000
  C   C8        1.0  0.44730  0.17328  0.11599  1.0000
  S   S7        1.0  0.47864  0.22490  0.25206  1.0000
  S   S8        1.0  0.45840  0.26959  0.15580  1.0000
  C   C9        1.0  0.55737  0.20564  0.17167  1.0000
  C   C10       1.0  0.52242  0.20730  0.19203  1.0000
  C   C11       1.0  0.52325  0.21670  0.22906  1.0000
  C   C12       1.0  0.55951  0.22279  0.24635  1.0000
  H   H20       1.0  0.55605  0.19939  0.14275  1.0000
  H   H21       1.0  0.49460  0.20176  0.17892  1.0000
  H   H22       1.0  0.56025  0.23010  0.27508  1.0000
  N   N2        1.0  0.56149  0.33455  0.18053  1.0000
  C   C13       1.0  0.47380  0.14394  0.11593  1.0000
  C   C14       1.0  0.54867  0.32253  0.14376  1.0000
  C   C15       1.0  0.53361  0.32104  0.20843  1.0000
  H   H23       1.0  0.50327  0.33186  0.20395  1.0000
  H   H24       1.0  0.53177  0.29098  0.20774  1.0000
  H   H25       1.0  0.56576  0.14937  0.07473  1.0000
  H   H26       1.0  0.54272  0.32909  0.23656  1.0000
  H   H27       1.0  0.39852  0.19186  0.26272  1.0000
  Fe  Fe5       1.0  0.20375  0.13713  0.43795  1.0000
  H   H28       1.0  0.35017  0.14299  0.35851  1.0000
  H   H29       1.0  0.37417  0.37238  0.19965  1.0000
  C   C16       1.0  0.60136  0.32004  0.18795  1.0000
  C   C17       1.0  0.59744  0.15751  0.07543  1.0000
  H   H30       1.0  0.59952  0.18244  0.09258  1.0000
  C   C18       1.0  0.15398  0.13563  0.51960  1.0000
  H   H31       1.0  0.60193  0.28998  0.18667  1.0000
  H   H32       1.0  0.35437  0.20997  0.28321  1.0000
  C   C19       1.0  0.37123  0.18455  0.27801  1.0000
  H   H33       1.0  0.48999  0.13732  0.14053  1.0000
  H   H34       1.0  0.43051  0.13750  0.28879  1.0000
  H   H35       1.0  0.38529  0.13481  0.47667  1.0000
  H   H36       1.0  0.33089  0.29873  0.47117  1.0000
  C   C20       1.0  0.25863  0.26932  0.28853  1.0000
  C   C21       1.0  0.32858  0.28055  0.29548  1.0000
  C   C22       1.0  0.44219  0.31043  0.52892  1.0000
  H   H37       1.0  0.11146  0.21843  0.53317  1.0000
  C   C23       1.0  0.25674  0.25721  0.32479  1.0000
  S   S9        1.0  0.18699  0.19347  0.42145  1.0000
  C   C24       1.0  0.14537  0.17229  0.51438  1.0000
  Fe  Fe6       1.0  0.24501  0.19291  0.39167  1.0000
  S   S10       1.0  0.28952  0.23788  0.39039  1.0000
  S   S11       1.0  0.21927  0.17140  0.33959  1.0000
  C   C25       1.0  0.29081  0.25643  0.34632  1.0000
  C   C26       1.0  0.32649  0.26913  0.33202  1.0000
  H   H38       1.0  0.22877  0.24878  0.33615  1.0000
  Fe  Fe7       1.0  0.16295  0.16631  0.37121  1.0000
  H   H39       1.0  0.16060  0.18737  0.49358  1.0000
  N   N3        1.0  0.33755  0.34177  0.43224  1.0000
  C   C27       1.0  0.11789  0.19000  0.53715  1.0000
  H   H40       1.0  0.29297  0.31845  0.39766  1.0000
  C   C28       1.0  0.29626  0.33950  0.41937  1.0000
  H   H41       1.0  0.27581  0.33228  0.44204  1.0000
  C   C29       1.0  0.36351  0.35086  0.40109  1.0000
  C   C30       1.0  0.34060  0.37020  0.46071  1.0000
  H   H42       1.0  0.32112  0.36449  0.48453  1.0000
  H   H43       1.0  0.26498  0.21657  0.54803  1.0000
  H   H44       1.0  0.36111  0.33056  0.37862  1.0000
  C   C31       1.0  0.34994  0.30661  0.44770  1.0000
  H   H45       1.0  0.34824  0.28455  0.42687  1.0000
  C   C32       1.0  0.27743  0.14837  0.52463  1.0000
  H   H46       1.0  0.32431  0.13973  0.31576  1.0000
  H   H47       1.0  0.28609  0.36573  0.40768  1.0000
  H   H48       1.0  0.56401  0.15870  0.53665  1.0000
  H   H49       1.0  0.39506  0.35164  0.40966  1.0000
  C   C33       1.0  0.56902  0.12892  0.53560  1.0000
  H   H50       1.0  0.30851  0.15173  0.51514  1.0000
  H   H51       1.0  0.38098  0.30759  0.45783  1.0000
  C   C34       1.0  0.45085  0.37398  0.54288  1.0000
  H   H52       1.0  0.39029  0.21503  0.34271  1.0000
  C   C35       1.0  0.34402  0.15735  0.33240  1.0000
  C   C36       1.0  0.39737  0.13330  0.53455  1.0000
  H   H53       1.0  0.37132  0.37224  0.47134  1.0000
  H   H54       1.0  0.43369  0.19693  0.32091  1.0000
  S   S12       1.0  0.39385  0.18023  0.53956  1.0000
  H   H55       1.0  0.44060  0.28856  0.50915  1.0000
  S   S13       1.0  0.45410  0.35404  0.47013  1.0000
  H   H56       1.0  0.32700  0.18234  0.33937  1.0000
  H   H57       1.0  0.35271  0.26926  0.34885  1.0000
  C   C37       1.0  0.44881  0.34581  0.51715  1.0000
  N   N4        1.0  0.38091  0.16583  0.31251  1.0000
  C   C38       1.0  0.40264  0.13201  0.30401  1.0000
  C   C39       1.0  0.40593  0.18945  0.33546  1.0000
  S   S14       1.0  0.27644  0.20827  0.67519  1.0000
  C   C40       1.0  0.29279  0.22386  0.78379  1.0000
  C   C41       1.0  0.29503  0.22765  0.74563  1.0000
  C   C42       1.0  0.27144  0.20627  0.72283  1.0000
  C   C43       1.0  0.24525  0.18149  0.73818  1.0000
  H   H58       1.0  0.31471  0.24738  0.73391  1.0000
  C   C44       1.0  0.24298  0.17770  0.77625  1.0000
  H   H59       1.0  0.22322  0.15795  0.78775  1.0000
  H   H60       1.0  0.22773  0.16430  0.72064  1.0000
  Fe  Fe8       1.0  0.33998  0.21759  0.66089  1.0000
  H   H61       1.0  0.15981  0.21658  0.68077  1.0000
  C   C45       1.0  0.26695  0.19868  0.79911  1.0000
  H   H62       1.0  0.31117  0.24033  0.80137  1.0000
  H   H63       1.0  0.13115  0.14207  0.65222  1.0000
  C   C46       1.0  0.12767  0.21054  0.67862  1.0000
  C   C47       1.0  0.13965  0.14625  0.68139  1.0000
  H   H64       1.0  0.28066  0.20944  0.59442  1.0000
  H   H65       1.0  0.12145  0.15518  0.75247  1.0000
  H   H66       1.0  0.17205  0.15085  0.68230  1.0000
  N   N5        1.0  0.11756  0.17682  0.69802  1.0000
  H   H67       1.0  0.32583  0.15520  0.75150  1.0000
  H   H68       1.0  0.22653  0.16489  0.60359  1.0000
  H   H69       1.0  0.26104  0.15966  0.98484  1.0000
  C   C48       1.0  0.12822  0.18036  0.73713  1.0000
  H   H70       1.0  0.16028  0.18565  0.74067  1.0000
  H   H71       1.0  0.11108  0.23414  0.68998  1.0000
  H   H72       1.0  0.11171  0.20287  0.75065  1.0000
  H   H73       1.0  0.35026  0.17404  0.81310  1.0000
  H   H74       1.0  0.59876  0.16096  0.74175  1.0000
  H   H75       1.0  0.41501  0.16749  0.02810  1.0000
  C   C49       1.0  0.28373  0.19921  0.56580  1.0000
  C   C50       1.0  0.23078  0.15688  0.57438  1.0000
  H   H76       1.0  0.31490  0.20322  0.55710  1.0000
  H   H77       1.0  0.12031  0.20859  0.64896  1.0000
  H   H78       1.0  0.43190  0.27578  0.57483  1.0000
  H   H79       1.0  0.37593  0.14987  0.73661  1.0000
  C   C51       1.0  0.58665  0.17026  0.68474  1.0000
  S   S15       1.0  0.35771  0.24819  0.61093  1.0000
  H   H80       1.0  0.53033  0.33268  0.72605  1.0000
  S   S16       1.0  0.37263  0.16708  0.64532  1.0000
  H   H81       1.0  0.49992  0.27264  0.73758  1.0000
  H   H82       1.0  0.56597  0.17474  0.62926  1.0000
  Fe  Fe9       1.0  0.40991  0.26550  0.64395  1.0000
  S   S17       1.0  0.38888  0.23955  0.69592  1.0000
  Fe  Fe10      1.0  0.39444  0.19936  0.59783  1.0000
  S   S18       1.0  0.43381  0.32160  0.63898  1.0000
  Fe  Fe11      1.0  0.42309  0.19129  0.67581  1.0000
  H   H83       1.0  0.50518  0.23700  0.70429  1.0000
  S   S19       1.0  0.45757  0.15777  0.71567  1.0000
  S   S20       1.0  0.44846  0.21914  0.62668  1.0000
  C   C52       1.0  0.55788  0.16924  0.65735  1.0000
  C   C53       1.0  0.51836  0.16293  0.66663  1.0000
  C   C54       1.0  0.50753  0.15811  0.70324  1.0000
  C   C55       1.0  0.53666  0.15647  0.73023  1.0000
  H   H84       1.0  0.49615  0.16214  0.64559  1.0000
  N   N6        1.0  0.53689  0.28564  0.69158  1.0000
  C   C56       1.0  0.53943  0.27692  0.65208  1.0000
  C   C57       1.0  0.53205  0.32515  0.69651  1.0000
  C   C58       1.0  0.50262  0.26688  0.70774  1.0000
  C   C59       1.0  0.43963  0.33113  0.59213  1.0000
  H   H85       1.0  0.52851  0.15202  0.75852  1.0000
  H   H86       1.0  0.47451  0.27561  0.69458  1.0000
  H   H87       1.0  0.50457  0.33517  0.68306  1.0000
  H   H88       1.0  0.51233  0.28587  0.63730  1.0000
  H   H89       1.0  0.56509  0.29046  0.63902  1.0000
  H   H90       1.0  0.54292  0.24728  0.64744  1.0000
  C   C60       1.0  0.57629  0.16230  0.72089  1.0000
  H   H91       1.0  0.55732  0.34015  0.68447  1.0000
  C   C61       1.0  0.44662  0.36657  0.58042  1.0000
  H   H92       1.0  0.40017  0.16790  0.79720  1.0000
  H   H93       1.0  0.59996  0.28735  0.69870  1.0000
  C   C62       1.0  0.43721  0.37169  0.04941  1.0000
  C   C63       1.0  0.57346  0.27362  0.71001  1.0000
  C   C64       1.0  0.35090  0.13575  0.75009  1.0000
  C   C65       1.0  0.37450  0.15378  0.80976  1.0000
  C   C66       1.0  0.29764  0.13871  0.58710  1.0000
  H   H94       1.0  0.57252  0.27971  0.73992  1.0000
  H   H95       1.0  0.34890  0.20931  0.01856  1.0000
  H   H96       1.0  0.38338  0.14490  0.83765  1.0000
  H   H97       1.0  0.34445  0.14282  0.01534  1.0000
  C   C67       1.0  0.33890  0.14465  0.98534  1.0000
  H   H98       1.0  0.50623  0.14730  0.57818  1.0000
  Fe  Fe12      1.0  0.13940  0.13752  0.89498  1.0000
  Fe  Fe13      1.0  0.21767  0.15264  0.85839  1.0000
  C   C68       1.0  0.34506  0.20963  0.98826  1.0000
  H   H99       1.0  0.26561  0.20795  0.98697  1.0000
  S   S21       1.0  0.15509  0.15871  0.83930  1.0000
  H   H100      1.0  0.34355  0.17935  0.92092  1.0000
  H   H101      1.0  0.29548  0.15944  0.92514  1.0000
  S   S22       1.0  0.26624  0.19181  0.84653  1.0000
  H   H102      1.0  0.30061  0.20747  0.92722  1.0000
  N   N7        1.0  0.31990  0.17945  0.97570  1.0000
  C   C69       1.0  0.31476  0.18150  0.93555  1.0000
  C   C70       1.0  0.28082  0.18205  0.99373  1.0000
  S   S23       1.0  0.20176  0.13738  0.91564  1.0000
  C   C71       1.0  0.10710  0.13433  0.57007  1.0000
  H   H103      1.0  0.36795  0.14113  0.97126  1.0000
  H   H104      1.0  0.57820  0.24397  0.70671  1.0000
  H   H105      1.0  0.37512  0.20806  0.97591  1.0000
  C   C72       1.0  0.43730  0.30316  0.56625  1.0000
  H   H106      1.0  0.33204  0.23636  0.98105  1.0000
  H   H107      1.0  0.43211  0.35113  0.02875  1.0000
  N   N8        1.0  0.27238  0.16077  0.56293  1.0000
  C   C73       1.0  0.45701  0.13108  0.05277  1.0000
  H   H108      1.0  0.28357  0.18076  0.02410  1.0000
  H   H109      1.0  0.21108  0.17439  0.55778  1.0000
  C   C74       1.0  0.43098  0.16074  0.05273  1.0000
  H   H110      1.0  0.29426  0.14717  0.61628  1.0000
  H   H111      1.0  0.32927  0.14140  0.57956  1.0000
  H   H112      1.0  0.22058  0.12845  0.57104  1.0000
  H   H113      1.0  0.30245  0.12488  0.80790  1.0000
  Fe  Fe14      1.0  0.28332  0.55166  0.22503  1.0000
  S   S24       1.0  0.33761  0.51962  0.23787  1.0000
  S   S25       1.0  0.22703  0.52696  0.20561  1.0000
  Fe  Fe15      1.0  0.19835  0.56564  0.24519  1.0000
  S   S26       1.0  0.21195  0.56245  0.10676  1.0000
  Fe  Fe16      1.0  0.22453  0.57327  0.16632  1.0000
  S   S27       1.0  0.25527  0.58667  0.26808  1.0000
  S   S28       1.0  0.28413  0.59401  0.18167  1.0000
  C   C75       1.0  0.17812  0.59216  0.08620  1.0000
  S   S29       1.0  0.14965  0.54280  0.27971  1.0000
  N   N9        1.0  0.34130  0.42050  0.18734  1.0000
  C   C76       1.0  0.33347  0.50204  0.28206  1.0000
  H   H114      1.0  0.29978  0.46465  0.18460  1.0000
  C   C77       1.0  0.30407  0.43835  0.19884  1.0000
  H   H115      1.0  0.30405  0.44436  0.22878  1.0000
  H   H116      1.0  0.27801  0.42107  0.19297  1.0000
  H   H117      1.0  0.14241  0.51531  0.09495  1.0000
  H   H118      1.0  0.30453  0.56999  0.10146  1.0000
  H   H119      1.0  0.27041  0.50988  0.28595  1.0000
  C   C78       1.0  0.32848  0.58624  0.08875  1.0000
  H   H120      1.0  0.12830  0.54471  0.13195  1.0000
  C   C79       1.0  0.34021  0.41299  0.14754  1.0000
  S   S30       1.0  0.19109  0.61032  0.20440  1.0000
  H   H121      1.0  0.34731  0.59725  0.11115  1.0000
  H   H122      1.0  0.34738  0.56737  0.07245  1.0000
  H   H123      1.0  0.33724  0.43840  0.13152  1.0000
  C   C80       1.0  0.34608  0.38615  0.20740  1.0000
  H   H124      1.0  0.36779  0.39921  0.13813  1.0000
  H   H125      1.0  0.31511  0.39505  0.14022  1.0000
  C   C81       1.0  0.29690  0.50129  0.30000  1.0000
  C   C82       1.0  0.16111  0.62080  0.10594  1.0000
  H   H126      1.0  0.12750  0.49663  0.13811  1.0000
  C   C83       1.0  0.12124  0.51856  0.11816  1.0000
  H   H127      1.0  0.57414  0.62164  0.20271  1.0000
  H   H128      1.0  0.34668  0.39071  0.23756  1.0000
  H   H129      1.0  0.37195  0.47102  0.18157  1.0000
  C   C84       1.0  0.37497  0.44448  0.19562  1.0000
  H   H130      1.0  0.37722  0.45009  0.22551  1.0000
  H   H131      1.0  0.58368  0.38554  0.16147  1.0000
  C   C85       1.0  0.44622  0.43463  0.06602  1.0000
  C   C86       1.0  0.45047  0.42468  0.10286  1.0000
  H   H132      1.0  0.45562  0.44526  0.12348  1.0000
  S   S31       1.0  0.43214  0.58427  0.07066  1.0000
  H   H133      1.0  0.39563  0.49022  0.28611  1.0000
  C   C87       1.0  0.44742  0.38832  0.11300  1.0000
  H   H134      1.0  0.57240  0.38440  0.20937  1.0000
  H   H135      1.0  0.53305  0.38657  0.17642  1.0000
  H   H136      1.0  0.38871  0.57804  0.27373  1.0000
  H   H137      1.0  0.40350  0.43231  0.18669  1.0000
  C   C88       1.0  0.56263  0.37452  0.18200  1.0000
  H   H138      1.0  0.44851  0.54449  0.29004  1.0000
  C   C89       1.0  0.36739  0.49001  0.30005  1.0000
  H   H139      1.0  0.44819  0.46279  0.05833  1.0000
  C   C90       1.0  0.16636  0.61143  0.54188  1.0000
  H   H140      1.0  0.45471  0.60956  0.27297  1.0000
  S   S32       1.0  0.11479  0.55508  0.53249  1.0000
  H   H141      1.0  0.33225  0.39730  0.44980  1.0000
  N   N10       1.0  0.31218  0.61546  0.06570  1.0000
  H   H142      1.0  0.39760  0.62078  0.53997  1.0000
  H   H143      1.0  0.36656  0.56698  0.31679  1.0000
  H   H144      1.0  0.35579  0.37781  0.38948  1.0000
  H   H145      1.0  0.22612  0.56411  0.46012  1.0000
  C   C91       1.0  0.12615  0.57488  0.30775  1.0000
  H   H146      1.0  0.15315  0.49919  0.42165  1.0000
  C   C92       1.0  0.20153  0.54434  0.45810  1.0000
  C   C93       1.0  0.29452  0.48934  0.33634  1.0000
  C   C94       1.0  0.32877  0.47868  0.35485  1.0000
  N   N11       1.0  0.17400  0.55370  0.42818  1.0000
  C   C95       1.0  0.14166  0.52700  0.42700  1.0000
  H   H147      1.0  0.12512  0.52640  0.45345  1.0000
  C   C96       1.0  0.19542  0.55333  0.39281  1.0000
  C   C97       1.0  0.15723  0.59015  0.43496  1.0000
  S   S33       1.0  0.32640  0.46596  0.40099  1.0000
  H   H148      1.0  0.26628  0.48893  0.35025  1.0000
  H   H149      1.0  0.21982  0.57339  0.39261  1.0000
  H   H150      1.0  0.12005  0.53348  0.40503  1.0000
  H   H151      1.0  0.17544  0.56006  0.36960  1.0000
  H   H152      1.0  0.13709  0.59856  0.41252  1.0000
  H   H153      1.0  0.13983  0.59089  0.46083  1.0000
  H   H154      1.0  0.18073  0.61097  0.43712  1.0000
  H   H155      1.0  0.20859  0.52625  0.38683  1.0000
  S   S34       1.0  0.45112  0.37633  0.15925  1.0000
  H   H156      1.0  0.18616  0.54417  0.48515  1.0000
  H   H157      1.0  0.21490  0.51703  0.45385  1.0000
  C   C98       1.0  0.13641  0.61142  0.30624  1.0000
  C   C99       1.0  0.60548  0.44176  0.36930  1.0000
  H   H158      1.0  0.15873  0.62037  0.28711  1.0000
  H   H159      1.0  0.44830  0.60169  0.37422  1.0000
  H   H160      1.0  0.56562  0.50750  0.29941  1.0000
  C   C100      1.0  0.58709  0.55610  0.32531  1.0000
  H   H161      1.0  0.60045  0.41347  0.37838  1.0000
  C   C101      1.0  0.36515  0.47895  0.33658  1.0000
  H   H162      1.0  0.55813  0.58698  0.40913  1.0000
  S   S35       1.0  0.42992  0.51005  0.41965  1.0000
  C   C102      1.0  0.50338  0.58613  0.54413  1.0000
  C   C103      1.0  0.53940  0.51564  0.35266  1.0000
  C   C104      1.0  0.48612  0.56748  0.51486  1.0000
  H   H163      1.0  0.42889  0.53301  0.33415  1.0000
  C   C105      1.0  0.53715  0.53807  0.38356  1.0000
  Fe  Fe17      1.0  0.44873  0.49211  0.47568  1.0000
  C   C106      1.0  0.38589  0.58692  0.30285  1.0000
  S   S36       1.0  0.40256  0.44898  0.48034  1.0000
  H   H164      1.0  0.59452  0.44401  0.34065  1.0000
  C   C107      1.0  0.52395  0.61828  0.53796  1.0000
  C   C108      1.0  0.49035  0.58057  0.47919  1.0000
  Fe  Fe18      1.0  0.38829  0.46322  0.42243  1.0000
  Fe  Fe19      1.0  0.44888  0.41275  0.45586  1.0000
  N   N12       1.0  0.42490  0.58957  0.32082  1.0000
  H   H165      1.0  0.47711  0.56628  0.45651  1.0000
  H   H166      1.0  0.51819  0.53100  0.40629  1.0000
  S   S37       1.0  0.49679  0.45444  0.45585  1.0000
  H   H167      1.0  0.47531  0.55559  0.33088  1.0000
  C   C109      1.0  0.56414  0.52475  0.32345  1.0000
  S   S38       1.0  0.43074  0.42336  0.39817  1.0000
  C   C110      1.0  0.58482  0.57857  0.35617  1.0000
  S   S39       1.0  0.51123  0.47633  0.34996  1.0000
  C   C111      1.0  0.51072  0.61297  0.47307  1.0000
  C   C112      1.0  0.44525  0.55413  0.31884  1.0000
  C   C113      1.0  0.41946  0.60009  0.35964  1.0000
  C   C114      1.0  0.55962  0.56975  0.38513  1.0000
  H   H168      1.0  0.39174  0.47086  0.35055  1.0000
  H   H169      1.0  0.45610  0.40140  0.53393  1.0000
  Fe  Fe20      1.0  0.47395  0.46866  0.40008  1.0000
  S   S40       1.0  0.45773  0.52907  0.52395  1.0000
  H   H170      1.0  0.40093  0.58008  0.37448  1.0000
  H   H171      1.0  0.58642  0.45960  0.38664  1.0000
  H   H172      1.0  0.37003  0.61340  0.30299  1.0000
  C   C115      1.0  0.44914  0.61706  0.30210  1.0000
  H   H173      1.0  0.47840  0.62038  0.31553  1.0000
  H   H174      1.0  0.51300  0.62370  0.44566  1.0000
  H   H175      1.0  0.15481  0.62228  0.51673  1.0000
  S   S41       1.0  0.28226  0.53500  0.77015  1.0000
  C   C116      1.0  0.16752  0.56505  0.58836  1.0000
  H   H176      1.0  0.20984  0.57265  0.63189  1.0000
  S   S42       1.0  0.21421  0.60362  0.71346  1.0000
  Fe  Fe21      1.0  0.26937  0.58878  0.74423  1.0000
  C   C117      1.0  0.19762  0.58363  0.60693  1.0000
  C   C118      1.0  0.21272  0.61562  0.59238  1.0000
  C   C119      1.0  0.15168  0.57905  0.55592  1.0000
  S   S43       1.0  0.31008  0.61140  0.70177  1.0000
  H   H177      1.0  0.15646  0.53984  0.59917  1.0000
  H   H178      1.0  0.16086  0.60008  0.77364  1.0000
  C   C120      1.0  0.14136  0.61009  0.79481  1.0000
  H   H179      1.0  0.53398  0.38568  0.94219  1.0000
  H   H180      1.0  0.58556  0.38772  0.95361  1.0000
  H   H181      1.0  0.33763  0.60052  0.57443  1.0000
  H   H182      1.0  0.11763  0.49888  0.85613  1.0000
  H   H183      1.0  0.36927  0.57927  0.60755  1.0000
  H   H184      1.0  0.33253  0.61169  0.62192  1.0000
  C   C121      1.0  0.35453  0.60521  0.60013  1.0000
  H   H185      1.0  0.44835  0.38833  0.60029  1.0000
  H   H186      1.0  0.37187  0.56419  0.79192  1.0000
  H   H187      1.0  0.37590  0.60855  0.77208  1.0000
  C   C122      1.0  0.37133  0.59370  0.79821  1.0000
  H   H188      1.0  0.50087  0.57565  0.57165  1.0000
  C   C123      1.0  0.44103  0.59338  0.81220  1.0000
  H   H189      1.0  0.44794  0.60718  0.78595  1.0000
  H   H190      1.0  0.44347  0.56366  0.80748  1.0000
  H   H191      1.0  0.60168  0.45911  0.91319  1.0000
  H   H192      1.0  0.34104  0.60043  0.80803  1.0000
  H   H193      1.0  0.26365  0.58303  0.04684  1.0000
  H   H194      1.0  0.16602  0.50348  0.80506  1.0000
  H   H195      1.0  0.15228  0.44379  0.83205  1.0000
  H   H196      1.0  0.21774  0.49804  0.81390  1.0000
  C   C124      1.0  0.28842  0.59943  0.03585  1.0000
  C   C125      1.0  0.13704  0.60735  0.03401  1.0000
  C   C126      1.0  0.16668  0.58598  0.04991  1.0000
  H   H197      1.0  0.30666  0.58120  0.01813  1.0000
  H   H198      1.0  0.19179  0.53713  0.83108  1.0000
  C   C127      1.0  0.18929  0.50748  0.82613  1.0000
  H   H199      1.0  0.20418  0.43768  0.84048  1.0000
  H   H200      1.0  0.16929  0.43334  0.87738  1.0000
  C   C128      1.0  0.14255  0.50203  0.87574  1.0000
  C   C129      1.0  0.17626  0.44894  0.85222  1.0000
  H   H201      1.0  0.24121  0.48469  0.87596  1.0000
  H   H202      1.0  0.20678  0.47841  0.91289  1.0000
  H   H203      1.0  0.21475  0.52267  0.89485  1.0000
  C   C130      1.0  0.28820  0.53907  0.81769  1.0000
  S   S44       1.0  0.30534  0.55096  0.94094  1.0000
  C   C131      1.0  0.29908  0.54612  0.89359  1.0000
  C   C132      1.0  0.26772  0.56577  0.83741  1.0000
  C   C133      1.0  0.31332  0.51521  0.83616  1.0000
  C   C134      1.0  0.31885  0.51880  0.87407  1.0000
  H   H204      1.0  0.32871  0.49409  0.82111  1.0000
  H   H205      1.0  0.24658  0.58297  0.82379  1.0000
  C   C135      1.0  0.27328  0.56942  0.87524  1.0000
  C   C136      1.0  0.21209  0.49360  0.88714  1.0000
  N   N13       1.0  0.18005  0.48799  0.86031  1.0000
  H   H206      1.0  0.25737  0.59021  0.89031  1.0000
  H   H207      1.0  0.33773  0.49992  0.88825  1.0000
  H   H208      1.0  0.18028  0.56430  0.03423  1.0000
  H   H209      1.0  0.13431  0.48793  0.90145  1.0000
  H   H210      1.0  0.12855  0.60263  0.00593  1.0000
  H   H211      1.0  0.27540  0.62059  0.01793  1.0000
  H   H212      1.0  0.14466  0.53145  0.88234  1.0000
  H   H213      1.0  0.12202  0.55697  0.81041  1.0000
  Fe  Fe22      1.0  0.36664  0.53609  0.95882  1.0000
  H   H214      1.0  0.54308  0.46929  0.99873  1.0000
  H   H215      1.0  0.57098  0.42843  0.00566  1.0000
  H   H216      1.0  0.46438  0.60076  0.83233  1.0000
  S   S45       1.0  0.37884  0.51281  0.01414  1.0000
  S   S46       1.0  0.49414  0.55182  0.89234  1.0000
  H   H217      1.0  0.41583  0.59062  0.88151  1.0000
  H   H218      1.0  0.52348  0.58338  0.95916  1.0000
  C   C137      1.0  0.59358  0.45948  0.94274  1.0000
  S   S47       1.0  0.43492  0.41989  0.99302  1.0000
  H   H219      1.0  0.59083  0.48829  0.95153  1.0000
  H   H220      1.0  0.36471  0.61913  0.03279  1.0000
  S   S48       1.0  0.40830  0.49865  0.92951  1.0000
  N   N14       1.0  0.55659  0.43948  0.94948  1.0000
  H   H221      1.0  0.49534  0.44270  0.93397  1.0000
  H   H222      1.0  0.56971  0.39918  0.90837  1.0000
  H   H223      1.0  0.39385  0.55437  0.85618  1.0000
  H   H224      1.0  0.36379  0.59165  0.87179  1.0000
  C   C138      1.0  0.54215  0.55728  0.90906  1.0000
  H   H225      1.0  0.51926  0.42618  0.99516  1.0000
  N   N15       1.0  0.40133  0.60357  0.82583  1.0000
  S   S49       1.0  0.41018  0.58124  0.96394  1.0000
  H   H226      1.0  0.52973  0.45465  0.89838  1.0000
  C   C139      1.0  0.57440  0.54455  0.88856  1.0000
  C   C140      1.0  0.39327  0.58423  0.86034  1.0000
  C   C141      1.0  0.56161  0.40134  0.93788  1.0000
  H   H227      1.0  0.52046  0.48531  0.93545  1.0000
  C   C142      1.0  0.43968  0.40809  0.03926  1.0000
  Fe  Fe23      1.0  0.45320  0.54161  0.93940  1.0000
  H   H228      1.0  0.59154  0.59056  0.98291  1.0000
  C   C143      1.0  0.54708  0.44092  0.98900  1.0000
  C   C144      1.0  0.54832  0.57340  0.94327  1.0000
  Fe  Fe24      1.0  0.42492  0.47937  0.98540  1.0000
  H   H229      1.0  0.56957  0.53187  0.86216  1.0000
  C   C145      1.0  0.58682  0.57749  0.95668  1.0000
  C   C146      1.0  0.52410  0.45619  0.92839  1.0000
  S   S50       1.0  0.47354  0.51940  0.99323  1.0000
  Fe  Fe25      1.0  0.42613  0.55499  0.01711  1.0000
  C   C147      1.0  0.11957  0.58562  0.81589  1.0000
  H   H230      1.0  0.12933  0.61907  0.64265  1.0000
  H   H231      1.0  0.42776  0.59900  0.57348  1.0000
  H   H232      1.0  0.42072  0.61577  0.63943  1.0000
  H   H233      1.0  0.32435  0.74516  0.22860  1.0000
  S   S51       1.0  0.27080  0.68487  0.23090  1.0000
  C   C148      1.0  0.32266  0.68703  0.23197  1.0000
  C   C149      1.0  0.34525  0.65529  0.23414  1.0000
  C   C150      1.0  0.34169  0.72054  0.23018  1.0000
  C   C151      1.0  0.13134  0.64207  0.09011  1.0000
  H   H234      1.0  0.30411  0.65185  0.11137  1.0000
  H   H235      1.0  0.33090  0.62938  0.23602  1.0000
  C   C152      1.0  0.28703  0.63956  0.08842  1.0000
  H   H236      1.0  0.17051  0.62646  0.13350  1.0000
  H   H237      1.0  0.11765  0.66363  0.10586  1.0000
  Fe  Fe26      1.0  0.25143  0.62750  0.22315  1.0000
  C   C153      1.0  0.11782  0.63650  0.32968  1.0000
  H   H238      1.0  0.45035  0.86796  0.28340  1.0000
  C   C154      1.0  0.54818  0.84811  0.45413  1.0000
  C   C155      1.0  0.41369  0.87430  0.13437  1.0000
  H   H239      1.0  0.52859  0.81737  0.05915  1.0000
  H   H240      1.0  0.56621  0.71793  0.23099  1.0000
  C   C156      1.0  0.56493  0.64660  0.21770  1.0000
  C   C157      1.0  0.38661  0.65699  0.23386  1.0000
  C   C158      1.0  0.44496  0.65102  0.09986  1.0000
  C   C159      1.0  0.40565  0.69044  0.23206  1.0000
  C   C160      1.0  0.38315  0.72225  0.23019  1.0000
  H   H241      1.0  0.39763  0.74821  0.22918  1.0000
  C   C161      1.0  0.45492  0.68770  0.09859  1.0000
  Fe  Fe27      1.0  0.47897  0.73991  0.20079  1.0000
  Fe  Fe28      1.0  0.55563  0.77709  0.18051  1.0000
  Fe  Fe29      1.0  0.47959  0.81988  0.18383  1.0000
  S   S52       1.0  0.45754  0.69205  0.23280  1.0000
  S   S53       1.0  0.52573  0.72767  0.15909  1.0000
  S   S54       1.0  0.52626  0.81424  0.14050  1.0000
  S   S55       1.0  0.51168  0.78655  0.22556  1.0000
  H   H242      1.0  0.45350  0.70371  0.12336  1.0000
  Fe  Fe30      1.0  0.49179  0.76539  0.12322  1.0000
  S   S56       1.0  0.44225  0.77415  0.16311  1.0000
  H   H243      1.0  0.40676  0.84674  0.14170  1.0000
  H   H244      1.0  0.54501  0.66217  0.19931  1.0000
  H   H245      1.0  0.54683  0.63842  0.24174  1.0000
  H   H246      1.0  0.40377  0.63232  0.23411  1.0000
  S   S57       1.0  0.48095  0.74906  0.06483  1.0000
  H   H247      1.0  0.56853  0.69429  0.27364  1.0000
  C   C162      1.0  0.58569  0.70114  0.24861  1.0000
  C   C163      1.0  0.46637  0.70346  0.06551  1.0000
  N   N16       1.0  0.59944  0.66829  0.22903  1.0000
  H   H248      1.0  0.37898  0.87309  0.08500  1.0000
  H   H249      1.0  0.45620  0.82854  0.06878  1.0000
  H   H250      1.0  0.60464  0.69517  0.17708  1.0000
  C   C164      1.0  0.44603  0.62987  0.06800  1.0000
  H   H251      1.0  0.20889  0.65412  0.54847  1.0000
  H   H252      1.0  0.56395  0.80448  0.49015  1.0000
  H   H253      1.0  0.43627  0.63909  0.12564  1.0000
  H   H254      1.0  0.49048  0.87107  0.31564  1.0000
  N   N17       1.0  0.45487  0.86582  0.54461  1.0000
  Fe  Fe31      1.0  0.54861  0.70978  0.54430  1.0000
  H   H255      1.0  0.12586  0.66478  0.32852  1.0000
  H   H256      1.0  0.26201  0.62455  0.10084  1.0000
  H   H257      1.0  0.40466  0.62697  0.36216  1.0000
  H   H258      1.0  0.42871  0.84337  0.49595  1.0000
  C   C165      1.0  0.52699  0.63210  0.50256  1.0000
  H   H259      1.0  0.47980  0.83199  0.50233  1.0000
  H   H260      1.0  0.27418  0.66196  0.07199  1.0000
  C   C166      1.0  0.56467  0.83334  0.48596  1.0000
  S   S58       1.0  0.51777  0.76305  0.53821  1.0000
  H   H261      1.0  0.36350  0.64896  0.07163  1.0000
  S   S59       1.0  0.55066  0.67341  0.49490  1.0000
  C   C167      1.0  0.58234  0.85589  0.51202  1.0000
  H   H262      1.0  0.43429  0.64407  0.30213  1.0000
  C   C168      1.0  0.45130  0.83666  0.51695  1.0000
  H   H263      1.0  0.44266  0.81060  0.52987  1.0000
  H   H264      1.0  0.60392  0.64372  0.43839  1.0000
  H   H265      1.0  0.53390  0.83065  0.43435  1.0000
  S   S60       1.0  0.59872  0.83849  0.55397  1.0000
  S   S61       1.0  0.25413  0.68483  0.70565  1.0000
  S   S62       1.0  0.16339  0.67843  0.77363  1.0000
  H   H266      1.0  0.32561  0.71937  0.68342  1.0000
  Fe  Fe32      1.0  0.30682  0.66229  0.73489  1.0000
  Fe  Fe33      1.0  0.21762  0.65473  0.74673  1.0000
  H   H267      1.0  0.18142  0.66038  0.66176  1.0000
  C   C169      1.0  0.16379  0.68340  0.65091  1.0000
  H   H268      1.0  0.17182  0.70784  0.66718  1.0000
  N   N18       1.0  0.12101  0.67595  0.65299  1.0000
  H   H269      1.0  0.17365  0.68769  0.62215  1.0000
  H   H270      1.0  0.35050  0.74984  0.62786  1.0000
  C   C170      1.0  0.10932  0.67104  0.69169  1.0000
  H   H271      1.0  0.11555  0.69569  0.70837  1.0000
  H   H272      1.0  0.12003  0.64556  0.60255  1.0000
  H   H273      1.0  0.12581  0.64826  0.70454  1.0000
  S   S63       1.0  0.27044  0.63835  0.77965  1.0000
  H   H274      1.0  0.34623  0.66507  0.55936  1.0000
  C   C171      1.0  0.41656  0.87084  0.56352  1.0000
  C   C172      1.0  0.36248  0.66837  0.58561  1.0000
  S   S64       1.0  0.25143  0.63869  0.61389  1.0000
  H   H275      1.0  0.34031  0.67634  0.60684  1.0000
  N   N19       1.0  0.49319  0.85609  0.03002  1.0000
  Fe  Fe34      1.0  0.25518  0.63216  0.67491  1.0000
  C   C173      1.0  0.11228  0.64261  0.63203  1.0000
  C   C174      1.0  0.46692  0.68247  0.03342  1.0000
  H   H276      1.0  0.45804  0.62939  0.01002  1.0000
  C   C175      1.0  0.35699  0.72242  0.67946  1.0000
  H   H277      1.0  0.38338  0.69135  0.58242  1.0000
  H   H278      1.0  0.40728  0.84553  0.57760  1.0000
  C   C176      1.0  0.40448  0.64054  0.63083  1.0000
  H   H279      1.0  0.42640  0.66279  0.62856  1.0000
  H   H280      1.0  0.47746  0.83032  0.58618  1.0000
  S   S65       1.0  0.36595  0.68752  0.74509  1.0000
  C   C177      1.0  0.37112  0.73983  0.64807  1.0000
  C   C178      1.0  0.38340  0.70986  0.70598  1.0000
  Fe  Fe35      1.0  0.56975  0.78591  0.56794  1.0000
  C   C179      1.0  0.41176  0.74384  0.64258  1.0000
  S   S66       1.0  0.42896  0.76373  0.60210  1.0000
  C   C180      1.0  0.42408  0.71439  0.70076  1.0000
  C   C181      1.0  0.43830  0.73100  0.66887  1.0000
  H   H281      1.0  0.44466  0.70471  0.72115  1.0000
  Fe  Fe36      1.0  0.57198  0.72473  0.62245  1.0000
  Fe  Fe37      1.0  0.49340  0.75203  0.59387  1.0000
  S   S67       1.0  0.51964  0.69651  0.59787  1.0000
  H   H282      1.0  0.46977  0.73411  0.66483  1.0000
  S   S68       1.0  0.54277  0.77942  0.62358  1.0000
  S   S69       1.0  0.60325  0.73368  0.56897  1.0000
  S   S70       1.0  0.60208  0.70498  0.67354  1.0000
  H   H283      1.0  0.38362  0.64809  0.65329  1.0000
  H   H284      1.0  0.51452  0.85116  0.55833  1.0000
  N   N20       1.0  0.38344  0.63474  0.59585  1.0000
  H   H285      1.0  0.53792  0.63202  0.56058  1.0000
  C   C182      1.0  0.45681  0.64563  0.03467  1.0000
  C   C183      1.0  0.48535  0.85573  0.57167  1.0000
  C   C184      1.0  0.41223  0.62481  0.56694  1.0000
  C   C185      1.0  0.13724  0.64734  0.80073  1.0000
  H   H286      1.0  0.33381  0.65879  0.03214  1.0000
  H   H287      1.0  0.48326  0.84929  0.97225  1.0000
  H   H288      1.0  0.43517  0.64605  0.56347  1.0000
  C   C186      1.0  0.11139  0.65990  0.82810  1.0000
  C   C187      1.0  0.39971  0.64303  0.83261  1.0000
  H   H289      1.0  0.44928  0.81488  0.02217  1.0000
  H   H290      1.0  0.43025  0.85785  0.03773  1.0000
  H   H291      1.0  0.36970  0.65185  0.84164  1.0000
  H   H292      1.0  0.55443  0.84125  0.02373  1.0000
  H   H293      1.0  0.42113  0.65134  0.85411  1.0000
  C   C188      1.0  0.49012  0.87088  0.99259  1.0000
  C   C189      1.0  0.34491  0.63657  0.04983  1.0000
  H   H294      1.0  0.47588  0.69449  0.00780  1.0000
  H   H295      1.0  0.40680  0.65847  0.80735  1.0000
  C   C190      1.0  0.45554  0.83865  0.04008  1.0000
  H   H296      1.0  0.51995  0.80600  0.01234  1.0000
  C   C191      1.0  0.52556  0.82911  0.03131  1.0000
  C   C192      1.0  0.19716  0.62941  0.55982  1.0000
  H   H297      1.0  0.10809  0.68870  0.83279  1.0000
  H   H298      1.0  0.10610  0.73257  0.65162  1.0000
  C   C193      1.0  0.11855  0.63473  0.05445  1.0000
  H   H299      1.0  0.30963  0.04806  0.26663  1.0000
  C   C194      1.0  0.32521  0.05001  0.29241  1.0000
  H   H300      1.0  0.13712  0.09091  0.26547  1.0000
  H   H301      1.0  0.28591  0.02094  0.09539  1.0000
  H   H302      1.0  0.31230  0.95852  0.08555  1.0000
  H   H303      1.0  0.18951  0.08533  0.25973  1.0000
  C   C195      1.0  0.16556  0.10576  0.26384  1.0000
  H   H304      1.0  0.14202  0.08854  0.55226  1.0000
  H   H305      1.0  0.17063  0.11869  0.29103  1.0000
  H   H306      1.0  0.58938  0.08629  0.06353  1.0000
  H   H307      1.0  0.38461  0.11348  0.28679  1.0000
  C   C196      1.0  0.47822  0.12250  0.08447  1.0000
  H   H308      1.0  0.41976  0.92294  0.25878  1.0000
  H   H309      1.0  0.37987  0.02968  0.26997  1.0000
  C   C197      1.0  0.44611  0.93863  0.26759  1.0000
  C   C198      1.0  0.40762  0.92457  0.09223  1.0000
  H   H310      1.0  0.43876  0.97302  0.10765  1.0000
  C   C199      1.0  0.43157  0.94555  0.11509  1.0000
  C   C200      1.0  0.44621  0.93100  0.14781  1.0000
  H   H311      1.0  0.46490  0.94720  0.16535  1.0000
  C   C201      1.0  0.43787  0.89515  0.15711  1.0000
  S   S71       1.0  0.50950  0.08450  0.08510  1.0000
  H   H312      1.0  0.46667  0.93933  0.24377  1.0000
  C   C202      1.0  0.39786  0.88928  0.10238  1.0000
  C   C203      1.0  0.36492  0.03951  0.29433  1.0000
  H   H313      1.0  0.43634  0.96694  0.27334  1.0000
  N   N21       1.0  0.46518  0.92219  0.29993  1.0000
  H   H314      1.0  0.17848  0.09377  0.19190  1.0000
  H   H315      1.0  0.52291  0.94230  0.28682  1.0000
  H   H316      1.0  0.55692  0.09705  0.32703  1.0000
  H   H317      1.0  0.51174  0.05371  0.54071  1.0000
  C   C204      1.0  0.54937  0.88547  0.44830  1.0000
  H   H318      1.0  0.41022  0.90717  0.32504  1.0000
  C   C205      1.0  0.47646  0.88432  0.29158  1.0000
  H   H319      1.0  0.60133  0.08126  0.27645  1.0000
  H   H320      1.0  0.59945  0.91048  0.52512  1.0000
  C   C206      1.0  0.38539  0.04205  0.32744  1.0000
  H   H321      1.0  0.10851  0.10441  0.34900  1.0000
  H   H322      1.0  0.10961  0.08682  0.47424  1.0000
  S   S72       1.0  0.25689  0.07890  0.31883  1.0000
  H   H323      1.0  0.50347  0.87584  0.08473  1.0000
  Fe  Fe38      1.0  0.23439  0.11703  0.36215  1.0000
  S   S73       1.0  0.18985  0.11316  0.49296  1.0000
  C   C207      1.0  0.30585  0.06370  0.32342  1.0000
  C   C208      1.0  0.32615  0.06604  0.35678  1.0000
  H   H324      1.0  0.31117  0.07615  0.38095  1.0000
  S   S74       1.0  0.17583  0.10996  0.38965  1.0000
  S   S75       1.0  0.51872  0.99537  0.47102  1.0000
  H   H325      1.0  0.26991  0.11922  0.52147  1.0000
  C   C209      1.0  0.13510  0.11680  0.54775  1.0000
  C   C210      1.0  0.50146  0.88583  0.05607  1.0000
  H   H326      1.0  0.23718  0.00562  0.08369  1.0000
  Fe  Fe39      1.0  0.50812  0.96206  0.42049  1.0000
  N   N22       1.0  0.53162  0.10895  0.54023  1.0000
  H   H327      1.0  0.26337  0.94336  0.07404  1.0000
  H   H328      1.0  0.41066  0.11711  0.32937  1.0000
  C   C211      1.0  0.29071  0.95561  0.06273  1.0000
  H   H329      1.0  0.57751  0.10949  0.12684  1.0000
  C   C212      1.0  0.39734  0.08054  0.49489  1.0000
  H   H330      1.0  0.49344  0.97184  0.31507  1.0000
  H   H331      1.0  0.55352  0.06193  0.51164  1.0000
  C   C213      1.0  0.36593  0.05492  0.35887  1.0000
  H   H332      1.0  0.58688  0.07074  0.35771  1.0000
  C   C214      1.0  0.58512  0.89303  0.50537  1.0000
  H   H333      1.0  0.45107  0.91139  0.35626  1.0000
  S   S76       1.0  0.44350  0.97472  0.41765  1.0000
  S   S77       1.0  0.42110  0.01364  0.51710  1.0000
  C   C215      1.0  0.46628  0.89984  0.52634  1.0000
  Fe  Fe40      1.0  0.45555  0.01194  0.46478  1.0000
  C   C216      1.0  0.43733  0.92297  0.33116  1.0000
  H   H334      1.0  0.39278  0.87840  0.54394  1.0000
  H   H335      1.0  0.51677  0.11416  0.48324  1.0000
  S   S78       1.0  0.52635  0.00577  0.38197  1.0000
  Fe  Fe41      1.0  0.46232  0.02126  0.38287  1.0000
  H   H336      1.0  0.51553  0.93188  0.33436  1.0000
  C   C217      1.0  0.50383  0.11922  0.51084  1.0000
  H   H337      1.0  0.39377  0.06868  0.46797  1.0000
  H   H338      1.0  0.49517  0.89686  0.51197  1.0000
  C   C218      1.0  0.56872  0.90779  0.47350  1.0000
  H   H339      1.0  0.42787  0.95117  0.33782  1.0000
  H   H340      1.0  0.38166  0.05689  0.38457  1.0000
  H   H341      1.0  0.47614  0.10333  0.51246  1.0000
  H   H342      1.0  0.57137  0.93637  0.46837  1.0000
  S   S79       1.0  0.43597  0.03156  0.32768  1.0000
  S   S80       1.0  0.52472  0.90405  0.41056  1.0000
  C   C219      1.0  0.40737  0.05867  0.52460  1.0000
  H   H343      1.0  0.57599  0.11711  0.36824  1.0000
  S   S81       1.0  0.45865  0.87622  0.19657  1.0000
  H   H344      1.0  0.44409  0.90822  0.50553  1.0000
  C   C220      1.0  0.58308  0.09806  0.34539  1.0000
  C   C221      1.0  0.53953  0.06960  0.53821  1.0000
  C   C222      1.0  0.39235  0.11786  0.49986  1.0000
  S   S82       1.0  0.46836  0.06029  0.42966  1.0000
  C   C223      1.0  0.50089  0.94297  0.30948  1.0000
  Fe  Fe42      1.0  0.53088  0.04057  0.43204  1.0000
  S   S83       1.0  0.57875  0.08176  0.43899  1.0000
  H   H345      1.0  0.49781  0.88279  0.26836  1.0000
  H   H346      1.0  0.46914  0.92256  0.54630  1.0000
  C   C224      1.0  0.26530  0.01617  0.07215  1.0000
  H   H347      1.0  0.25859  0.04287  0.05951  1.0000
  H   H348      1.0  0.60109  0.00695  0.44971  1.0000
  C   C225      1.0  0.15581  0.11458  0.19897  1.0000
  H   H349      1.0  0.12666  0.10071  0.20005  1.0000
  H   H350      1.0  0.58322  0.12242  0.50876  1.0000
  H   H351      1.0  0.47758  0.90658  0.05553  1.0000
  S   S84       1.0  0.14495  0.07962  0.76773  1.0000
  C   C226      1.0  0.60546  0.96537  0.97560  1.0000
  H   H352      1.0  0.29012  0.10949  0.58511  1.0000
  H   H353      1.0  0.35039  0.11336  0.89817  1.0000
  N   N23       1.0  0.36184  0.12279  0.78694  1.0000
  H   H354      1.0  0.34184  0.00990  0.05295  1.0000
  C   C227      1.0  0.40596  0.11128  0.56455  1.0000
  H   H355      1.0  0.55988  0.06072  0.56034  1.0000
  C   C228      1.0  0.12311  0.10916  0.02030  1.0000
  H   H356      1.0  0.33469  0.09433  0.83157  1.0000
  H   H357      1.0  0.31611  0.08250  0.78714  1.0000
  H   H358      1.0  0.41818  0.89261  0.58465  1.0000
  H   H359      1.0  0.41858  0.05693  0.58258  1.0000
  H   H360      1.0  0.38618  0.07262  0.76679  1.0000
  H   H361      1.0  0.41033  0.12310  0.59131  1.0000
  H   H362      1.0  0.48934  0.87723  0.59276  1.0000
  H   H363      1.0  0.48659  0.10244  0.58115  1.0000
  S   S85       1.0  0.44973  0.97988  0.96824  1.0000
  C   C229      1.0  0.39468  0.09642  0.78379  1.0000
  H   H364      1.0  0.40385  0.08623  0.81117  1.0000
  H   H365      1.0  0.13386  0.12056  0.69614  1.0000
  H   H366      1.0  0.14365  0.08788  0.02762  1.0000
  H   H367      1.0  0.27892  0.09919  0.89788  1.0000
  H   H368      1.0  0.31498  0.03228  0.01702  1.0000
  C   C230      1.0  0.31983  0.00579  0.03070  1.0000
  H   H369      1.0  0.22559  0.97478  0.02443  1.0000
  N   N24       1.0  0.28253  0.99074  0.04503  1.0000
  H   H370      1.0  0.26607  0.96592  0.99385  1.0000
  Fe  Fe43      1.0  0.16030  0.10007  0.82391  1.0000
  S   S86       1.0  0.22434  0.09576  0.83837  1.0000
  S   S87       1.0  0.23567  0.03795  0.92559  1.0000
  C   C231      1.0  0.29966  0.08001  0.90907  1.0000
  C   C232      1.0  0.28626  0.04741  0.92379  1.0000
  C   C233      1.0  0.31339  0.02275  0.93822  1.0000
  H   H371      1.0  0.30335  0.99696  0.94820  1.0000
  S   S88       1.0  0.13918  0.07898  0.87808  1.0000
  Fe  Fe44      1.0  0.20313  0.08055  0.89413  1.0000
  H   H372      1.0  0.30393  0.93586  0.04295  1.0000
  C   C234      1.0  0.25437  0.98544  0.01458  1.0000
  H   H373      1.0  0.33382  0.98716  0.01033  1.0000
  C   C235      1.0  0.34006  0.08811  0.90936  1.0000
  H   H374      1.0  0.24815  0.01129  0.00005  1.0000
  H   H375      1.0  0.13929  0.10816  0.96326  1.0000
  H   H376      1.0  0.32016  0.12126  0.97738  1.0000
  C   C236      1.0  0.32731  0.10533  0.80413  1.0000
  S   S89       1.0  0.39201  0.94114  0.04974  1.0000
  H   H377      1.0  0.46644  0.89186  0.99084  1.0000
  H   H378      1.0  0.52963  0.89970  0.04928  1.0000
  Fe  Fe45      1.0  0.44602  0.04044  0.97044  1.0000
  S   S90       1.0  0.55814  0.95053  0.96436  1.0000
  S   S91       1.0  0.50998  0.04806  0.98415  1.0000
  C   C237      1.0  0.35359  0.03135  0.93964  1.0000
  C   C238      1.0  0.36690  0.06408  0.92533  1.0000
  C   C239      1.0  0.12077  0.12075  0.98389  1.0000
  Fe  Fe46      1.0  0.48874  0.04543  0.04222  1.0000
  H   H379      1.0  0.58512  0.00898  0.01039  1.0000
  H   H380      1.0  0.53475  0.11176  0.59905  1.0000
  H   H381      1.0  0.51821  0.88387  0.98393  1.0000
  C   C240      1.0  0.41066  0.07385  0.55962  1.0000
  Fe  Fe47      1.0  0.51175  0.98745  0.98756  1.0000
  H   H382      1.0  0.37428  0.01245  0.95146  1.0000
  H   H383      1.0  0.46096  0.11509  0.02813  1.0000
  H   H384      1.0  0.58163  0.04365  0.89198  1.0000
  Fe  Fe48      1.0  0.43437  0.98229  0.02788  1.0000
  S   S92       1.0  0.49699  0.98542  0.04720  1.0000
  S   S93       1.0  0.41665  0.07588  0.92873  1.0000
  S   S94       1.0  0.42431  0.04218  0.02847  1.0000
  H   H385      1.0  0.42111  0.10882  0.77072  1.0000
  H   H386      1.0  0.34185  0.11309  0.73183  1.0000
  C   C241      1.0  0.51406  0.11804  0.57624  1.0000
  H   H387      1.0  0.59066  0.12197  0.55742  1.0000
  Fe  Fe49      1.0  0.68409  0.25118  0.18275  1.0000
  S   S95       1.0  0.70203  0.29898  0.14948  1.0000
  S   S96       1.0  0.63595  0.21548  0.16091  1.0000
  C   C242      1.0  0.72816  0.18267  0.26938  1.0000
  S   S97       1.0  0.68119  0.28209  0.23569  1.0000
  S   S98       1.0  0.74614  0.23141  0.18994  1.0000
  Fe  Fe50      1.0  0.70458  0.32862  0.20313  1.0000
  C   C243      1.0  0.75837  0.19607  0.29169  1.0000
  Fe  Fe51      1.0  0.74486  0.26591  0.24061  1.0000
  Fe  Fe52      1.0  0.76412  0.28235  0.16208  1.0000
  S   S99       1.0  0.76954  0.24226  0.29197  1.0000
  H   H388      1.0  0.71007  0.20105  0.25368  1.0000
  S   S100      1.0  0.76838  0.31566  0.21333  1.0000
  S   S101      1.0  0.81120  0.28138  0.11893  1.0000
  H   H389      1.0  0.62263  0.22654  0.23907  1.0000
  C   C244      1.0  0.72107  0.14538  0.26753  1.0000
  H   H390      1.0  0.75916  0.34314  0.10702  1.0000
  H   H391      1.0  0.84263  0.28299  0.19223  1.0000
  H   H392      1.0  0.01590  0.13969  0.48221  1.0000
  H   H393      1.0  0.66712  0.16475  0.11011  1.0000
  N   N25       1.0  0.62267  0.12824  0.09012  1.0000
  C   C245      1.0  0.66411  0.14062  0.09195  1.0000
  H   H394      1.0  0.61193  0.32846  0.21554  1.0000
  H   H395      1.0  0.69798  0.13521  0.24991  1.0000
  H   H396      1.0  0.62320  0.33008  0.16766  1.0000
  H   H397      1.0  0.61035  0.14228  0.14622  1.0000
  H   H398      1.0  0.64012  0.15532  0.29568  1.0000
  H   H399      1.0  0.85997  0.19023  0.26255  1.0000
  C   C246      1.0  0.07760  0.14078  0.43482  1.0000
  H   H400      1.0  0.82289  0.36104  0.08032  1.0000
  H   H401      1.0  0.81656  0.35489  0.14739  1.0000
  C   C247      1.0  0.61327  0.14595  0.31049  1.0000
  H   H402      1.0  0.96131  0.18784  0.30223  1.0000
  H   H403      1.0  0.85094  0.14286  0.26849  1.0000
  C   C248      1.0  0.85454  0.26295  0.13778  1.0000
  C   C249      1.0  0.86280  0.26790  0.17500  1.0000
  H   H404      1.0  0.01109  0.14130  0.25534  1.0000
  H   H405      1.0  0.87466  0.23931  0.08695  1.0000
  H   H406      1.0  0.88628  0.15783  0.23495  1.0000
  C   C250      1.0  0.87448  0.16306  0.26301  1.0000
  C   C251      1.0  0.88102  0.24333  0.11570  1.0000
  H   H407      1.0  0.67545  0.14834  0.06446  1.0000
  H   H408      1.0  0.04272  0.18779  0.29449  1.0000
  S   S102      1.0  0.04573  0.14103  0.17907  1.0000
  C   C252      1.0  0.92357  0.12464  0.29149  1.0000
  S   S103      1.0  0.96792  0.21743  0.18730  1.0000
  C   C253      1.0  0.91548  0.22836  0.13094  1.0000
  C   C254      1.0  0.92412  0.23414  0.16798  1.0000
  C   C255      1.0  0.89784  0.25407  0.18991  1.0000
  H   H409      1.0  0.93579  0.21313  0.11386  1.0000
  H   H410      1.0  0.90446  0.25867  0.21852  1.0000
  N   N26       1.0  0.90613  0.16141  0.29085  1.0000
  Fe  Fe53      1.0  0.98642  0.16374  0.16413  1.0000
  C   C256      1.0  0.04955  0.15944  0.29854  1.0000
  S   S104      1.0  0.98711  0.14252  0.10626  1.0000
  H   H411      1.0  0.95056  0.18197  0.25449  1.0000
  C   C257      1.0  0.93707  0.18795  0.28170  1.0000
  H   H412      1.0  0.92483  0.21594  0.28029  1.0000
  C   C258      1.0  0.03166  0.13316  0.27637  1.0000
  H   H413      1.0  0.87559  0.19740  0.32790  1.0000
  H   H414      1.0  0.06111  0.12837  0.50496  1.0000
  H   H415      1.0  0.80364  0.18267  0.33041  1.0000
  C   C259      1.0  0.77411  0.13489  0.31050  1.0000
  C   C260      1.0  0.78082  0.17221  0.31273  1.0000
  H   H416      1.0  0.91786  0.12919  0.43848  1.0000
  H   H417      1.0  0.64755  0.12795  0.37470  1.0000
  H   H418      1.0  0.09158  0.13468  0.40796  1.0000
  C   C261      1.0  0.07825  0.14932  0.32411  1.0000
  H   H419      1.0  0.91253  0.16911  0.34896  1.0000
  H   H420      1.0  0.05687  0.16386  0.43062  1.0000
  H   H421      1.0  0.86646  0.15000  0.33527  1.0000
  C   C262      1.0  0.88942  0.16999  0.32733  1.0000
  C   C263      1.0  0.75104  0.37226  0.10985  1.0000
  H   H422      1.0  0.05313  0.16425  0.05810  1.0000
  H   H423      1.0  0.10445  0.14793  0.24320  1.0000
  H   H424      1.0  0.10139  0.15014  0.45349  1.0000
  S   S105      1.0  0.10443  0.18309  0.34757  1.0000
  H   H425      1.0  0.60699  0.16606  0.33259  1.0000
  Fe  Fe54      1.0  0.66310  0.21055  0.72311  1.0000
  S   S106      1.0  0.62957  0.22199  0.77510  1.0000
  S   S107      1.0  0.63430  0.18503  0.67402  1.0000
  S   S108      1.0  0.71633  0.18701  0.75061  1.0000
  S   S109      1.0  0.68881  0.26617  0.71898  1.0000
  Fe  Fe55      1.0  0.65955  0.27565  0.77318  1.0000
  Fe  Fe56      1.0  0.73866  0.24382  0.75215  1.0000
  C   C264      1.0  0.79105  0.22162  0.67838  1.0000
  H   H426      1.0  0.78303  0.19204  0.62791  1.0000
  S   S110      1.0  0.80227  0.25755  0.74330  1.0000
  C   C265      1.0  0.80412  0.20483  0.64599  1.0000
  H   H427      1.0  0.75991  0.22188  0.68500  1.0000
  C   C266      1.0  0.81822  0.23808  0.70192  1.0000
  S   S111      1.0  0.62897  0.32907  0.78072  1.0000
  Fe  Fe57      1.0  0.68485  0.20241  0.80251  1.0000
  H   H428      1.0  0.80848  0.17217  0.74484  1.0000
  S   S112      1.0  0.71156  0.25764  0.80633  1.0000
  H   H429      1.0  0.85163  0.15168  0.69327  1.0000
  C   C267      1.0  0.85625  0.12570  0.70789  1.0000
  C   C268      1.0  0.06968  0.16372  0.00102  1.0000
  C   C269      1.0  0.09836  0.17094  0.56474  1.0000
  C   C270      1.0  0.74536  0.35075  0.77970  1.0000
  H   H430      1.0  0.80961  0.14824  0.78748  1.0000
  H   H431      1.0  0.71310  0.35125  0.78571  1.0000
  H   H432      1.0  0.75327  0.32261  0.77121  1.0000
  C   C271      1.0  0.63794  0.34539  0.82498  1.0000
  H   H433      1.0  0.75048  0.36846  0.75564  1.0000
  H   H434      1.0  0.06569  0.16612  0.66583  1.0000
  H   H435      1.0  0.91381  0.14639  0.75367  1.0000
  S   S113      1.0  0.96491  0.15096  0.56070  1.0000
  C   C272      1.0  0.07468  0.17009  0.69486  1.0000
  S   S114      1.0  0.09050  0.16216  0.92857  1.0000
  H   H436      1.0  0.87981  0.18324  0.74709  1.0000
  C   C273      1.0  0.84442  0.20391  0.63738  1.0000
  C   C274      1.0  0.85842  0.23783  0.69297  1.0000
  S   S115      1.0  0.86060  0.18023  0.59835  1.0000
  S   S116      1.0  0.96660  0.17033  0.64837  1.0000
  Fe  Fe58      1.0  0.92096  0.15635  0.60628  1.0000
  S   S117      1.0  0.06355  0.19324  0.59257  1.0000
  Fe  Fe59      1.0  0.01082  0.15838  0.60402  1.0000
  H   H437      1.0  0.90253  0.22075  0.65386  1.0000
  H   H438      1.0  0.87946  0.25077  0.71098  1.0000
  C   C275      1.0  0.87154  0.22058  0.66082  1.0000
  H   H439      1.0  0.04930  0.18513  0.99369  1.0000
  H   H440      1.0  0.06599  0.14538  0.70999  1.0000
  C   C276      1.0  0.88355  0.15642  0.76043  1.0000
  C   C277      1.0  0.81351  0.14511  0.75733  1.0000
  H   H441      1.0  0.05692  0.19301  0.70610  1.0000
  H   H442      1.0  0.88206  0.16079  0.79056  1.0000
  N   N27       1.0  0.85309  0.13064  0.74799  1.0000
  C   C278      1.0  0.81123  0.36053  0.80263  1.0000
  C   C279      1.0  0.09416  0.14812  0.97422  1.0000
  H   H443      1.0  0.82014  0.33244  0.79467  1.0000
  C   C280      1.0  0.72039  0.13072  0.84426  1.0000
  N   N28       1.0  0.76870  0.36259  0.81175  1.0000
  S   S118      1.0  0.68601  0.16569  0.85127  1.0000
  C   C281      1.0  0.65352  0.33449  0.88876  1.0000
  H   H444      1.0  0.65844  0.31576  0.91100  1.0000
  C   C282      1.0  0.64441  0.32129  0.85374  1.0000
  H   H445      1.0  0.64213  0.29243  0.84908  1.0000
  H   H446      1.0  0.74109  0.13168  0.89998  1.0000
  H   H447      1.0  0.76920  0.31024  0.83713  1.0000
  C   C283      1.0  0.76032  0.33872  0.84313  1.0000
  H   H448      1.0  0.72827  0.33872  0.84999  1.0000
  C   C284      1.0  0.65740  0.37172  0.89478  1.0000
  H   H449      1.0  0.77643  0.34753  0.86816  1.0000
  H   H450      1.0  0.78972  0.12695  0.74732  1.0000
  C   C285      1.0  0.07173  0.15184  0.03743  1.0000
  H   H451      1.0  0.99715  0.14251  0.95758  1.0000
  C   C286      1.0  0.09836  0.12444  0.04704  1.0000
  H   H452      1.0  0.82980  0.36895  0.82629  1.0000
  H   H453      1.0  0.60627  0.16486  0.04708  1.0000
  C   C287      1.0  0.70495  0.47539  0.26057  1.0000
  C   C288      1.0  0.72913  0.40281  0.25891  1.0000
  C   C289      1.0  0.69980  0.41466  0.23483  1.0000
  H   H454      1.0  0.66499  0.46030  0.21718  1.0000
  C   C290      1.0  0.68771  0.45099  0.23573  1.0000
  S   S119      1.0  0.68870  0.57620  0.28513  1.0000
  H   H455      1.0  0.69533  0.50323  0.26110  1.0000
  C   C291      1.0  0.74643  0.42722  0.28362  1.0000
  C   C292      1.0  0.73435  0.46354  0.28461  1.0000
  N   N29       1.0  0.78650  0.39481  0.11493  1.0000
  H   H456      1.0  0.75483  0.43789  0.14213  1.0000
  H   H457      1.0  0.80048  0.45123  0.12078  1.0000
  C   C293      1.0  0.77443  0.43321  0.11798  1.0000
  H   H458      1.0  0.75800  0.44212  0.09319  1.0000
  S   S120      1.0  0.67766  0.38448  0.20374  1.0000
  C   C294      1.0  0.81318  0.38983  0.08315  1.0000
  C   C295      1.0  0.80716  0.38382  0.14875  1.0000
  H   H459      1.0  0.79842  0.39766  0.05711  1.0000
  H   H460      1.0  0.78778  0.38710  0.17327  1.0000
  C   C296      1.0  0.87646  0.48222  0.06228  1.0000
  H   H461      1.0  0.73461  0.37994  0.08466  1.0000
  H   H462      1.0  0.86138  0.62007  0.05672  1.0000
  H   H463      1.0  0.61974  0.62312  0.48014  1.0000
  H   H464      1.0  0.76899  0.41780  0.30231  1.0000
  H   H465      1.0  0.83416  0.40022  0.15338  1.0000
  H   H466      1.0  0.66367  0.42775  0.32043  1.0000
  C   C297      1.0  0.86170  0.56943  0.42817  1.0000
  C   C298      1.0  0.91060  0.62189  0.33836  1.0000
  H   H467      1.0  0.09116  0.47862  0.06274  1.0000
  H   H468      1.0  0.84013  0.40675  0.08571  1.0000
  N   N30       1.0  0.07985  0.51776  0.10536  1.0000
  H   H469      1.0  0.93466  0.48851  0.08502  1.0000
  H   H470      1.0  0.86297  0.47640  0.08845  1.0000
  H   H471      1.0  0.05718  0.50057  0.15744  1.0000
  C   C299      1.0  0.05294  0.52247  0.13698  1.0000
  H   H472      1.0  0.02144  0.52197  0.12817  1.0000
  C   C300      1.0  0.07196  0.48266  0.08724  1.0000
  H   H473      1.0  0.04079  0.48096  0.07770  1.0000
  H   H474      1.0  0.07723  0.45960  0.10610  1.0000
  H   H475      1.0  0.05819  0.54872  0.15124  1.0000
  C   C301      1.0  0.07323  0.54739  0.07902  1.0000
  H   H476      1.0  0.07969  0.57428  0.09146  1.0000
  H   H477      1.0  0.04215  0.54800  0.06914  1.0000
  H   H478      1.0  0.89013  0.61862  0.36199  1.0000
  S   S121      1.0  0.78250  0.59479  0.30335  1.0000
  S   S122      1.0  0.61400  0.61728  0.35909  1.0000
  H   H479      1.0  0.65643  0.42253  0.42207  1.0000
  C   C302      1.0  0.66008  0.45025  0.41082  1.0000
  H   H480      1.0  0.66840  0.39823  0.35912  1.0000
  H   H481      1.0  0.68402  0.49805  0.36103  1.0000
  H   H482      1.0  0.64481  0.49127  0.32896  1.0000
  C   C303      1.0  0.67185  0.42670  0.34995  1.0000
  Fe  Fe60      1.0  0.73826  0.55170  0.31734  1.0000
  S   S123      1.0  0.75467  0.49254  0.31793  1.0000
  H   H483      1.0  0.63406  0.50892  0.37392  1.0000
  C   C304      1.0  0.65277  0.48920  0.35845  1.0000
  N   N31       1.0  0.64752  0.45196  0.37212  1.0000
  S   S124      1.0  0.71970  0.57759  0.37055  1.0000
  Fe  Fe61      1.0  0.67433  0.60618  0.33679  1.0000
  H   H484      1.0  0.81086  0.57707  0.39349  1.0000
  H   H485      1.0  0.70381  0.43346  0.35191  1.0000
  H   H486      1.0  0.64236  0.46912  0.42828  1.0000
  H   H487      1.0  0.69176  0.45774  0.41385  1.0000
  C   C305      1.0  0.83196  0.59007  0.41141  1.0000
  C   C306      1.0  0.91699  0.48921  0.06038  1.0000
  H   H488      1.0  0.63917  0.60747  0.43683  1.0000
  H   H489      1.0  0.70769  0.61749  0.45788  1.0000
  H   H490      1.0  0.97971  0.61075  0.30279  1.0000
  C   C307      1.0  0.09740  0.56344  0.33265  1.0000
  C   C308      1.0  0.96659  0.60352  0.37472  1.0000
  Fe  Fe62      1.0  0.06924  0.59036  0.50560  1.0000
  S   S125      1.0  0.01080  0.60015  0.53297  1.0000
  H   H491      1.0  0.99635  0.61080  0.38511  1.0000
  Fe  Fe63      1.0  0.73108  0.62158  0.27535  1.0000
  C   C309      1.0  0.07932  0.58839  0.35644  1.0000
  C   C310      1.0  0.88981  0.58617  0.45057  1.0000
  S   S126      1.0  0.04238  0.57548  0.45152  1.0000
  H   H492      1.0  0.91533  0.60456  0.54169  1.0000
  Fe  Fe64      1.0  0.98473  0.59171  0.47746  1.0000
  H   H493      1.0  0.08937  0.53516  0.33370  1.0000
  S   S127      1.0  0.92882  0.56047  0.46867  1.0000
  H   H494      1.0  0.96928  0.57712  0.36010  1.0000
  H   H495      1.0  0.86347  0.54057  0.42309  1.0000
  H   H496      1.0  0.94735  0.59920  0.39897  1.0000
  H   H497      1.0  0.05727  0.57921  0.37548  1.0000
  H   H498      1.0  0.91100  0.59575  0.32306  1.0000
  H   H499      1.0  0.63594  0.62186  0.23947  1.0000
  Fe  Fe65      1.0  0.75950  0.62272  0.35392  1.0000
  H   H500      1.0  0.73039  0.37508  0.13351  1.0000
  H   H501      1.0  0.60607  0.56308  0.30265  1.0000
  C   C311      1.0  0.88739  0.62343  0.45709  1.0000
  H   H502      1.0  0.84664  0.62383  0.52921  1.0000
  H   H503      1.0  0.73828  0.37477  0.25885  1.0000
  H   H504      1.0  0.79852  0.53788  0.78422  1.0000
  H   H505      1.0  0.80874  0.60408  0.77985  1.0000
  H   H506      1.0  0.63537  0.40136  0.80901  1.0000
  H   H507      1.0  0.68748  0.59697  0.80110  1.0000
  C   C312      1.0  0.81422  0.59049  0.80545  1.0000
  C   C313      1.0  0.86452  0.60734  0.59880  1.0000
  H   H508      1.0  0.86056  0.58286  0.58130  1.0000
  C   C314      1.0  0.80831  0.55303  0.80795  1.0000
  H   H509      1.0  0.83541  0.61396  0.61156  1.0000
  H   H510      1.0  0.88509  0.60002  0.62138  1.0000
  C   C315      1.0  0.98140  0.60573  0.84111  1.0000
  C   C316      1.0  0.93449  0.49798  0.02691  1.0000
  H   H511      1.0  0.94006  0.62056  0.58214  1.0000
  H   H512      1.0  0.77491  0.41004  0.84576  1.0000
  C   C317      1.0  0.75795  0.40027  0.82156  1.0000
  H   H513      1.0  0.76419  0.41927  0.79874  1.0000
  H   H514      1.0  0.81864  0.37845  0.77922  1.0000
  H   H515      1.0  0.77454  0.60330  0.04258  1.0000
  C   C318      1.0  0.79786  0.58505  0.03123  1.0000
  C   C319      1.0  0.85344  0.48290  0.03055  1.0000
  H   H516      1.0  0.61873  0.44743  0.95811  1.0000
  H   H517      1.0  0.72601  0.40276  0.82844  1.0000
  H   H518      1.0  0.84084  0.60781  0.89358  1.0000
  C   C320      1.0  0.67097  0.60997  0.82415  1.0000
  S   S128      1.0  0.67048  0.38752  0.93837  1.0000
  H   H519      1.0  0.64980  0.58967  0.83501  1.0000
  C   C321      1.0  0.82523  0.61034  0.83650  1.0000
  C   C322      1.0  0.83154  0.59260  0.86970  1.0000
  C   C323      1.0  0.72084  0.59173  0.86755  1.0000
  S   S129      1.0  0.80253  0.47561  0.03443  1.0000
  C   C324      1.0  0.64046  0.38270  0.83126  1.0000
  Fe  Fe66      1.0  0.70355  0.51987  0.94511  1.0000
  S   S130      1.0  0.70072  0.48283  0.89656  1.0000
  S   S131      1.0  0.66697  0.56973  0.95351  1.0000
  S   S132      1.0  0.70295  0.47547  0.98633  1.0000
  Fe  Fe67      1.0  0.76882  0.47714  0.98165  1.0000
  H   H520      1.0  0.63753  0.53746  0.88672  1.0000
  Fe  Fe68      1.0  0.76685  0.48385  0.89927  1.0000
  Fe  Fe69      1.0  0.70618  0.43840  0.93776  1.0000
  H   H521      1.0  0.65277  0.42461  0.87069  1.0000
  S   S133      1.0  0.76915  0.52505  0.94453  1.0000
  C   C325      1.0  0.65063  0.39585  0.86607  1.0000
  S   S134      1.0  0.77240  0.43593  0.93638  1.0000
  C   C326      1.0  0.82579  0.55520  0.87213  1.0000
  H   H522      1.0  0.83154  0.54149  0.89760  1.0000
  S   S135      1.0  0.79946  0.49008  0.84617  1.0000
  C   C327      1.0  0.81311  0.53552  0.84156  1.0000
  C   C328      1.0  0.61902  0.56424  0.93653  1.0000
  H   H523      1.0  0.73807  0.57784  0.84558  1.0000
  H   H524      1.0  0.70110  0.57126  0.88006  1.0000
  H   H525      1.0  0.78286  0.56401  0.01443  1.0000
  N   N32       1.0  0.82721  0.60526  0.00945  1.0000
  H   H526      1.0  0.79265  0.60337  0.96012  1.0000
  H   H527      1.0  0.84414  0.55903  0.97706  1.0000
  H   H528      1.0  0.74213  0.60040  0.88902  1.0000
  H   H529      1.0  0.09252  0.54427  0.05448  1.0000
  Fe  Fe70      1.0  0.96802  0.62389  0.95432  1.0000
  H   H530      1.0  0.65278  0.62084  0.89437  1.0000
  H   H531      1.0  0.00049  0.59168  0.82054  1.0000
  C   C329      1.0  0.61280  0.54754  0.90254  1.0000
  Fe  Fe71      1.0  0.99844  0.55520  0.98958  1.0000
  C   C330      1.0  0.87106  0.49042  0.99673  1.0000
  H   H532      1.0  0.96071  0.58538  0.85252  1.0000
  H   H533      1.0  0.85346  0.49036  0.97203  1.0000
  H   H534      1.0  0.91125  0.60395  0.80657  1.0000
  C   C331      1.0  0.91155  0.49866  0.99501  1.0000
  C   C332      1.0  0.85747  0.57986  0.99523  1.0000
  S   S136      1.0  0.06146  0.56805  0.97712  1.0000
  C   C333      1.0  0.09469  0.59806  0.84399  1.0000
  S   S137      1.0  0.98423  0.61012  0.01175  1.0000
  H   H535      1.0  0.92515  0.50487  0.96897  1.0000
  Fe  Fe72      1.0  0.03860  0.58518  0.92214  1.0000
  S   S138      1.0  0.97626  0.56725  0.93322  1.0000
  H   H536      1.0  0.87294  0.56559  0.01787  1.0000
  S   S139      1.0  0.06891  0.56615  0.87042  1.0000
  H   H537      1.0  0.88035  0.59397  0.97886  1.0000
  S   S140      1.0  0.98494  0.50829  0.02589  1.0000
  H   H538      1.0  0.95052  0.60919  0.77348  1.0000
  H   H539      1.0  0.00098  0.61483  0.86369  1.0000
  C   C334      1.0  0.80733  0.62332  0.97845  1.0000
  H   H540      1.0  0.81200  0.57067  0.05457  1.0000
  N   N33       1.0  0.69811  0.62277  0.85307  1.0000
  C   C335      1.0  0.93360  0.62313  0.79568  1.0000
  H   H541      1.0  0.74810  0.69444  0.16036  1.0000
  C   C336      1.0  0.70464  0.78901  0.09912  1.0000
  C   C337      1.0  0.71789  0.77417  0.13202  1.0000
  C   C338      1.0  0.69146  0.76886  0.16102  1.0000
  C   C339      1.0  0.65167  0.77841  0.15729  1.0000
  C   C340      1.0  0.63804  0.79215  0.12396  1.0000
  C   C341      1.0  0.66455  0.79746  0.09486  1.0000
  H   H542      1.0  0.74837  0.76618  0.13488  1.0000
  H   H543      1.0  0.70174  0.75701  0.18623  1.0000
  C   C342      1.0  0.77269  0.69502  0.17927  1.0000
  C   C343      1.0  0.77096  0.67522  0.21175  1.0000
  H   H544      1.0  0.80711  0.73096  0.14607  1.0000
  Fe  Fe73      1.0  0.79966  0.80399  0.08604  1.0000
  C   C344      1.0  0.80610  0.71570  0.17115  1.0000
  C   C345      1.0  0.80272  0.67626  0.23623  1.0000
  S   S141      1.0  0.80823  0.81891  0.14490  1.0000
  N   N34       1.0  0.76747  0.80308  0.25853  1.0000
  Fe  Fe74      1.0  0.84713  0.86224  0.12301  1.0000
  C   C346      1.0  0.83635  0.69676  0.22794  1.0000
  H   H545      1.0  0.74312  0.81329  0.20518  1.0000
  H   H546      1.0  0.80136  0.66130  0.26153  1.0000
  C   C347      1.0  0.74673  0.82682  0.23227  1.0000
  C   C348      1.0  0.80695  0.79370  0.24390  1.0000
  H   H547      1.0  0.82549  0.81805  0.24009  1.0000
  H   H548      1.0  0.76334  0.85237  0.22764  1.0000
  S   S142      1.0  0.72861  0.64987  0.22133  1.0000
  C   C349      1.0  0.83799  0.71654  0.19538  1.0000
  H   H549      1.0  0.71665  0.83431  0.24224  1.0000
  H   H550      1.0  0.80464  0.78028  0.21673  1.0000
  S   S143      1.0  0.84985  0.76405  0.08474  1.0000
  C   C350      1.0  0.74462  0.76948  0.26377  1.0000
  H   H551      1.0  0.74273  0.75349  0.23789  1.0000
  H   H552      1.0  0.64876  0.69526  0.20402  1.0000
  H   H553      1.0  0.65102  0.66227  0.26256  1.0000
  S   S144      1.0  0.83532  0.84981  0.06402  1.0000
  H   H554      1.0  0.82322  0.77493  0.26230  1.0000
  S   S145      1.0  0.73830  0.79834  0.06388  1.0000
  H   H555      1.0  0.65410  0.80854  0.06927  1.0000
  H   H556      1.0  0.93095  0.65093  0.54498  1.0000
  H   H557      1.0  0.71389  0.77540  0.27302  1.0000
  C   C351      1.0  0.62472  0.64663  0.25359  1.0000
  C   C352      1.0  0.62258  0.67871  0.19637  1.0000
  H   H558      1.0  0.75872  0.75154  0.28443  1.0000
  H   H559      1.0  0.78848  0.84792  0.29091  1.0000
  C   C353      1.0  0.77171  0.82223  0.29397  1.0000
  H   H560      1.0  0.74242  0.82943  0.30597  1.0000
  C   C354      1.0  0.85130  0.64721  0.54808  1.0000
  H   H561      1.0  0.63387  0.65460  0.18116  1.0000
  H   H562      1.0  0.93619  0.68882  0.35420  1.0000
  S   S146      1.0  0.62001  0.77378  0.19503  1.0000
  C   C355      1.0  0.97692  0.63641  0.31871  1.0000
  Fe  Fe75      1.0  0.86199  0.78347  0.14180  1.0000
  H   H563      1.0  0.86078  0.69772  0.24695  1.0000
  H   H564      1.0  0.96581  0.65775  0.29993  1.0000
  C   C356      1.0  0.98313  0.75872  0.09199  1.0000
  H   H565      1.0  0.03956  0.68500  0.11167  1.0000
  H   H566      1.0  0.97069  0.67868  0.13563  1.0000
  H   H567      1.0  0.99163  0.77563  0.11598  1.0000
  C   C357      1.0  0.96566  0.70778  0.12948  1.0000
  S   S147      1.0  0.90240  0.82854  0.12570  1.0000
  C   C358      1.0  0.03272  0.71418  0.10741  1.0000
  N   N35       1.0  0.99054  0.71988  0.09857  1.0000
  S   S148      1.0  0.87842  0.74460  0.18630  1.0000
  H   H568      1.0  0.97183  0.72357  0.15489  1.0000
  H   H569      1.0  0.93361  0.71149  0.12349  1.0000
  H   H570      1.0  0.04141  0.72922  0.13259  1.0000
  Fe  Fe76      1.0  0.88641  0.81176  0.06844  1.0000
  H   H571      1.0  0.05218  0.72337  0.08463  1.0000
  C   C359      1.0  0.98057  0.69891  0.06528  1.0000
  H   H572      1.0  0.95128  0.76400  0.08667  1.0000
  H   H573      1.0  0.99987  0.76859  0.06774  1.0000
  H   H574      1.0  0.94938  0.70355  0.05680  1.0000
  H   H575      1.0  0.98498  0.66940  0.06957  1.0000
  H   H576      1.0  0.68915  0.63241  0.50173  1.0000
  C   C360      1.0  0.63006  0.63195  0.45264  1.0000
  H   H577      1.0  0.62322  0.70368  0.46380  1.0000
  C   C361      1.0  0.64903  0.69020  0.47698  1.0000
  H   H578      1.0  0.67273  0.71073  0.47994  1.0000
  H   H579      1.0  0.63929  0.68223  0.50495  1.0000
  H   H580      1.0  0.78786  0.80542  0.31430  1.0000
  H   H581      1.0  0.72200  0.66069  0.47576  1.0000
  N   N36       1.0  0.66250  0.65847  0.45542  1.0000
  S   S149      1.0  0.71242  0.65357  0.32448  1.0000
  S   S150      1.0  0.79448  0.65400  0.39533  1.0000
  C   C362      1.0  0.69684  0.64151  0.47359  1.0000
  H   H582      1.0  0.69859  0.69014  0.41919  1.0000
  C   C363      1.0  0.67407  0.67020  0.41833  1.0000
  H   H583      1.0  0.64869  0.68273  0.40360  1.0000
  C   C364      1.0  0.08962  0.62495  0.35510  1.0000
  H   H584      1.0  0.68430  0.64685  0.40147  1.0000
  C   C365      1.0  0.83000  0.62742  0.41750  1.0000
  H   H585      1.0  0.60845  0.63812  0.27863  1.0000
  H   H586      1.0  0.61092  0.71852  0.25693  1.0000
  H   H587      1.0  0.90834  0.63641  0.47500  1.0000
  S   S151      1.0  0.07977  0.64845  0.49146  1.0000
  S   S152      1.0  0.00139  0.70551  0.54845  1.0000
  H   H588      1.0  0.89749  0.64282  0.32019  1.0000
  S   S153      1.0  0.06775  0.65653  0.38503  1.0000
  H   H589      1.0  0.00729  0.64431  0.32732  1.0000
  S   S154      1.0  0.98873  0.64968  0.46100  1.0000
  H   H590      1.0  0.92922  0.66425  0.39597  1.0000
  H   H591      1.0  0.85587  0.67291  0.44551  1.0000
  C   C366      1.0  0.94844  0.66664  0.37132  1.0000
  C   C367      1.0  0.85743  0.64402  0.44069  1.0000
  Fe  Fe77      1.0  0.01922  0.65735  0.51469  1.0000
  Fe  Fe78      1.0  0.04832  0.63452  0.43928  1.0000
  H   H592      1.0  0.97826  0.67529  0.38081  1.0000
  H   H593      1.0  0.86200  0.67023  0.53127  1.0000
  H   H594      1.0  0.60727  0.79913  0.12072  1.0000
  H   H595      1.0  0.86337  0.86923  0.26559  1.0000
  H   H596      1.0  0.86346  0.86738  0.19764  1.0000
  N   N37       1.0  0.95060  0.63211  0.35074  1.0000
  H   H597      1.0  0.76493  0.87417  0.09894  1.0000
  H   H598      1.0  0.73324  0.67033  0.71600  1.0000
  H   H599      1.0  0.69300  0.79514  0.62950  1.0000
  C   C368      1.0  0.73580  0.83169  0.67936  1.0000
  H   H600      1.0  0.66385  0.80142  0.67023  1.0000
  H   H601      1.0  0.71160  0.84843  0.69146  1.0000
  H   H602      1.0  0.71255  0.75192  0.71959  1.0000
  H   H603      1.0  0.69490  0.79641  0.73123  1.0000
  C   C369      1.0  0.72988  0.66926  0.65719  1.0000
  C   C370      1.0  0.70486  0.67205  0.62689  1.0000
  C   C371      1.0  0.66499  0.68140  0.63181  1.0000
  C   C372      1.0  0.65016  0.68826  0.66697  1.0000
  C   C373      1.0  0.67476  0.68373  0.69736  1.0000
  C   C374      1.0  0.71454  0.67412  0.69248  1.0000
  H   H604      1.0  0.71646  0.66775  0.59958  1.0000
  H   H605      1.0  0.66318  0.68836  0.72464  1.0000
  H   H606      1.0  0.68160  0.75727  0.65804  1.0000
  N   N38       1.0  0.72597  0.79277  0.67988  1.0000
  C   C375      1.0  0.68957  0.78643  0.65848  1.0000
  C   C376      1.0  0.75895  0.77171  0.66364  1.0000
  H   H607      1.0  0.76312  0.83731  0.69541  1.0000
  C   C377      1.0  0.71971  0.78123  0.71815  1.0000
  H   H608      1.0  0.75286  0.74218  0.66404  1.0000
  Fe  Fe79      1.0  0.83693  0.68013  0.77883  1.0000
  Fe  Fe80      1.0  0.81596  0.68264  0.69834  1.0000
  H   H609      1.0  0.76433  0.77942  0.63466  1.0000
  S   S155      1.0  0.79218  0.71244  0.74754  1.0000
  S   S156      1.0  0.83138  0.81023  0.73817  1.0000
  Fe  Fe81      1.0  0.84224  0.75038  0.73746  1.0000
  C   C378      1.0  0.81809  0.82590  0.78196  1.0000
  S   S157      1.0  0.78068  0.66244  0.65048  1.0000
  H   H610      1.0  0.74658  0.78592  0.73510  1.0000
  H   H611      1.0  0.78695  0.77616  0.67894  1.0000
  H   H612      1.0  0.64580  0.68329  0.60842  1.0000
  S   S158      1.0  0.85582  0.64657  0.73060  1.0000
  H   H613      1.0  0.74098  0.84134  0.65094  1.0000
  S   S159      1.0  0.86303  0.72304  0.68589  1.0000
  H   H614      1.0  0.96241  0.87088  0.93337  1.0000
  C   C379      1.0  0.81561  0.86315  0.78893  1.0000
  C   C380      1.0  0.90187  0.87235  0.88566  1.0000
  H   H615      1.0  0.85635  0.67856  0.61405  1.0000
  S   S160      1.0  0.88505  0.72109  0.77353  1.0000
  S   S161      1.0  0.96256  0.66952  0.71271  1.0000
  Fe  Fe82      1.0  0.90106  0.68975  0.72305  1.0000
  C   C381      1.0  0.99291  0.69608  0.59465  1.0000
  C   C382      1.0  0.96416  0.71363  0.65304  1.0000
  H   H616      1.0  0.94852  0.73330  0.66975  1.0000
  H   H617      1.0  0.96366  0.74707  0.60486  1.0000
  C   C383      1.0  0.99703  0.65561  0.64658  1.0000
  C   C384      1.0  0.97595  0.68058  0.66799  1.0000
  C   C385      1.0  0.97290  0.72148  0.61643  1.0000
  C   C386      1.0  0.00535  0.66332  0.60983  1.0000
  H   H618      1.0  0.02185  0.64416  0.59348  1.0000
  H   H619      1.0  0.91732  0.64585  0.78289  1.0000
  N   N39       1.0  0.87972  0.63808  0.57733  1.0000
  C   C387      1.0  0.88494  0.66973  0.60172  1.0000
  H   H620      1.0  0.00684  0.64928  0.78725  1.0000
  H   H621      1.0  0.06637  0.70296  0.64015  1.0000
  H   H622      1.0  0.89747  0.69320  0.58670  1.0000
  H   H623      1.0  0.00616  0.63002  0.65817  1.0000
  H   H624      1.0  0.90541  0.66345  0.62467  1.0000
  H   H625      1.0  0.08049  0.63558  0.63365  1.0000
  H   H626      1.0  0.07718  0.66529  0.69438  1.0000
  H   H627      1.0  0.82200  0.65500  0.55977  1.0000
  H   H628      1.0  0.97334  0.68585  0.79647  1.0000
  H   H629      1.0  0.99986  0.70651  0.04180  1.0000
  C   C388      1.0  0.09058  0.63531  0.85006  1.0000
  S   S162      1.0  0.78461  0.86660  0.89614  1.0000
  H   H630      1.0  0.98843  0.75983  0.98918  1.0000
  H   H631      1.0  0.81159  0.77261  0.80477  1.0000
  H   H632      1.0  0.65331  0.63268  0.81258  1.0000
  H   H633      1.0  0.74378  0.63763  0.81502  1.0000
  H   H634      1.0  0.82447  0.65276  0.04375  1.0000
  C   C389      1.0  0.80966  0.80140  0.80992  1.0000
  H   H635      1.0  0.70965  0.67337  0.82619  1.0000
  H   H636      1.0  0.82880  0.63864  0.96140  1.0000
  H   H637      1.0  0.65870  0.66420  0.87347  1.0000
  C   C390      1.0  0.72563  0.64958  0.83755  1.0000
  H   H638      1.0  0.79192  0.79513  0.86626  1.0000
  C   C391      1.0  0.79854  0.81416  0.84471  1.0000
  S   S163      1.0  0.82907  0.65751  0.83509  1.0000
  C   C392      1.0  0.79646  0.85141  0.85182  1.0000
  H   H639      1.0  0.74653  0.65983  0.85869  1.0000
  H   H640      1.0  0.69435  0.64816  0.90618  1.0000
  C   C393      1.0  0.67501  0.63981  0.88302  1.0000
  H   H641      1.0  0.85510  0.70647  0.97530  1.0000
  H   H642      1.0  0.78434  0.64279  0.98816  1.0000
  C   C394      1.0  0.84635  0.63276  0.03291  1.0000
  C   C395      1.0  0.95494  0.71440  0.96933  1.0000
  H   H643      1.0  0.10534  0.71022  0.60771  1.0000
  H   H644      1.0  0.00918  0.67277  0.83038  1.0000
  C   C396      1.0  0.88877  0.75117  0.99669  1.0000
  H   H645      1.0  0.91422  0.63628  0.86595  1.0000
  C   C397      1.0  0.88425  0.71786  0.97864  1.0000
  C   C398      1.0  0.88552  0.86829  0.94990  1.0000
  N   N40       1.0  0.90545  0.84990  0.91884  1.0000
  C   C399      1.0  0.91815  0.62806  0.56077  1.0000
  H   H646      1.0  0.91631  0.85925  0.86156  1.0000
  H   H647      1.0  0.85455  0.81767  0.90629  1.0000
  H   H648      1.0  0.86907  0.64807  0.01736  1.0000
  H   H649      1.0  0.86302  0.76564  0.00665  1.0000
  H   H650      1.0  0.98062  0.70048  0.95891  1.0000
  C   C400      1.0  0.93609  0.65497  0.85341  1.0000
  C   C401      1.0  0.94769  0.84458  0.92756  1.0000
  C   C402      1.0  0.98859  0.66228  0.80915  1.0000
  H   H651      1.0  0.95491  0.66568  0.87591  1.0000
  H   H652      1.0  0.95152  0.82746  0.95225  1.0000
  H   H653      1.0  0.96376  0.83111  0.90459  1.0000
  H   H654      1.0  0.07145  0.64529  0.87151  1.0000
  H   H655      1.0  0.91892  0.67808  0.84204  1.0000
  S   S164      1.0  0.93288  0.80653  0.02507  1.0000
  C   C403      1.0  0.88665  0.81447  0.91220  1.0000
  N   N41       1.0  0.95994  0.63655  0.82485  1.0000
  S   S165      1.0  0.91224  0.65580  0.94651  1.0000
  C   C404      1.0  0.91748  0.69905  0.96569  1.0000
  C   C405      1.0  0.95933  0.74815  0.98636  1.0000
  S   S166      1.0  0.07751  0.65796  0.03691  1.0000
  C   C406      1.0  0.92640  0.76606  0.00091  1.0000
  H   H656      1.0  0.90030  0.80003  0.88849  1.0000
  H   H657      1.0  0.88922  0.79669  0.93650  1.0000
  H   H658      1.0  0.88798  0.85225  0.97551  1.0000
  S   S167      1.0  0.02846  0.64304  0.93878  1.0000
  H   H659      1.0  0.85350  0.87231  0.94438  1.0000
  C   C407      1.0  0.09878  0.70676  0.63739  1.0000
  Fe  Fe83      1.0  0.04564  0.62446  0.99495  1.0000
  C   C408      1.0  0.81006  0.94463  0.21095  1.0000
  C   C409      1.0  0.82965  0.91661  0.19230  1.0000
  H   H660      1.0  0.79574  0.96603  0.19574  1.0000
  H   H661      1.0  0.79488  0.96735  0.26376  1.0000
  C   C410      1.0  0.80972  0.94548  0.24937  1.0000
  S   S168      1.0  0.83394  0.91781  0.14461  1.0000
  C   C411      1.0  0.82906  0.91831  0.26903  1.0000
  C   C412      1.0  0.84785  0.88882  0.21197  1.0000
  C   C413      1.0  0.84778  0.88984  0.25033  1.0000
  H   H662      1.0  0.70261  0.95659  0.10246  1.0000
  S   S169      1.0  0.73292  0.07510  0.28773  1.0000
  C   C414      1.0  0.62698  0.08343  0.29531  1.0000
  H   H663      1.0  0.74294  0.90715  0.12862  1.0000
  C   C415      1.0  0.70115  0.94129  0.07616  1.0000
  H   H664      1.0  0.67347  0.92518  0.07613  1.0000
  N   N42       1.0  0.73630  0.91794  0.07107  1.0000
  C   C416      1.0  0.73917  0.89255  0.10210  1.0000
  H   H665      1.0  0.77598  0.95660  0.09535  1.0000
  C   C417      1.0  0.62028  0.09615  0.06589  1.0000
  C   C418      1.0  0.77208  0.94071  0.06962  1.0000
  H   H666      1.0  0.65280  0.09196  0.27868  1.0000
  H   H667      1.0  0.79931  0.92409  0.06590  1.0000
  H   H668      1.0  0.63388  0.05588  0.30583  1.0000
  H   H669      1.0  0.84540  0.03838  0.06276  1.0000
  Fe  Fe84      1.0  0.04406  0.11554  0.12332  1.0000
  H   H670      1.0  0.85439  0.00979  0.22049  1.0000
  C   C419      1.0  0.60882  0.11866  0.12724  1.0000
  H   H671      1.0  0.62699  0.09658  0.13923  1.0000
  H   H672      1.0  0.63851  0.07338  0.07650  1.0000
  H   H673      1.0  0.94942  0.00262  0.47274  1.0000
  H   H674      1.0  0.86621  0.99620  0.17426  1.0000
  H   H675      1.0  0.97111  0.03152  0.07721  1.0000
  H   H676      1.0  0.93619  0.99031  0.15508  1.0000
  H   H677      1.0  0.94515  0.03504  0.17153  1.0000
  H   H678      1.0  0.90654  0.94513  0.19649  1.0000
  H   H679      1.0  0.97516  0.99842  0.18786  1.0000
  C   C420      1.0  0.94459  0.00625  0.17985  1.0000
  H   H680      1.0  0.94534  0.95272  0.22906  1.0000
  C   C421      1.0  0.90796  0.03784  0.07333  1.0000
  H   H681      1.0  0.89480  0.95736  0.24306  1.0000
  C   C422      1.0  0.91570  0.96230  0.22011  1.0000
  Fe  Fe85      1.0  0.95875  0.09328  0.13049  1.0000
  C   C423      1.0  0.06808  0.08626  0.30786  1.0000
  C   C424      1.0  0.87652  0.01256  0.19813  1.0000
  H   H682      1.0  0.87636  0.04137  0.18928  1.0000
  H   H683      1.0  0.90755  0.01950  0.26551  1.0000
  H   H684      1.0  0.95827  0.01437  0.25211  1.0000
  S   S170      1.0  0.90323  0.06644  0.11146  1.0000
  C   C425      1.0  0.92848  0.02268  0.24222  1.0000
  N   N43       1.0  0.91629  0.00094  0.21012  1.0000
  S   S171      1.0  0.01555  0.06438  0.14244  1.0000
  H   H685      1.0  0.93002  0.05193  0.23549  1.0000
  S   S172      1.0  0.02380  0.06439  0.24958  1.0000
  Fe  Fe86      1.0  0.01196  0.09241  0.19671  1.0000
  C   C426      1.0  0.04152  0.09662  0.28059  1.0000
  H   H686      1.0  0.07563  0.05798  0.31122  1.0000
  S   S173      1.0  0.95297  0.11701  0.18663  1.0000
  H   H687      1.0  0.84362  0.01982  0.54835  1.0000
  H   H688      1.0  0.90087  0.10388  0.29783  1.0000
  H   H689      1.0  0.68399  0.11923  0.10297  1.0000
  S   S174      1.0  0.10081  0.10850  0.09210  1.0000
  H   H690      1.0  0.88073  0.05355  0.54181  1.0000
  H   H691      1.0  0.68050  0.11827  0.33731  1.0000
  C   C427      1.0  0.65291  0.10939  0.35109  1.0000
  C   C428      1.0  0.78128  0.06229  0.53193  1.0000
  C   C429      1.0  0.62479  0.06074  0.44482  1.0000
  N   N44       1.0  0.82310  0.06837  0.52212  1.0000
  S   S175      1.0  0.75318  0.99099  0.35038  1.0000
  C   C430      1.0  0.69885  0.02744  0.45276  1.0000
  C   C431      1.0  0.69626  0.06485  0.44758  1.0000
  C   C432      1.0  0.65917  0.08158  0.44429  1.0000
  C   C433      1.0  0.66443  0.00671  0.45410  1.0000
  H   H692      1.0  0.72285  0.08090  0.44642  1.0000
  H   H693      1.0  0.65722  0.11058  0.44091  1.0000
  H   H694      1.0  0.66644  0.97772  0.45781  1.0000
  S   S176      1.0  0.74510  0.00649  0.45680  1.0000
  Fe  Fe87      1.0  0.77679  0.01277  0.40338  1.0000
  Fe  Fe88      1.0  0.81611  0.97519  0.33937  1.0000
  Fe  Fe89      1.0  0.77086  0.04464  0.32739  1.0000
  S   S177      1.0  0.78827  0.06798  0.38168  1.0000
  C   C434      1.0  0.62742  0.02329  0.44957  1.0000
  S   S178      1.0  0.83862  0.99275  0.39451  1.0000
  S   S179      1.0  0.83195  0.02711  0.31137  1.0000
  S   S180      1.0  0.83186  0.92024  0.31678  1.0000
  H   H695      1.0  0.76099  0.07573  0.51219  1.0000
  C   C435      1.0  0.83056  0.05398  0.48487  1.0000
  H   H696      1.0  0.81114  0.06713  0.46426  1.0000
  H   H697      1.0  0.65879  0.08192  0.36236  1.0000
  H   H698      1.0  0.82497  0.02434  0.48328  1.0000
  H   H699      1.0  0.77394  0.03292  0.53130  1.0000
  C   C436      1.0  0.94487  0.02475  0.06188  1.0000
  C   C437      1.0  0.83162  0.10757  0.52309  1.0000
  Fe  Fe90      1.0  0.84831  0.04632  0.36756  1.0000
  C   C438      1.0  0.84896  0.04951  0.54851  1.0000
  N   N45       1.0  0.61906  0.10923  0.32555  1.0000
  N   N46       1.0  0.05714  0.10877  0.44956  1.0000
  H   H700      1.0  0.92337  0.01617  0.41082  1.0000
  C   C439      1.0  0.08591  0.07900  0.45472  1.0000
  C   C440      1.0  0.94252  0.03027  0.46535  1.0000
  C   C441      1.0  0.92773  0.03791  0.43034  1.0000
  C   C442      1.0  0.02630  0.09706  0.42351  1.0000
  H   H701      1.0  0.86160  0.05835  0.47632  1.0000
  H   H702      1.0  0.10052  0.07128  0.42846  1.0000
  C   C443      1.0  0.92495  0.10159  0.44583  1.0000
  H   H703      1.0  0.94239  0.11545  0.50037  1.0000
  H   H704      1.0  0.03911  0.08995  0.39628  1.0000
  S   S181      1.0  0.96628  0.04781  0.53463  1.0000
  H   H705      1.0  0.86304  0.11305  0.51608  1.0000
  C   C444      1.0  0.03882  0.11821  0.48516  1.0000
  H   H706      1.0  0.01040  0.07282  0.43371  1.0000
  H   H707      1.0  0.07138  0.05444  0.46591  1.0000
  C   C445      1.0  0.93886  0.09380  0.48105  1.0000
  C   C446      1.0  0.91911  0.07361  0.42055  1.0000
  C   C447      1.0  0.08691  0.11264  0.32918  1.0000
  C   C448      1.0  0.94797  0.05819  0.49089  1.0000
  S   S182      1.0  0.89946  0.08335  0.37745  1.0000
  H   H708      1.0  0.02452  0.09432  0.49789  1.0000
  H   H709      1.0  0.93742  0.11741  0.26484  1.0000
  H   H710      1.0  0.82624  0.11940  0.55083  1.0000
  H   H711      1.0  0.79258  0.11666  0.32577  1.0000
  H   H712      1.0  0.81290  0.12271  0.50332  1.0000
  C   C449      1.0  0.74394  0.12143  0.28823  1.0000
  H   H713      1.0  0.94692  0.12231  0.31283  1.0000
  H   H714      1.0  0.00391  0.11874  0.41905  1.0000
  H   H715      1.0  0.71255  0.87508  0.10407  1.0000
  H   H716      1.0  0.75226  0.07154  0.77856  1.0000
  C   C450      1.0  0.75030  0.08501  0.80490  1.0000
  H   H717      1.0  0.82218  0.88217  0.76736  1.0000
  H   H718      1.0  0.83655  0.07531  0.75771  1.0000
  C   C451      1.0  0.72372  0.11381  0.81001  1.0000
  H   H719      1.0  0.84423  0.05971  0.57692  1.0000
  C   C452      1.0  0.74356  0.11864  0.87345  1.0000
  H   H720      1.0  0.83393  0.10624  0.69748  1.0000
  H   H721      1.0  0.64172  0.09536  0.85673  1.0000
  H   H722      1.0  0.00844  0.10845  0.01520  1.0000
  C   C453      1.0  0.60987  0.04996  0.90616  1.0000
  H   H723      1.0  0.61423  0.06069  0.83354  1.0000
  C   C454      1.0  0.64168  0.06605  0.84931  1.0000
  H   H724      1.0  0.61105  0.03299  0.93120  1.0000
  H   H725      1.0  0.88877  0.08371  0.75962  1.0000
  C   C455      1.0  0.85915  0.09542  0.76624  1.0000
  C   C456      1.0  0.04375  0.07124  0.71063  1.0000
  H   H726      1.0  0.03503  0.06117  0.68403  1.0000
  Fe  Fe91      1.0  0.96724  0.09267  0.57667  1.0000
  C   C457      1.0  0.08302  0.06756  0.72204  1.0000
  S   S183      1.0  0.01672  0.09950  0.61705  1.0000
  C   C458      1.0  0.01583  0.08754  0.73372  1.0000
  C   C459      1.0  0.06663  0.09619  0.77997  1.0000
  S   S184      1.0  0.91992  0.09737  0.61948  1.0000
  C   C460      1.0  0.02708  0.09941  0.76870  1.0000
  H   H727      1.0  0.60855  0.07880  0.91512  1.0000
  S   S185      1.0  0.96769  0.09545  0.71791  1.0000
  Fe  Fe92      1.0  0.96888  0.11064  0.65836  1.0000
  H   H728      1.0  0.85701  0.09801  0.79658  1.0000
  H   H729      1.0  0.88596  0.11521  0.69988  1.0000
  C   C461      1.0  0.09466  0.08057  0.75641  1.0000
  H   H730      1.0  0.00551  0.11201  0.78664  1.0000
  H   H731      1.0  0.07552  0.10624  0.80658  1.0000
  H   H732      1.0  0.09286  0.11959  0.59178  1.0000
  C   C462      1.0  0.87401  0.02850  0.05379  1.0000
  C   C463      1.0  0.61052  0.99558  0.99831  1.0000
  H   H733      1.0  0.63080  0.10232  0.03772  1.0000
  H   H734      1.0  0.77434  0.07292  0.55980  1.0000
  C   C464      1.0  0.80507  0.87593  0.82392  1.0000
  H   H735      1.0  0.73015  0.91563  0.01248  1.0000
  H   H736      1.0  0.63450  0.92418  0.94318  1.0000
  H   H737      1.0  0.68206  0.08059  0.91044  1.0000
  H   H738      1.0  0.68384  0.03525  0.92758  1.0000
  H   H739      1.0  0.70762  0.04569  0.88524  1.0000
  H   H740      1.0  0.67082  0.99835  0.85290  1.0000
  S   S186      1.0  0.80460  0.03544  0.82788  1.0000
  S   S187      1.0  0.72824  0.01054  0.99496  1.0000
  C   C465      1.0  0.68134  0.99214  0.98854  1.0000
  C   C466      1.0  0.67636  0.96124  0.96685  1.0000
  C   C467      1.0  0.63840  0.94778  0.96048  1.0000
  C   C468      1.0  0.64854  0.00893  0.00480  1.0000
  H   H741      1.0  0.70169  0.94769  0.95489  1.0000
  H   H742      1.0  0.65252  0.03265  0.02178  1.0000
  S   S188      1.0  0.75410  0.97120  0.89684  1.0000
  H   H743      1.0  0.80338  0.90473  0.82920  1.0000
  C   C469      1.0  0.77321  0.07274  0.83417  1.0000
  H   H744      1.0  0.78794  0.08064  0.89099  1.0000
  Fe  Fe93      1.0  0.79661  0.92548  0.90637  1.0000
  S   S189      1.0  0.82180  0.02400  0.93448  1.0000
  S   S190      1.0  0.80903  0.94094  0.96464  1.0000
  Fe  Fe94      1.0  0.80776  0.00179  0.87881  1.0000
  Fe  Fe95      1.0  0.77150  0.98945  0.95322  1.0000
  C   C470      1.0  0.77001  0.08970  0.86839  1.0000
  N   N47       1.0  0.64436  0.04301  0.88218  1.0000
  C   C471      1.0  0.68102  0.05155  0.90226  1.0000
  C   C472      1.0  0.64506  0.00451  0.87100  1.0000
  S   S191      1.0  0.84900  0.95433  0.88330  1.0000
  H   H745      1.0  0.64738  0.98645  0.89517  1.0000
  H   H746      1.0  0.85063  0.00116  0.00665  1.0000
  H   H747      1.0  0.66723  0.06130  0.83059  1.0000
  H   H748      1.0  0.94044  0.11803  0.99415  1.0000
  H   H749      1.0  0.70626  0.87942  0.03666  1.0000
  H   H750      1.0  0.77080  0.96027  0.04654  1.0000
  C   C473      1.0  0.73265  0.89728  0.03644  1.0000
  H   H751      1.0  0.61773  0.99694  0.85597  1.0000
  H   H752      1.0  0.89856  0.89536  0.95551  1.0000
  H   H753      1.0  0.93285  0.07019  0.99616  1.0000
  H   H754      1.0  0.02725  0.11193  0.93134  1.0000
  N   N48       1.0  0.98425  0.08612  0.96563  1.0000
  Fe  Fe96      1.0  0.85815  0.97359  0.94089  1.0000
  H   H755      1.0  0.87036  0.87683  0.87835  1.0000
  H   H756      1.0  0.91561  0.89938  0.88975  1.0000
  C   C474      1.0  0.99682  0.11642  0.94216  1.0000
  S   S192      1.0  0.91784  0.97277  0.96743  1.0000
  H   H757      1.0  0.97628  0.99299  0.02125  1.0000
  C   C475      1.0  0.98649  0.05199  0.94439  1.0000
  H   H758      1.0  0.04215  0.08064  0.98934  1.0000
  C   C476      1.0  0.94319  0.09239  0.97815  1.0000
  H   H759      1.0  0.00314  0.06035  0.01536  1.0000
  H   H760      1.0  0.96652  0.05259  0.92022  1.0000
  H   H761      1.0  0.97762  0.02844  0.96126  1.0000
  C   C477      1.0  0.91388  0.99517  0.00976  1.0000
  H   H762      1.0  0.92232  0.09388  0.95469  1.0000
  H   H763      1.0  0.01704  0.04663  0.93429  1.0000
  C   C478      1.0  0.87698  0.00744  0.02194  1.0000
  C   C479      1.0  0.94776  0.00298  0.03028  1.0000
  C   C480      1.0  0.01066  0.08374  0.99775  1.0000
  H   H764      1.0  0.69877  0.96151  0.05389  1.0000
  H   H765      1.0  0.70466  0.12190  0.78782  1.0000
  H   H766      1.0  0.75876  0.87940  0.03170  1.0000
  H   H767      1.0  0.10455  0.05506  0.70396  1.0000
  H   H768      1.0  0.97698  0.11977  0.91817  1.0000
