data_image0
_chemical_formula_structural       CSNHSHFeCFeSHS2H3CFeC2H4SHNHC2FeHCHCHFeC2SHCS2CHC2H2SH2SC2HCHCH2CHCH2CH6C2HNH2CH3C2H3SFeS2FeSHFeHFeS3CH2CH2C6H4CH2CHSH3C2HCH2C2HNHCH2CHNSHCHCHCSH3SH2SCHSCSHCHCHNC4NC2HCH5CHFe3H4C3H5CH7SH3C3NH3FeHC2SH2CH3SFeSCSFeS2FeCH5SHCSH2CHCH2C6H5FeH2NFeCH2SCH5CH7FeSHFeS2FeSFeS3CH3CHC3H5C3SH5C2NH3CH2CHCHCH8CHCSHC2SHNH2NSH2SCH2C5HC3FeCSH2CH2CH2CHNH5CFeC2SHNC3SH2SH7SHCSCFeSCFeS2FeSFeHSCHSFeHC6H12CHC2HCSCHCH6NCNC2H3CH6C3FeH2CH2C3SH7CH2S2H2CH2CH2FeSHFeSHFeSFeS3HSC4HCHCHCH6CHCH2CHCHSCN2CHC2H4C3H3C2HCNCH2CHCHFeSCH4C2H2CH4CHCH3CSC2SH2SCHC2H2FeCH2FeC2S2CNC2HCH3NS2CH2SHCFeH4CHFeH5CH9NHSH3SCSHSH2CH2C6H5CH6C2H2FeSCFeS2FeSFeHS2C3H4C2HC7HCH2CNSHSHCH2CH2NFeHCHSH2SHCH2CH2CH6NHNC3HCHFeSFeH2CHSHC2HSCH2NCH2C2H2SCHCH2C3H2SCFeC2H3SCSHCH2C2H3SH4NSHC2SFeH4SNC2FeSCH2SHFeCNCHSC2H2C3H4FeSCFeH3SH3CHSH2CH3CHSHC2H2SCH3CH2CH2C2SCH2FeSHFeSNC2SCH4C2SCHC7HCH6SC5HCH3NCFeH2CH2CHC2H2C2H7SCSHCH4SFeCH2CNSH7CH2C4SFeSHFeSC3FeHCFeCS2H6C3NH3NH2CHCH3CSH4C4HCH3SHCSH3C5H2CHNHSFeCHFeC3H2CNHCSH6CH2CH3CH2SFeHFeHSH3SFeC4FeH4SHSFe2SH3CS2CH2SFeSCS2H3C2SFeSHFeSHCH2C3HFeSCFeSCHC2H2CHS2HCH3C2HCH2NH2CH2SHCHSC2FeSCHCH2CFeH5C6H4SNCHC3H2CH3SC2HCH2FeH2SHCHCHCH2SNC2HFeSCHCS2CFeC5H2CH2CH2C4H3C2H6SCSHCH2SHFeCHFeCHCNSCHCHSHNH2SH5SCHCSH2FeSHFeH2SFeH2CNFeC2HSH10CNHCH5C2SFeSHC3SHC6H3CS2HC2H2S2HCH5C2HCH2CFe2SCS2C2H4SC2SH2CHNC5H3SHCH3FeCHCH4CH2CFeC2HFeH2CH4C2HNFeHCHCH5CFeHCH2SCH2SNCH3CFe2SNCH3SH5CSCHSH3C2FeC2H2CH2FeCH3CHCH2
_chemical_formula_sum              "C480 S192 N48 H768 Fe96"
_cell_length_a       26.6011
_cell_length_b       36.8399
_cell_length_c       40.7548
_cell_angle_alpha    90.0579
_cell_angle_beta     90.4121
_cell_angle_gamma    89.8182

_space_group_name_H-M_alt    "P 1"
_space_group_IT_number       1

loop_
  _space_group_symop_operation_xyz
  'x, y, z'

loop_
  _atom_site_type_symbol
  _atom_site_label
  _atom_site_symmetry_multiplicity
  _atom_site_fract_x
  _atom_site_fract_y
  _atom_site_fract_z
  _atom_site_occupancy
  C   C1        1.0  0.32719  0.43966  0.44663  1.0000
  S   S1        1.0  0.48010  0.36189  0.34822  1.0000
  N   N1        1.0  0.21394  0.36432  0.41806  1.0000
  H   H1        1.0  0.47061  0.33197  0.42548  1.0000
  S   S2        1.0  0.36008  0.34661  0.33048  1.0000
  H   H2        1.0  0.51793  0.52272  0.36203  1.0000
  Fe  Fe1       1.0  0.40555  0.38764  0.35823  1.0000
  C   C2        1.0  0.36944  0.46678  0.40035  1.0000
  Fe  Fe2       1.0  0.43503  0.32332  0.31770  1.0000
  S   S3        1.0  0.44481  0.26333  0.32207  1.0000
  H   H3        1.0  0.36011  0.46485  0.20129  1.0000
  S   S4        1.0  0.44314  0.35535  0.27148  1.0000
  S   S5        1.0  0.27794  0.54306  0.43925  1.0000
  H   H4        1.0  0.41402  0.31073  0.38161  1.0000
  H   H5        1.0  0.34251  0.31787  0.26219  1.0000
  H   H6        1.0  0.49568  0.46615  0.33264  1.0000
  C   C3        1.0  0.40722  0.25610  0.44811  1.0000
  Fe  Fe3       1.0  0.37188  0.38248  0.28705  1.0000
  C   C4        1.0  0.07413  0.56325  0.25123  1.0000
  C   C5        1.0  0.39587  0.29248  0.39957  1.0000
  H   H7        1.0  0.20868  0.32390  0.38013  1.0000
  H   H8        1.0  0.48186  0.19415  0.30037  1.0000
  H   H9        1.0  0.22632  0.38976  0.37125  1.0000
  H   H10       1.0  0.42548  0.24287  0.20929  1.0000
  S   S6        1.0  0.16186  0.48035  0.43396  1.0000
  H   H11       1.0  0.14385  0.37168  0.39201  1.0000
  N   N2        1.0  0.43241  0.28063  0.42481  1.0000
  H   H12       1.0  0.49397  0.27903  0.39086  1.0000
  C   C6        1.0  0.32445  0.28732  0.21865  1.0000
  C   C7        1.0  0.22316  0.32720  0.40566  1.0000
  Fe  Fe4       1.0  0.48004  0.39707  0.30342  1.0000
  H   H13       1.0  0.07651  0.56337  0.22394  1.0000
  C   C8        1.0  0.50016  0.25105  0.30205  1.0000
  H   H14       1.0  0.38055  0.26905  0.38543  1.0000
  C   C9        1.0  0.32643  0.31896  0.23780  1.0000
  H   H15       1.0  0.33923  0.26206  0.22826  1.0000
  Fe  Fe5       1.0  0.09425  0.51666  0.43176  1.0000
  C   C10       1.0  0.30771  0.35179  0.22531  1.0000
  C   C11       1.0  0.53107  0.47915  0.32782  1.0000
  S   S7        1.0  0.38718  0.39440  0.41148  1.0000
  H   H16       1.0  0.08628  0.49715  0.22421  1.0000
  C   C12       1.0  0.24013  0.39085  0.39707  1.0000
  S   S8        1.0  0.54942  0.42375  0.28444  1.0000
  S   S9        1.0  0.13504  0.56634  0.44937  1.0000
  C   C13       1.0  0.54380  0.51109  0.34457  1.0000
  H   H17       1.0  0.50309  0.25218  0.42728  1.0000
  C   C14       1.0  0.36000  0.43661  0.42014  1.0000
  C   C15       1.0  0.53462  0.27773  0.29298  1.0000
  H   H18       1.0  0.15082  0.39908  0.42821  1.0000
  H   H19       1.0  0.47212  0.49623  0.41614  1.0000
  S   S10       1.0  0.31472  0.39216  0.24763  1.0000
  H   H20       1.0  0.07155  0.47158  0.26038  1.0000
  H   H21       1.0  0.48757  0.23497  0.22542  1.0000
  S   S11       1.0  0.40895  0.42683  0.31598  1.0000
  C   C16       1.0  0.15935  0.37198  0.41744  1.0000
  C   C17       1.0  0.45184  0.31276  0.44251  1.0000
  H   H22       1.0  0.39153  0.23185  0.43542  1.0000
  C   C18       1.0  0.55147  0.20526  0.27556  1.0000
  H   H23       1.0  0.52825  0.30582  0.29949  1.0000
  C   C19       1.0  0.31067  0.50247  0.43244  1.0000
  H   H24       1.0  0.39509  0.46461  0.38000  1.0000
  H   H25       1.0  0.13810  0.35154  0.43182  1.0000
  C   C20       1.0  0.50881  0.21476  0.29368  1.0000
  H   H26       1.0  0.35264  0.52335  0.39162  1.0000
  C   C21       1.0  0.34557  0.49999  0.40697  1.0000
  H   H27       1.0  0.12521  0.50107  0.26018  1.0000
  H   H28       1.0  0.53328  0.45123  0.39451  1.0000
  C   C22       1.0  0.47456  0.26132  0.40891  1.0000
  H   H29       1.0  0.23458  0.41915  0.40607  1.0000
  H   H30       1.0  0.26404  0.32070  0.40556  1.0000
  H   H31       1.0  0.46125  0.23703  0.39511  1.0000
  H   H32       1.0  0.28133  0.38563  0.39669  1.0000
  H   H33       1.0  0.45253  0.27409  0.23827  1.0000
  H   H34       1.0  0.20438  0.30654  0.42128  1.0000
  C   C23       1.0  0.46112  0.25644  0.21679  1.0000
  C   C24       1.0  0.08560  0.49824  0.25157  1.0000
  H   H35       1.0  0.52412  0.31245  0.22220  1.0000
  N   N3        1.0  0.53276  0.47218  0.44380  1.0000
  H   H36       1.0  0.36397  0.30771  0.41059  1.0000
  H   H37       1.0  0.52301  0.52660  0.42573  1.0000
  C   C25       1.0  0.50042  0.50354  0.43528  1.0000
  H   H38       1.0  0.47325  0.43337  0.43755  1.0000
  H   H39       1.0  0.09235  0.53192  0.31013  1.0000
  H   H40       1.0  0.42585  0.41778  0.20210  1.0000
  C   C26       1.0  0.52759  0.15528  0.66275  1.0000
  C   C27       1.0  0.54939  0.12327  0.50941  1.0000
  H   H41       1.0  0.08399  0.21834  0.62257  1.0000
  H   H42       1.0  0.38088  0.08796  0.51440  1.0000
  H   H43       1.0  0.27406  0.47376  0.47166  1.0000
  S   S12       1.0  0.11982  0.17187  0.52454  1.0000
  Fe  Fe6       1.0  0.40436  0.23174  0.59029  1.0000
  S   S13       1.0  0.35325  0.28024  0.59027  1.0000
  S   S14       1.0  0.39782  0.18940  0.62936  1.0000
  Fe  Fe7       1.0  0.46691  0.25954  0.53464  1.0000
  S   S15       1.0  0.42299  0.31107  0.52959  1.0000
  H   H44       1.0  0.35582  0.11703  0.58301  1.0000
  Fe  Fe8       1.0  0.42423  0.31173  0.58447  1.0000
  H   H45       1.0  0.16212  0.25763  0.61930  1.0000
  Fe  Fe9       1.0  0.35571  0.27552  0.53548  1.0000
  S   S16       1.0  0.28890  0.28849  0.50360  1.0000
  S   S17       1.0  0.47556  0.26365  0.58915  1.0000
  S   S18       1.0  0.39946  0.22322  0.53590  1.0000
  C   C28       1.0  0.33399  0.18706  0.63885  1.0000
  H   H46       1.0  0.33393  0.07519  0.56516  1.0000
  H   H47       1.0  0.44708  0.13056  0.58473  1.0000
  C   C29       1.0  0.29828  0.18840  0.61357  1.0000
  H   H48       1.0  0.20143  0.31797  0.55101  1.0000
  H   H49       1.0  0.31021  0.18965  0.58830  1.0000
  C   C30       1.0  0.16681  0.20399  0.51795  1.0000
  C   C31       1.0  0.15651  0.23545  0.49995  1.0000
  C   C32       1.0  0.19423  0.26137  0.49530  1.0000
  C   C33       1.0  0.24209  0.25589  0.50889  1.0000
  C   C34       1.0  0.25228  0.22451  0.52701  1.0000
  C   C35       1.0  0.21476  0.19840  0.53128  1.0000
  H   H50       1.0  0.11958  0.23968  0.48942  1.0000
  H   H51       1.0  0.18617  0.28559  0.48126  1.0000
  H   H52       1.0  0.28916  0.22019  0.53747  1.0000
  H   H53       1.0  0.22291  0.17375  0.54473  1.0000
  C   C36       1.0  0.47968  0.45902  0.58408  1.0000
  H   H54       1.0  0.47378  0.21465  0.67818  1.0000
  H   H55       1.0  0.16877  0.35746  0.56574  1.0000
  C   C37       1.0  0.24700  0.18756  0.62094  1.0000
  H   H56       1.0  0.39277  0.38180  0.55325  1.0000
  S   S19       1.0  0.52829  0.24524  0.49978  1.0000
  H   H57       1.0  0.44697  0.09699  0.51624  1.0000
  H   H58       1.0  0.13352  0.33465  0.51168  1.0000
  H   H59       1.0  0.34346  0.26600  0.67128  1.0000
  C   C38       1.0  0.10175  0.34501  0.49804  1.0000
  C   C39       1.0  0.23140  0.18672  0.65356  1.0000
  H   H60       1.0  0.35494  0.51017  0.52886  1.0000
  C   C40       1.0  0.09857  0.38216  0.49099  1.0000
  H   H61       1.0  0.17511  0.33689  0.63901  1.0000
  H   H62       1.0  0.49118  0.09715  0.57042  1.0000
  C   C41       1.0  0.07413  0.19793  0.60348  1.0000
  C   C42       1.0  0.41752  0.40308  0.56170  1.0000
  H   H63       1.0  0.49263  0.42544  0.62652  1.0000
  N   N4        1.0  0.37617  0.31083  0.69771  1.0000
  H   H64       1.0  0.40329  0.12999  0.53160  1.0000
  C   C43       1.0  0.11106  0.29884  0.57524  1.0000
  H   H65       1.0  0.42493  0.29529  0.65821  1.0000
  H   H66       1.0  0.10812  0.18073  0.59943  1.0000
  C   C44       1.0  0.18476  0.27565  0.60327  1.0000
  H   H67       1.0  0.21996  0.28220  0.61691  1.0000
  N   N5        1.0  0.51384  0.16783  0.69598  1.0000
  S   S20       1.0  0.43629  0.36057  0.61593  1.0000
  H   H68       1.0  0.21926  0.18820  0.60145  1.0000
  C   C45       1.0  0.05866  0.39524  0.47185  1.0000
  H   H69       1.0  0.53316  0.12533  0.66213  1.0000
  C   C46       1.0  0.32088  0.52781  0.52878  1.0000
  H   H70       1.0  0.30158  0.52373  0.50487  1.0000
  C   C47       1.0  0.45479  0.46250  0.55391  1.0000
  S   S21       1.0  0.18252  0.51380  0.50759  1.0000
  H   H71       1.0  0.19557  0.25961  0.58121  1.0000
  H   H72       1.0  0.05634  0.42371  0.46573  1.0000
  H   H73       1.0  0.49797  0.16224  0.64439  1.0000
  S   S22       1.0  0.16716  0.18730  0.66212  1.0000
  H   H74       1.0  0.47969  0.45090  0.47833  1.0000
  H   H75       1.0  0.44844  0.33130  0.68348  1.0000
  S   S23       1.0  0.46237  0.50210  0.53063  1.0000
  C   C48       1.0  0.53734  0.13862  0.47899  1.0000
  H   H76       1.0  0.12065  0.28325  0.55269  1.0000
  S   S24       1.0  0.48262  0.55260  0.61274  1.0000
  C   C49       1.0  0.31852  0.18562  0.67158  1.0000
  S   S25       1.0  0.14599  0.41148  0.50503  1.0000
  H   H77       1.0  0.12037  0.35397  0.61802  1.0000
  C   C50       1.0  0.26709  0.18618  0.67897  1.0000
  H   H78       1.0  0.36894  0.36468  0.67784  1.0000
  C   C51       1.0  0.14184  0.32878  0.62406  1.0000
  H   H79       1.0  0.29530  0.51775  0.54821  1.0000
  N   N6        1.0  0.33392  0.56640  0.53377  1.0000
  C   C52       1.0  0.42692  0.30538  0.68396  1.0000
  C   C53       1.0  0.47308  0.42793  0.60323  1.0000
  C   C54       1.0  0.45392  0.10083  0.58215  1.0000
  C   C55       1.0  0.53830  0.19856  0.50340  1.0000
  N   N7        1.0  0.15667  0.30889  0.59407  1.0000
  C   C56       1.0  0.44247  0.39976  0.59196  1.0000
  C   C57       1.0  0.30123  0.47217  0.45210  1.0000
  H   H80       1.0  0.11734  0.31203  0.64011  1.0000
  C   C58       1.0  0.34866  0.33824  0.67805  1.0000
  H   H81       1.0  0.42097  0.32810  0.45467  1.0000
  H   H82       1.0  0.08532  0.28190  0.59012  1.0000
  H   H83       1.0  0.44913  0.28549  0.69862  1.0000
  H   H84       1.0  0.50464  0.48002  0.59270  1.0000
  H   H85       1.0  0.37569  0.27006  0.46085  1.0000
  C   C59       1.0  0.50120  0.44234  0.45630  1.0000
  H   H86       1.0  0.22344  0.34085  0.58712  1.0000
  Fe  Fe10      1.0  0.50701  0.54097  0.56133  1.0000
  Fe  Fe11      1.0  0.11305  0.54758  0.49964  1.0000
  Fe  Fe12      1.0  0.13757  0.46846  0.48532  1.0000
  H   H87       1.0  0.34606  0.18490  0.69122  1.0000
  H   H88       1.0  0.08946  0.32336  0.56738  1.0000
  H   H89       1.0  0.22875  0.39535  0.46177  1.0000
  H   H90       1.0  0.40388  0.43719  0.51947  1.0000
  C   C60       1.0  0.42358  0.43453  0.54268  1.0000
  C   C61       1.0  0.53266  0.17631  0.47585  1.0000
  C   C62       1.0  0.18894  0.33230  0.57364  1.0000
  H   H91       1.0  0.34483  0.32961  0.65198  1.0000
  H   H92       1.0  0.52423  0.41831  0.46340  1.0000
  H   H93       1.0  0.07682  0.13856  0.64122  1.0000
  H   H94       1.0  0.06660  0.29257  0.49251  1.0000
  H   H95       1.0  0.32077  0.41660  0.46241  1.0000
  C   C63       1.0  0.41104  0.10033  0.52978  1.0000
  H   H96       1.0  0.40385  0.56203  0.50790  1.0000
  H   H97       1.0  0.39355  0.55402  0.56769  1.0000
  H   H98       1.0  0.53165  0.12135  0.45777  1.0000
  H   H99       1.0  0.45655  0.08905  0.60724  1.0000
  H   H100      1.0  0.43561  0.15487  0.68951  1.0000
  H   H101      1.0  0.33365  0.56199  0.58638  1.0000
  H   H102      1.0  0.55042  0.49260  0.49198  1.0000
  S   S26       1.0  0.06604  0.50087  0.48172  1.0000
  H   H103      1.0  0.53910  0.22234  0.68744  1.0000
  H   H104      1.0  0.47972  0.30488  0.46175  1.0000
  H   H105      1.0  0.21253  0.34898  0.46903  1.0000
  C   C64       1.0  0.50495  0.20745  0.69539  1.0000
  C   C65       1.0  0.54995  0.18323  0.53396  1.0000
  C   C66       1.0  0.36522  0.08776  0.57942  1.0000
  N   N8        1.0  0.41388  0.08323  0.56256  1.0000
  H   H106      1.0  0.27374  0.35996  0.45378  1.0000
  H   H107      1.0  0.06647  0.21240  0.58005  1.0000
  H   H108      1.0  0.43387  0.24623  0.46723  1.0000
  Fe  Fe13      1.0  0.20045  0.52858  0.45580  1.0000
  H   H109      1.0  0.47939  0.51347  0.45710  1.0000
  C   C67       1.0  0.23314  0.36725  0.45209  1.0000
  C   C68       1.0  0.06427  0.32116  0.48689  1.0000
  S   S27       1.0  0.55339  0.07605  0.51270  1.0000
  H   H110      1.0  0.36588  0.07484  0.60410  1.0000
  H   H111      1.0  0.31031  0.34318  0.68789  1.0000
  C   C69       1.0  0.34848  0.27609  0.69687  1.0000
  H   H112      1.0  0.52331  0.18807  0.45226  1.0000
  H   H113      1.0  0.55428  0.20053  0.55528  1.0000
  H   H114      1.0  0.20192  0.21100  0.91585  1.0000
  S   S28       1.0  0.06069  0.33516  0.70144  1.0000
  Fe  Fe14      1.0  0.52756  0.23047  0.81976  1.0000
  S   S29       1.0  0.46906  0.20362  0.78776  1.0000
  C   C70       1.0  0.46757  0.14915  0.70652  1.0000
  S   S30       1.0  0.51534  0.26025  0.86730  1.0000
  Fe  Fe15      1.0  0.19741  0.26583  0.76136  1.0000
  S   S31       1.0  0.17804  0.20663  0.75924  1.0000
  S   S32       1.0  0.26385  0.28989  0.78757  1.0000
  Fe  Fe16      1.0  0.10239  0.28935  0.72542  1.0000
  C   C71       1.0  0.25708  0.25931  0.88262  1.0000
  H   H115      1.0  0.26021  0.28044  0.90208  1.0000
  H   H116      1.0  0.50451  0.10193  0.88990  1.0000
  H   H117      1.0  0.17637  0.30372  0.88401  1.0000
  H   H118      1.0  0.40057  0.35015  0.73345  1.0000
  H   H119      1.0  0.14138  0.22752  0.90271  1.0000
  S   S33       1.0  0.12169  0.28394  0.77878  1.0000
  H   H120      1.0  0.45599  0.15809  0.73146  1.0000
  C   C72       1.0  0.20181  0.22129  0.85036  1.0000
  S   S34       1.0  0.18034  0.27676  0.70840  1.0000
  H   H121      1.0  0.36887  0.25463  0.71084  1.0000
  H   H122      1.0  0.27531  0.27020  0.86015  1.0000
  C   C73       1.0  0.54188  0.14820  0.91105  1.0000
  H   H123      1.0  0.21940  0.23095  0.82726  1.0000
  C   C74       1.0  0.38073  0.32362  0.73198  1.0000
  H   H124      1.0  0.52173  0.16760  0.89594  1.0000
  H   H125      1.0  0.13595  0.27538  0.85942  1.0000
  C   C75       1.0  0.41122  0.22658  0.78863  1.0000
  C   C76       1.0  0.40667  0.25928  0.80573  1.0000
  C   C77       1.0  0.36077  0.27796  0.80587  1.0000
  C   C78       1.0  0.31938  0.26428  0.78855  1.0000
  C   C79       1.0  0.32364  0.23149  0.77144  1.0000
  C   C80       1.0  0.36965  0.21263  0.77148  1.0000
  H   H126      1.0  0.43868  0.27054  0.81854  1.0000
  H   H127      1.0  0.35768  0.30345  0.81897  1.0000
  H   H128      1.0  0.29181  0.22088  0.75791  1.0000
  H   H129      1.0  0.37297  0.18729  0.75823  1.0000
  H   H130      1.0  0.40233  0.30398  0.74731  1.0000
  Fe  Fe17      1.0  0.10047  0.22561  0.77225  1.0000
  H   H131      1.0  0.18233  0.25598  0.92666  1.0000
  H   H132      1.0  0.27950  0.23541  0.89095  1.0000
  N   N9        1.0  0.20404  0.24947  0.87619  1.0000
  Fe  Fe18      1.0  0.15356  0.21928  0.70767  1.0000
  C   C81       1.0  0.53205  0.11108  0.90772  1.0000
  H   H133      1.0  0.19254  0.29352  0.84233  1.0000
  H   H134      1.0  0.22208  0.19618  0.85800  1.0000
  S   S35       1.0  0.07401  0.23262  0.72031  1.0000
  C   C82       1.0  0.17595  0.28195  0.86506  1.0000
  H   H135      1.0  0.34315  0.32720  0.74351  1.0000
  H   H136      1.0  0.16224  0.21367  0.84436  1.0000
  H   H137      1.0  0.49463  0.21780  0.72014  1.0000
  H   H138      1.0  0.07840  0.15520  0.75301  1.0000
  H   H139      1.0  0.54224  0.41209  0.90363  1.0000
  C   C83       1.0  0.18137  0.23537  0.90664  1.0000
  H   H140      1.0  0.31047  0.27890  0.70795  1.0000
  H   H141      1.0  0.53828  0.51825  0.88649  1.0000
  H   H142      1.0  0.47303  0.11921  0.70742  1.0000
  H   H143      1.0  0.54612  0.16874  0.74455  1.0000
  H   H144      1.0  0.54856  0.33055  0.92868  1.0000
  H   H145      1.0  0.25501  0.18549  0.70425  1.0000
  H   H146      1.0  0.50415  0.56662  0.70241  1.0000
  Fe  Fe19      1.0  0.31941  0.33967  0.06532  1.0000
  S   S36       1.0  0.36641  0.31265  0.02670  1.0000
  H   H147      1.0  0.12910  0.39859  0.02936  1.0000
  Fe  Fe20      1.0  0.32361  0.27453  0.11059  1.0000
  S   S37       1.0  0.37004  0.24195  0.07589  1.0000
  S   S38       1.0  0.31025  0.25143  0.16046  1.0000
  Fe  Fe21      1.0  0.41304  0.29313  0.06916  1.0000
  S   S39       1.0  0.49654  0.29226  0.07465  1.0000
  Fe  Fe22      1.0  0.31813  0.26433  0.03724  1.0000
  S   S40       1.0  0.28942  0.22624  0.99847  1.0000
  S   S41       1.0  0.37064  0.32449  0.10685  1.0000
  S   S42       1.0  0.26716  0.29268  0.07281  1.0000
  C   C84       1.0  0.48441  0.36580  0.07590  1.0000
  H   H148      1.0  0.12313  0.28332  0.00571  1.0000
  H   H149      1.0  0.24690  0.36397  0.11230  1.0000
  H   H150      1.0  0.39741  0.40882  0.11269  1.0000
  C   C85       1.0  0.14555  0.19495  0.98642  1.0000
  H   H151      1.0  0.27014  0.32224  0.15000  1.0000
  C   C86       1.0  0.19679  0.25903  0.00171  1.0000
  C   C87       1.0  0.19819  0.19541  0.98680  1.0000
  C   C88       1.0  0.22382  0.22721  0.99520  1.0000
  H   H152      1.0  0.24647  0.11961  0.05009  1.0000
  H   H153      1.0  0.21901  0.17079  0.98162  1.0000
  H   H154      1.0  0.48689  0.30817  0.00709  1.0000
  H   H155      1.0  0.44295  0.39465  0.16485  1.0000
  H   H156      1.0  0.44245  0.47651  0.17389  1.0000
  C   C89       1.0  0.51484  0.33635  0.08489  1.0000
  C   C90       1.0  0.28567  0.32140  0.17450  1.0000
  C   C91       1.0  0.11838  0.22656  0.99341  1.0000
  S   S43       1.0  0.08997  0.51131  0.08088  1.0000
  H   H157      1.0  0.30012  0.18416  0.11147  1.0000
  H   H158      1.0  0.16726  0.14958  0.06141  1.0000
  H   H159      1.0  0.13150  0.43474  0.05890  1.0000
  H   H160      1.0  0.12609  0.17009  0.98061  1.0000
  H   H161      1.0  0.26447  0.12365  0.12423  1.0000
  C   C92       1.0  0.26284  0.19188  0.10099  1.0000
  C   C93       1.0  0.18695  0.17223  0.07408  1.0000
  N   N10       1.0  0.23599  0.16020  0.08739  1.0000
  H   H162      1.0  0.16196  0.18263  0.09376  1.0000
  H   H163      1.0  0.21653  0.28383  0.00764  1.0000
  H   H164      1.0  0.55182  0.35462  0.01768  1.0000
  C   C94       1.0  0.14404  0.25881  0.00037  1.0000
  H   H165      1.0  0.38328  0.38590  0.18391  1.0000
  H   H166      1.0  0.27211  0.16333  0.04044  1.0000
  C   C95       1.0  0.26591  0.14371  0.06078  1.0000
  H   H167      1.0  0.20782  0.10892  0.10419  1.0000
  C   C96       1.0  0.22811  0.13319  0.11364  1.0000
  H   H168      1.0  0.30348  0.13468  0.06977  1.0000
  C   C97       1.0  0.50048  0.30594  0.98143  1.0000
  H   H169      1.0  0.20536  0.14470  0.13399  1.0000
  H   H170      1.0  0.46146  0.32189  0.15812  1.0000
  H   H171      1.0  0.24105  0.20519  0.12093  1.0000
  H   H172      1.0  0.26924  0.21261  0.08169  1.0000
  H   H173      1.0  0.45002  0.36143  0.06215  1.0000
  H   H174      1.0  0.19137  0.19440  0.05584  1.0000
  H   H175      1.0  0.31675  0.43354  0.18332  1.0000
  H   H176      1.0  0.18622  0.38818  0.15307  1.0000
  C   C98       1.0  0.12241  0.40546  0.05555  1.0000
  H   H177      1.0  0.41004  0.48710  0.13614  1.0000
  C   C99       1.0  0.20294  0.46419  0.10717  1.0000
  S   S44       1.0  0.52676  0.53585  0.96402  1.0000
  H   H178      1.0  0.47739  0.32484  0.96622  1.0000
  C   C100      1.0  0.49923  0.40120  0.08379  1.0000
  C   C101      1.0  0.18415  0.44170  0.13179  1.0000
  S   S45       1.0  0.14374  0.07425  0.05894  1.0000
  H   H179      1.0  0.06933  0.43783  0.10352  1.0000
  N   N11       1.0  0.38783  0.43688  0.15863  1.0000
  H   H180      1.0  0.14998  0.38972  0.07049  1.0000
  H   H181      1.0  0.45799  0.24016  0.15211  1.0000
  N   N12       1.0  0.48273  0.27748  0.18947  1.0000
  S   S46       1.0  0.29574  0.39747  0.05735  1.0000
  H   H182      1.0  0.45792  0.45274  0.13689  1.0000
  H   H183      1.0  0.51945  0.23070  0.16894  1.0000
  S   S47       1.0  0.11245  0.56311  0.14526  1.0000
  C   C102      1.0  0.36751  0.42176  0.12769  1.0000
  H   H184      1.0  0.34957  0.44316  0.11222  1.0000
  H   H185      1.0  0.19101  0.49224  0.10565  1.0000
  C   C103      1.0  0.49313  0.25289  0.16163  1.0000
  C   C104      1.0  0.34648  0.45367  0.17745  1.0000
  C   C105      1.0  0.54374  0.40706  0.10145  1.0000
  C   C106      1.0  0.28622  0.35275  0.19393  1.0000
  C   C107      1.0  0.23507  0.39194  0.11115  1.0000
  H   H186      1.0  0.51063  0.26774  0.14089  1.0000
  C   C108      1.0  0.23755  0.45051  0.08448  1.0000
  C   C109      1.0  0.20074  0.40567  0.13405  1.0000
  C   C110      1.0  0.30510  0.28882  0.18670  1.0000
  Fe  Fe23      1.0  0.09653  0.50455  0.13533  1.0000
  C   C111      1.0  0.25329  0.41430  0.08629  1.0000
  S   S48       1.0  0.13758  0.45770  0.15838  1.0000
  H   H187      1.0  0.41042  0.29343  0.17071  1.0000
  H   H188      1.0  0.47646  0.42406  0.07597  1.0000
  C   C112      1.0  0.41109  0.40745  0.17820  1.0000
  H   H189      1.0  0.49264  0.27778  0.97287  1.0000
  H   H190      1.0  0.25187  0.46799  0.06537  1.0000
  C   C113      1.0  0.42617  0.46456  0.15109  1.0000
  H   H191      1.0  0.33842  0.40081  0.13247  1.0000
  H   H192      1.0  0.32804  0.47604  0.16345  1.0000
  C   C114      1.0  0.44654  0.30573  0.17897  1.0000
  H   H193      1.0  0.27099  0.37785  0.18438  1.0000
  N   N13       1.0  0.07021  0.39750  0.06537  1.0000
  H   H194      1.0  0.54216  0.37221  0.97704  1.0000
  H   H195      1.0  0.06620  0.34899  0.03603  1.0000
  H   H196      1.0  0.54650  0.31186  0.18064  1.0000
  H   H197      1.0  0.08955  0.39389  0.11671  1.0000
  H   H198      1.0  0.08634  0.34192  0.07770  1.0000
  C   C115      1.0  0.53008  0.29478  0.20036  1.0000
  Fe  Fe24      1.0  0.07288  0.10335  0.04548  1.0000
  C   C116      1.0  0.06290  0.40829  0.09997  1.0000
  C   C117      1.0  0.06057  0.35819  0.06179  1.0000
  S   S49       1.0  0.06004  0.15832  0.06685  1.0000
  H   H199      1.0  0.43765  0.32466  0.19944  1.0000
  N   N14       1.0  0.55461  0.31452  0.97928  1.0000
  C   C118      1.0  0.42360  0.79384  0.43374  1.0000
  C   C119      1.0  0.54463  0.01713  0.32147  1.0000
  C   C120      1.0  0.39167  0.85884  0.21236  1.0000
  S   S50       1.0  0.52673  0.77426  0.37781  1.0000
  H   H200      1.0  0.17107  0.77790  0.23117  1.0000
  H   H201      1.0  0.28651  0.91084  0.22116  1.0000
  S   S51       1.0  0.06507  0.98791  0.40224  1.0000
  H   H202      1.0  0.46304  0.80371  0.43571  1.0000
  H   H203      1.0  0.13644  0.81580  0.24725  1.0000
  H   H204      1.0  0.07854  0.05247  0.44096  1.0000
  H   H205      1.0  0.52443  0.59817  0.31335  1.0000
  H   H206      1.0  0.46339  0.64804  0.32566  1.0000
  H   H207      1.0  0.53407  0.63098  0.36457  1.0000
  H   H208      1.0  0.54837  0.67856  0.36492  1.0000
  S   S52       1.0  0.13328  0.88282  0.28306  1.0000
  H   H209      1.0  0.27901  0.96958  0.36101  1.0000
  C   C121      1.0  0.31415  0.89369  0.20943  1.0000
  S   S53       1.0  0.53681  0.05067  0.22726  1.0000
  C   C122      1.0  0.25190  0.99275  0.36126  1.0000
  Fe  Fe25      1.0  0.48697  0.90241  0.34182  1.0000
  S   S54       1.0  0.46101  0.86576  0.38176  1.0000
  C   C123      1.0  0.51134  0.98982  0.26112  1.0000
  Fe  Fe26      1.0  0.44793  0.85385  0.28798  1.0000
  S   S55       1.0  0.41869  0.81212  0.32306  1.0000
  S   S56       1.0  0.44644  0.84522  0.23330  1.0000
  Fe  Fe27      1.0  0.39107  0.86005  0.35151  1.0000
  S   S57       1.0  0.31755  0.85724  0.37781  1.0000
  Fe  Fe28      1.0  0.49088  0.82075  0.35052  1.0000
  H   H210      1.0  0.16885  0.95763  0.30598  1.0000
  S   S58       1.0  0.41370  0.90148  0.31418  1.0000
  C   C124      1.0  0.52639  0.98168  0.31935  1.0000
  H   H211      1.0  0.49672  0.94037  0.28719  1.0000
  S   S59       1.0  0.52341  0.85812  0.31282  1.0000
  Fe  Fe29      1.0  0.06451  0.90098  0.31043  1.0000
  H   H212      1.0  0.35873  0.88675  0.25339  1.0000
  C   C125      1.0  0.18425  0.87076  0.30833  1.0000
  C   C126      1.0  0.17675  0.86089  0.34101  1.0000
  C   C127      1.0  0.21796  0.85554  0.36205  1.0000
  C   C128      1.0  0.26684  0.85974  0.35032  1.0000
  C   C129      1.0  0.27453  0.86746  0.31713  1.0000
  C   C130      1.0  0.23321  0.87288  0.29610  1.0000
  H   H213      1.0  0.13929  0.85707  0.35010  1.0000
  H   H214      1.0  0.21194  0.84870  0.38753  1.0000
  H   H215      1.0  0.31225  0.86995  0.30777  1.0000
  H   H216      1.0  0.23932  0.88002  0.27071  1.0000
  H   H217      1.0  0.17648  0.96214  0.39627  1.0000
  H   H218      1.0  0.16241  0.02354  0.37561  1.0000
  H   H219      1.0  0.12972  0.87320  0.21399  1.0000
  H   H220      1.0  0.47801  0.66951  0.28725  1.0000
  H   H221      1.0  0.23281  0.94481  0.31385  1.0000
  H   H222      1.0  0.20353  0.81822  0.24429  1.0000
  H   H223      1.0  0.18009  0.03539  0.33444  1.0000
  H   H224      1.0  0.32390  0.80518  0.43202  1.0000
  C   C131      1.0  0.54701  0.03869  0.29326  1.0000
  H   H225      1.0  0.26782  0.01459  0.34564  1.0000
  C   C132      1.0  0.20567  0.96778  0.31539  1.0000
  C   C133      1.0  0.35500  0.88006  0.22771  1.0000
  H   H226      1.0  0.21873  0.98924  0.29830  1.0000
  C   C134      1.0  0.18237  0.95234  0.37074  1.0000
  S   S60       1.0  0.52851  0.95351  0.35376  1.0000
  C   C135      1.0  0.16904  0.80807  0.23172  1.0000
  H   H227      1.0  0.25028  0.00313  0.38690  1.0000
  C   C136      1.0  0.53059  0.02499  0.26304  1.0000
  H   H228      1.0  0.19713  0.87429  0.21219  1.0000
  H   H229      1.0  0.08087  0.90829  0.44142  1.0000
  H   H230      1.0  0.12856  0.00508  0.34154  1.0000
  H   H231      1.0  0.49926  0.97904  0.23783  1.0000
  H   H232      1.0  0.20892  0.92899  0.37186  1.0000
  H   H233      1.0  0.14562  0.94193  0.36159  1.0000
  N   N15       1.0  0.54232  0.65503  0.31678  1.0000
  C   C137      1.0  0.16683  0.01280  0.35022  1.0000
  N   N16       1.0  0.20167  0.98146  0.34939  1.0000
  C   C138      1.0  0.50959  0.96805  0.28919  1.0000
  C   C139      1.0  0.48953  0.66725  0.31348  1.0000
  H   H234      1.0  0.42505  0.76365  0.43375  1.0000
  H   H235      1.0  0.45339  0.92952  0.20764  1.0000
  H   H236      1.0  0.48396  0.69448  0.32493  1.0000
  C   C140      1.0  0.54824  0.61899  0.30124  1.0000
  H   H237      1.0  0.40868  0.80235  0.40932  1.0000
  H   H238      1.0  0.11252  0.56855  0.26106  1.0000
  H   H239      1.0  0.37803  0.85927  0.43708  1.0000
  H   H240      1.0  0.53802  0.61966  0.27474  1.0000
  H   H241      1.0  0.33765  0.76522  0.45586  1.0000
  H   H242      1.0  0.09718  0.94982  0.46175  1.0000
  C   C141      1.0  0.40903  0.67594  0.59523  1.0000
  C   C142      1.0  0.34762  0.71676  0.55270  1.0000
  C   C143      1.0  0.17378  0.75989  0.69594  1.0000
  Fe  Fe30      1.0  0.49907  0.61029  0.60037  1.0000
  H   H243      1.0  0.35118  0.57503  0.48291  1.0000
  H   H244      1.0  0.09290  0.72656  0.49158  1.0000
  C   C144      1.0  0.34642  0.72304  0.58652  1.0000
  H   H245      1.0  0.37596  0.70782  0.63386  1.0000
  H   H246      1.0  0.32203  0.74369  0.59652  1.0000
  C   C145      1.0  0.37875  0.68945  0.54013  1.0000
  C   C146      1.0  0.40979  0.66923  0.56140  1.0000
  C   C147      1.0  0.37691  0.70261  0.60773  1.0000
  S   S61       1.0  0.44744  0.65152  0.62264  1.0000
  H   H247      1.0  0.43463  0.64885  0.55158  1.0000
  H   H248      1.0  0.37903  0.60730  0.51066  1.0000
  H   H249      1.0  0.37995  0.68467  0.51395  1.0000
  H   H250      1.0  0.15891  0.68971  0.54414  1.0000
  H   H251      1.0  0.11511  0.90713  0.47976  1.0000
  H   H252      1.0  0.10793  0.73895  0.59556  1.0000
  H   H253      1.0  0.46192  0.03986  0.54593  1.0000
  C   C148      1.0  0.15977  0.71982  0.54161  1.0000
  H   H254      1.0  0.49193  0.66556  0.68765  1.0000
  H   H255      1.0  0.06303  0.63789  0.69276  1.0000
  S   S62       1.0  0.51649  0.59939  0.54743  1.0000
  S   S63       1.0  0.31194  0.74437  0.52628  1.0000
  H   H256      1.0  0.12822  0.78287  0.51472  1.0000
  H   H257      1.0  0.26850  0.58607  0.50805  1.0000
  C   C149      1.0  0.25494  0.79000  0.69680  1.0000
  H   H258      1.0  0.38875  0.80483  0.51325  1.0000
  H   H259      1.0  0.39598  0.02975  0.54442  1.0000
  C   C150      1.0  0.42554  0.04412  0.55887  1.0000
  H   H260      1.0  0.53665  0.97608  0.56194  1.0000
  H   H261      1.0  0.14102  0.75071  0.68251  1.0000
  Fe  Fe31      1.0  0.29088  0.82577  0.62312  1.0000
  S   S64       1.0  0.26848  0.88155  0.60595  1.0000
  H   H262      1.0  0.15484  0.83138  0.62051  1.0000
  Fe  Fe32      1.0  0.29596  0.79544  0.55422  1.0000
  S   S65       1.0  0.27309  0.84785  0.53075  1.0000
  H   H263      1.0  0.20867  0.78335  0.65380  1.0000
  Fe  Fe33      1.0  0.32629  0.87324  0.56687  1.0000
  S   S66       1.0  0.37371  0.91823  0.54688  1.0000
  Fe  Fe34      1.0  0.21730  0.85203  0.57133  1.0000
  S   S67       1.0  0.13910  0.87223  0.56071  1.0000
  S   S68       1.0  0.35421  0.82030  0.58716  1.0000
  S   S69       1.0  0.23487  0.79661  0.59124  1.0000
  H   H264      1.0  0.42069  0.62240  0.68749  1.0000
  S   S70       1.0  0.09012  0.58579  0.54024  1.0000
  C   C151      1.0  0.46488  0.95032  0.55538  1.0000
  C   C152      1.0  0.35865  0.57071  0.56612  1.0000
  C   C153      1.0  0.33984  0.79539  0.45578  1.0000
  C   C154      1.0  0.08172  0.81138  0.63324  1.0000
  H   H265      1.0  0.43201  0.85861  0.46371  1.0000
  C   C155      1.0  0.11138  0.77538  0.53869  1.0000
  H   H266      1.0  0.41411  0.78360  0.69596  1.0000
  C   C156      1.0  0.09730  0.85380  0.58905  1.0000
  H   H267      1.0  0.29606  0.61800  0.53630  1.0000
  C   C157      1.0  0.39309  0.84812  0.46056  1.0000
  H   H268      1.0  0.09592  0.79285  0.65157  1.0000
  H   H269      1.0  0.07312  0.92578  0.53101  1.0000
  H   H270      1.0  0.50605  0.60182  0.67212  1.0000
  H   H271      1.0  0.10529  0.85974  0.68908  1.0000
  H   H272      1.0  0.45115  0.80320  0.49671  1.0000
  H   H273      1.0  0.17872  0.72615  0.51801  1.0000
  C   C158      1.0  0.52645  0.93256  0.59655  1.0000
  H   H274      1.0  0.07612  0.68977  0.51788  1.0000
  C   C159      1.0  0.43225  0.92328  0.56632  1.0000
  H   H275      1.0  0.50526  0.88789  0.62753  1.0000
  H   H276      1.0  0.45404  0.96735  0.53489  1.0000
  C   C160      1.0  0.07753  0.71990  0.51616  1.0000
  H   H277      1.0  0.18418  0.73055  0.56167  1.0000
  C   C161      1.0  0.49405  0.90528  0.60738  1.0000
  H   H278      1.0  0.37002  0.85968  0.48079  1.0000
  S   S71       1.0  0.30351  0.81363  0.67696  1.0000
  C   C162      1.0  0.11516  0.83254  0.61509  1.0000
  N   N17       1.0  0.10858  0.73559  0.54283  1.0000
  N   N18       1.0  0.39207  0.80797  0.46064  1.0000
  C   C163      1.0  0.44671  0.90086  0.59246  1.0000
  H   H279      1.0  0.42147  0.88023  0.60127  1.0000
  C   C164      1.0  0.21230  0.77824  0.67959  1.0000
  C   C165      1.0  0.51172  0.95517  0.57063  1.0000
  H   H280      1.0  0.36929  0.59943  0.57086  1.0000
  H   H281      1.0  0.08305  0.69741  0.57890  1.0000
  H   H282      1.0  0.07351  0.78825  0.54007  1.0000
  H   H283      1.0  0.41059  0.76431  0.49366  1.0000
  C   C166      1.0  0.36854  0.57826  0.50769  1.0000
  C   C167      1.0  0.28764  0.58870  0.53239  1.0000
  C   C168      1.0  0.08563  0.72723  0.57490  1.0000
  H   H284      1.0  0.26021  0.58021  0.55138  1.0000
  H   H285      1.0  0.13501  0.78799  0.55817  1.0000
  H   H286      1.0  0.42871  0.03025  0.58307  1.0000
  C   C169      1.0  0.51366  0.59569  0.69840  1.0000
  C   C170      1.0  0.41162  0.79450  0.49243  1.0000
  H   H287      1.0  0.31490  0.80537  0.47561  1.0000
  C   C171      1.0  0.08462  0.92140  0.46595  1.0000
  N   N19       1.0  0.48452  0.61993  0.72007  1.0000
  C   C172      1.0  0.34093  0.71440  0.87722  1.0000
  H   H288      1.0  0.09849  0.61685  0.72536  1.0000
  H   H289      1.0  0.48538  0.58161  0.91392  1.0000
  C   C173      1.0  0.12758  0.84075  0.75101  1.0000
  H   H290      1.0  0.37204  0.76879  0.72718  1.0000
  C   C174      1.0  0.16125  0.66082  0.93173  1.0000
  H   H291      1.0  0.49318  0.83987  0.75248  1.0000
  Fe  Fe35      1.0  0.48411  0.70291  0.80968  1.0000
  S   S72       1.0  0.40689  0.69292  0.79008  1.0000
  C   C175      1.0  0.51669  0.59567  0.92522  1.0000
  H   H292      1.0  0.12576  0.82072  0.77135  1.0000
  H   H293      1.0  0.41814  0.58689  0.71761  1.0000
  H   H294      1.0  0.50569  0.79376  0.74180  1.0000
  H   H295      1.0  0.07890  0.59911  0.84778  1.0000
  C   C176      1.0  0.31220  0.70851  0.81121  1.0000
  C   C177      1.0  0.21996  0.76516  0.74694  1.0000
  H   H296      1.0  0.28136  0.82260  0.93246  1.0000
  H   H297      1.0  0.10201  0.66504  0.71934  1.0000
  C   C178      1.0  0.37662  0.70521  0.85337  1.0000
  H   H298      1.0  0.30091  0.70628  0.78572  1.0000
  H   H299      1.0  0.47358  0.62844  0.77168  1.0000
  H   H300      1.0  0.50967  0.64263  0.89407  1.0000
  H   H301      1.0  0.23801  0.72196  0.82771  1.0000
  C   C179      1.0  0.49542  0.61080  0.75469  1.0000
  H   H302      1.0  0.09949  0.89874  0.71531  1.0000
  C   C180      1.0  0.36231  0.70260  0.82032  1.0000
  H   H303      1.0  0.43434  0.81968  0.79504  1.0000
  H   H304      1.0  0.41496  0.69964  0.86068  1.0000
  H   H305      1.0  0.21419  0.86243  0.88256  1.0000
  C   C181      1.0  0.25879  0.78302  0.73052  1.0000
  S   S73       1.0  0.12955  0.70934  0.84357  1.0000
  C   C182      1.0  0.50351  0.80869  0.93820  1.0000
  C   C183      1.0  0.42188  0.79741  0.77840  1.0000
  S   S74       1.0  0.12526  0.73631  0.75048  1.0000
  H   H306      1.0  0.20017  0.65187  0.93807  1.0000
  H   H307      1.0  0.07180  0.62520  0.78347  1.0000
  S   S75       1.0  0.53545  0.72701  0.77258  1.0000
  C   C184      1.0  0.27660  0.71766  0.83501  1.0000
  H   H308      1.0  0.35205  0.71649  0.90274  1.0000
  C   C185      1.0  0.29096  0.72094  0.86799  1.0000
  C   C186      1.0  0.07606  0.64134  0.71858  1.0000
  H   H309      1.0  0.53937  0.66262  0.71919  1.0000
  H   H310      1.0  0.07691  0.79890  0.70912  1.0000
  Fe  Fe36      1.0  0.11095  0.81311  0.85145  1.0000
  C   C187      1.0  0.23364  0.87811  0.90229  1.0000
  H   H311      1.0  0.14550  0.86574  0.76097  1.0000
  H   H312      1.0  0.15313  0.82929  0.73210  1.0000
  Fe  Fe37      1.0  0.17684  0.74998  0.87031  1.0000
  C   C188      1.0  0.08171  0.87245  0.70850  1.0000
  C   C189      1.0  0.24012  0.82486  0.93655  1.0000
  S   S76       1.0  0.11305  0.77744  0.89597  1.0000
  S   S77       1.0  0.17933  0.78921  0.82857  1.0000
  C   C190      1.0  0.53067  0.63005  0.91382  1.0000
  N   N20       1.0  0.42714  0.80761  0.74350  1.0000
  C   C191      1.0  0.49878  0.65801  0.71377  1.0000
  C   C192      1.0  0.39502  0.83946  0.73625  1.0000
  H   H313      1.0  0.43537  0.75230  0.72720  1.0000
  C   C193      1.0  0.17701  0.75420  0.72976  1.0000
  H   H314      1.0  0.27465  0.87750  0.89712  1.0000
  H   H315      1.0  0.40632  0.86344  0.75116  1.0000
  H   H316      1.0  0.22369  0.75948  0.77279  1.0000
  N   N21       1.0  0.07705  0.84832  0.73727  1.0000
  S   S78       1.0  0.10799  0.87369  0.85027  1.0000
  S   S79       1.0  0.24656  0.73398  0.89741  1.0000
  C   C194      1.0  0.48009  0.81697  0.73674  1.0000
  H   H317      1.0  0.06056  0.94150  0.83451  1.0000
  H   H318      1.0  0.29151  0.79149  0.74421  1.0000
  S   S80       1.0  0.50458  0.74204  0.84960  1.0000
  H   H319      1.0  0.53609  0.61434  0.76060  1.0000
  C   C195      1.0  0.43020  0.61538  0.71340  1.0000
  Fe  Fe38      1.0  0.12561  0.75105  0.80392  1.0000
  H   H320      1.0  0.15405  0.89318  0.94110  1.0000
  H   H321      1.0  0.07671  0.65721  0.87808  1.0000
  H   H322      1.0  0.22052  0.90676  0.90025  1.0000
  H   H323      1.0  0.48527  0.82501  0.71066  1.0000
  C   C196      1.0  0.41168  0.77674  0.72252  1.0000
  H   H324      1.0  0.44496  0.77309  0.78453  1.0000
  Fe  Fe39      1.0  0.06520  0.73982  0.86580  1.0000
  H   H325      1.0  0.06270  0.89227  0.77090  1.0000
  H   H326      1.0  0.14658  0.85000  0.92143  1.0000
  H   H327      1.0  0.38226  0.79050  0.78441  1.0000
  H   H328      1.0  0.51719  0.80230  0.91307  1.0000
  H   H329      1.0  0.14157  0.63742  0.92015  1.0000
  C   C197      1.0  0.16799  0.86464  0.94085  1.0000
  H   H330      1.0  0.35486  0.83384  0.74143  1.0000
  H   H331      1.0  0.16463  0.68249  0.91288  1.0000
  H   H332      1.0  0.46232  0.81367  0.93638  1.0000
  H   H333      1.0  0.40719  0.63329  0.72952  1.0000
  H   H334      1.0  0.22101  0.80782  0.91772  1.0000
  H   H335      1.0  0.50200  0.73769  0.92493  1.0000
  H   H336      1.0  0.47649  0.67700  0.72921  1.0000
  H   H337      1.0  0.48560  0.58213  0.76019  1.0000
  H   H338      1.0  0.39702  0.84720  0.70986  1.0000
  N   N22       1.0  0.22276  0.86300  0.93505  1.0000
  H   H339      1.0  0.44842  0.74831  0.94975  1.0000
  S   S81       1.0  0.53776  0.65987  0.82662  1.0000
  H   H340      1.0  0.06084  0.66429  0.94027  1.0000
  H   H341      1.0  0.07990  0.67303  0.77722  1.0000
  H   H342      1.0  0.08504  0.70885  0.93306  1.0000
  S   S82       1.0  0.55219  0.03950  0.91757  1.0000
  C   C198      1.0  0.49008  0.74527  0.95014  1.0000
  S   S83       1.0  0.05674  0.77828  0.82351  1.0000
  H   H343      1.0  0.52179  0.83454  0.94597  1.0000
  S   S84       1.0  0.15012  0.60456  0.06033  1.0000
  H   H344      1.0  0.20785  0.66753  0.04216  1.0000
  H   H345      1.0  0.14328  0.71513  0.99817  1.0000
  C   C199      1.0  0.14949  0.64945  0.07464  1.0000
  H   H346      1.0  0.29078  0.88357  0.95722  1.0000
  H   H347      1.0  0.39671  0.93438  0.18406  1.0000
  C   C200      1.0  0.18124  0.67550  0.06076  1.0000
  C   C201      1.0  0.11395  0.69569  0.10990  1.0000
  C   C202      1.0  0.17889  0.71182  0.07124  1.0000
  C   C203      1.0  0.20743  0.81162  0.17841  1.0000
  C   C204      1.0  0.11611  0.65958  0.09933  1.0000
  C   C205      1.0  0.38641  0.85026  0.17903  1.0000
  H   H348      1.0  0.45532  0.79233  0.99462  1.0000
  H   H349      1.0  0.09168  0.63967  0.11028  1.0000
  H   H350      1.0  0.20100  0.69587  0.98357  1.0000
  H   H351      1.0  0.45532  0.97420  0.11087  1.0000
  H   H352      1.0  0.42635  0.99940  0.14345  1.0000
  C   C206      1.0  0.51147  0.96894  0.16593  1.0000
  H   H353      1.0  0.43880  0.89901  0.13952  1.0000
  H   H354      1.0  0.16748  0.63413  0.99319  1.0000
  H   H355      1.0  0.51413  0.81433  0.00338  1.0000
  H   H356      1.0  0.08784  0.70336  0.12896  1.0000
  H   H357      1.0  0.50504  0.99672  0.17597  1.0000
  H   H358      1.0  0.23697  0.91336  0.96039  1.0000
  C   C207      1.0  0.13897  0.02919  0.04588  1.0000
  C   C208      1.0  0.11701  0.81005  0.18300  1.0000
  H   H359      1.0  0.20489  0.82303  0.15327  1.0000
  H   H360      1.0  0.20344  0.73193  0.06063  1.0000
  Fe  Fe40      1.0  0.17637  0.87759  0.04426  1.0000
  S   S85       1.0  0.19473  0.82026  0.03029  1.0000
  C   C209      1.0  0.13103  0.95682  0.02530  1.0000
  Fe  Fe41      1.0  0.24257  0.87525  0.10593  1.0000
  S   S86       1.0  0.26792  0.81815  0.09632  1.0000
  S   S87       1.0  0.25996  0.90468  0.15306  1.0000
  Fe  Fe42      1.0  0.27367  0.83622  0.04383  1.0000
  S   S88       1.0  0.33842  0.82740  0.00962  1.0000
  Fe  Fe43      1.0  0.18685  0.80840  0.08398  1.0000
  H   H361      1.0  0.06215  0.69697  0.97292  1.0000
  S   S89       1.0  0.25559  0.89451  0.05454  1.0000
  S   S90       1.0  0.16100  0.86450  0.09665  1.0000
  C   C210      1.0  0.30955  0.88567  0.17592  1.0000
  C   C211      1.0  0.34542  0.86361  0.16083  1.0000
  C   C212      1.0  0.16249  0.70448  0.97592  1.0000
  H   H362      1.0  0.41468  0.83381  0.16707  1.0000
  H   H363      1.0  0.34258  0.85777  0.13490  1.0000
  H   H364      1.0  0.24169  0.87366  0.98539  1.0000
  H   H365      1.0  0.49524  0.89668  0.16355  1.0000
  C   C213      1.0  0.15864  0.96546  0.05356  1.0000
  C   C214      1.0  0.16334  0.00171  0.06354  1.0000
  H   H366      1.0  0.17626  0.94433  0.06793  1.0000
  C   C215      1.0  0.11034  0.02053  0.01806  1.0000
  C   C216      1.0  0.45700  0.91018  0.04070  1.0000
  C   C217      1.0  0.46052  0.89288  0.01018  1.0000
  C   C218      1.0  0.42420  0.86732  0.00054  1.0000
  C   C219      1.0  0.38529  0.85810  0.02186  1.0000
  C   C220      1.0  0.38293  0.87437  0.05279  1.0000
  C   C221      1.0  0.41811  0.90074  0.06192  1.0000
  H   H367      1.0  0.49073  0.89942  0.99386  1.0000
  C   C222      1.0  0.12990  0.64424  0.98506  1.0000
  H   H368      1.0  0.35380  0.86684  0.06976  1.0000
  H   H369      1.0  0.41460  0.91409  0.08528  1.0000
  C   C223      1.0  0.49692  0.78858  0.99443  1.0000
  N   N23       1.0  0.51513  0.77890  0.96135  1.0000
  S   S91       1.0  0.12658  0.91171  0.01193  1.0000
  H   H370      1.0  0.39777  0.95839  0.12854  1.0000
  S   S92       1.0  0.14054  0.76672  0.10959  1.0000
  H   H371      1.0  0.49660  0.91509  0.12256  1.0000
  C   C224      1.0  0.10717  0.98441  0.00748  1.0000
  H   H372      1.0  0.23277  0.81255  0.96096  1.0000
  H   H373      1.0  0.11180  0.82140  0.15788  1.0000
  C   C225      1.0  0.47413  0.91369  0.14551  1.0000
  H   H374      1.0  0.20901  0.78155  0.17577  1.0000
  H   H375      1.0  0.16071  0.87565  0.17509  1.0000
  N   N24       1.0  0.46352  0.95028  0.15874  1.0000
  Fe  Fe44      1.0  0.09887  0.57065  0.09130  1.0000
  H   H376      1.0  0.18508  0.00830  0.08527  1.0000
  C   C226      1.0  0.43446  0.97153  0.13434  1.0000
  H   H377      1.0  0.50612  0.76700  0.01263  1.0000
  S   S93       1.0  0.55109  0.94752  0.96134  1.0000
  H   H378      1.0  0.16685  0.72732  0.95830  1.0000
  H   H379      1.0  0.11714  0.77993  0.18047  1.0000
  S   S94       1.0  0.50008  0.94383  0.05300  1.0000
  H   H380      1.0  0.10902  0.62067  0.97476  1.0000
  C   C227      1.0  0.43391  0.94695  0.18913  1.0000
  H   H381      1.0  0.09178  0.04178  0.00425  1.0000
  H   H382      1.0  0.42574  0.85525  0.97643  1.0000
  C   C228      1.0  0.14506  0.72184  0.09581  1.0000
  H   H383      1.0  0.42676  0.97392  0.20054  1.0000
  H   H384      1.0  0.10955  0.65319  0.00748  1.0000
  C   C229      1.0  0.24925  0.88444  0.96049  1.0000
  H   H385      1.0  0.24365  0.82099  0.18931  1.0000
  H   H386      1.0  0.53455  0.97183  0.14338  1.0000
  H   H387      1.0  0.49967  0.72183  0.96630  1.0000
  H   H388      1.0  0.53430  0.95371  0.18434  1.0000
  H   H389      1.0  0.15804  0.85251  0.96494  1.0000
  H   H390      1.0  0.08691  0.97790  0.98533  1.0000
  N   N25       1.0  0.16407  0.82326  0.19831  1.0000
  H   H391      1.0  0.08355  0.81785  0.19767  1.0000
  N   N26       1.0  0.13427  0.67404  0.96102  1.0000
  C   C230      1.0  0.16279  0.86333  0.20000  1.0000
  C   C231      1.0  0.08342  0.68658  0.95142  1.0000
  C   C232      1.0  0.54306  0.57954  0.95125  1.0000
  H   H392      1.0  0.80953  0.18666  0.29954  1.0000
  C   C233      1.0  0.85040  0.18975  0.30512  1.0000
  H   H393      1.0  0.86487  0.11202  0.34908  1.0000
  Fe  Fe45      1.0  0.65036  0.16092  0.23836  1.0000
  S   S95       1.0  0.63796  0.22095  0.24228  1.0000
  Fe  Fe46      1.0  0.70321  0.09625  0.26870  1.0000
  H   H394      1.0  0.60436  0.28881  0.26840  1.0000
  H   H395      1.0  0.80804  0.13578  0.33862  1.0000
  C   C234      1.0  0.90690  0.55782  0.37535  1.0000
  H   H396      1.0  0.88482  0.10221  0.29092  1.0000
  S   S96       1.0  0.62677  0.12023  0.27608  1.0000
  H   H397      1.0  0.93390  0.17874  0.34135  1.0000
  C   C235      1.0  0.84918  0.13916  0.34266  1.0000
  C   C236      1.0  0.92795  0.15968  0.32042  1.0000
  H   H398      1.0  0.94651  0.13364  0.32744  1.0000
  S   S97       1.0  0.72937  0.14009  0.23494  1.0000
  C   C237      1.0  0.58595  0.23193  0.26643  1.0000
  H   H399      1.0  0.82733  0.12469  0.27956  1.0000
  H   H400      1.0  0.86817  0.20218  0.28319  1.0000
  N   N27       1.0  0.87385  0.15445  0.31340  1.0000
  C   C238      1.0  0.86778  0.12921  0.28543  1.0000
  H   H401      1.0  0.88586  0.13987  0.26288  1.0000
  H   H402      1.0  0.85405  0.20939  0.32579  1.0000
  C   C239      1.0  0.96910  0.06937  0.37935  1.0000
  C   C240      1.0  0.61017  0.48125  0.29893  1.0000
  H   H403      1.0  0.94806  0.17083  0.29884  1.0000
  H   H404      1.0  0.85464  0.15689  0.36454  1.0000
  S   S98       1.0  0.94809  0.13705  0.40319  1.0000
  C   C241      1.0  0.57769  0.26812  0.27539  1.0000
  H   H405      1.0  0.93840  0.07379  0.36230  1.0000
  C   C242      1.0  0.99081  0.53941  0.39276  1.0000
  H   H406      1.0  0.03808  0.50325  0.30995  1.0000
  H   H407      1.0  0.58398  0.48169  0.40408  1.0000
  C   C243      1.0  0.55987  0.45977  0.41427  1.0000
  C   C244      1.0  0.95266  0.54014  0.36887  1.0000
  C   C245      1.0  0.59034  0.52750  0.33919  1.0000
  H   H408      1.0  0.65914  0.52562  0.31160  1.0000
  H   H409      1.0  0.58473  0.43618  0.41977  1.0000
  S   S99       1.0  0.04763  0.51676  0.38541  1.0000
  C   C246      1.0  0.02231  0.09037  0.42386  1.0000
  Fe  Fe47      1.0  0.60446  0.08636  0.23249  1.0000
  C   C247      1.0  0.98229  0.09632  0.40203  1.0000
  C   C248      1.0  0.86985  0.54848  0.20872  1.0000
  H   H410      1.0  0.95803  0.52654  0.34564  1.0000
  H   H411      1.0  0.63596  0.46968  0.28133  1.0000
  H   H412      1.0  0.03065  0.55161  0.30953  1.0000
  S   S100      1.0  0.75418  0.55089  0.34556  1.0000
  C   C249      1.0  0.62328  0.51289  0.31607  1.0000
  S   S101      1.0  0.79314  0.55367  0.25296  1.0000
  H   H413      1.0  0.01282  0.55632  0.44122  1.0000
  C   C250      1.0  0.98343  0.55668  0.42285  1.0000
  H   H414      1.0  0.98542  0.49773  0.25953  1.0000
  H   H415      1.0  0.87723  0.55790  0.35706  1.0000
  C   C251      1.0  0.56432  0.46410  0.30507  1.0000
  C   C252      1.0  0.00192  0.52379  0.25113  1.0000
  H   H416      1.0  0.55684  0.17748  0.26795  1.0000
  H   H417      1.0  0.00056  0.52408  0.22381  1.0000
  H   H418      1.0  0.97684  0.54604  0.25983  1.0000
  S   S102      1.0  0.74996  0.07726  0.31149  1.0000
  H   H419      1.0  0.55892  0.27408  0.20722  1.0000
  H   H420      1.0  0.70204  0.55377  0.20693  1.0000
  H   H421      1.0  0.69053  0.16058  0.43354  1.0000
  H   H422      1.0  0.03360  0.11143  0.44080  1.0000
  N   N28       1.0  0.05388  0.52851  0.26345  1.0000
  S   S103      1.0  0.60734  0.56571  0.36215  1.0000
  H   H423      1.0  0.99038  0.38165  0.44585  1.0000
  C   C253      1.0  0.05378  0.52883  0.29974  1.0000
  C   C254      1.0  0.72330  0.15251  0.44910  1.0000
  S   S104      1.0  0.03671  0.20818  0.44754  1.0000
  Fe  Fe48      1.0  0.97063  0.17050  0.44702  1.0000
  H   H424      1.0  0.74533  0.13193  0.43519  1.0000
  H   H425      1.0  0.76313  0.50424  0.20159  1.0000
  H   H426      1.0  0.75431  0.07174  0.66306  1.0000
  H   H427      1.0  0.59454  0.46012  0.47643  1.0000
  S   S105      1.0  0.63792  0.10431  0.66919  1.0000
  N   N29       1.0  0.03071  0.17577  0.61358  1.0000
  C   C255      1.0  0.55658  0.14557  0.53685  1.0000
  C   C256      1.0  0.81277  0.06882  0.55870  1.0000
  Fe  Fe49      1.0  0.93872  0.19031  0.51614  1.0000
  S   S106      1.0  0.88714  0.18016  0.55868  1.0000
  C   C257      1.0  0.02387  0.33438  0.46824  1.0000
  H   H428      1.0  0.86458  0.54995  0.47380  1.0000
  H   H429      1.0  0.64068  0.11254  0.46119  1.0000
  S   S107      1.0  0.00065  0.23087  0.52250  1.0000
  H   H430      1.0  0.66467  0.15619  0.52291  1.0000
  Fe  Fe50      1.0  0.56443  0.54835  0.62495  1.0000
  C   C258      1.0  0.75885  0.53181  0.68721  1.0000
  N   N30       1.0  0.70693  0.13811  0.48113  1.0000
  C   C259      1.0  0.75154  0.12784  0.50090  1.0000
  H   H431      1.0  0.99842  0.39888  0.69653  1.0000
  S   S108      1.0  0.98814  0.14644  0.49627  1.0000
  C   C260      1.0  0.73784  0.53906  0.65624  1.0000
  C   C261      1.0  0.83580  0.54973  0.49344  1.0000
  H   H432      1.0  0.69556  0.08394  0.46263  1.0000
  H   H433      1.0  0.89304  0.08015  0.67462  1.0000
  C   C262      1.0  0.87329  0.11062  0.53588  1.0000
  C   C263      1.0  0.85902  0.13716  0.55857  1.0000
  C   C264      1.0  0.82149  0.12940  0.58140  1.0000
  H   H434      1.0  0.74052  0.11692  0.52522  1.0000
  H   H435      1.0  0.05171  0.13127  0.58223  1.0000
  H   H436      1.0  0.90120  0.11645  0.51772  1.0000
  H   H437      1.0  0.81004  0.14996  0.59884  1.0000
  Fe  Fe51      1.0  0.63594  0.06887  0.62460  1.0000
  S   S109      1.0  0.82347  0.53882  0.69442  1.0000
  C   C265      1.0  0.01891  0.14918  0.58750  1.0000
  Fe  Fe52      1.0  0.98291  0.24739  0.47082  1.0000
  H   H438      1.0  0.77431  0.10648  0.48852  1.0000
  H   H439      1.0  0.77670  0.15148  0.50547  1.0000
  H   H440      1.0  0.70101  0.19094  0.50344  1.0000
  S   S110      1.0  0.91552  0.21108  0.46663  1.0000
  H   H441      1.0  0.89954  0.54920  0.54522  1.0000
  H   H442      1.0  0.80760  0.10067  0.65669  1.0000
  H   H443      1.0  0.76179  0.54724  0.63627  1.0000
  C   C266      1.0  0.85085  0.07628  0.53632  1.0000
  H   H444      1.0  0.78528  0.09249  0.69747  1.0000
  S   S111      1.0  0.97649  0.30519  0.45399  1.0000
  H   H445      1.0  0.76857  0.08971  0.59861  1.0000
  H   H446      1.0  0.05262  0.17575  0.66449  1.0000
  C   C267      1.0  0.56954  0.48311  0.46931  1.0000
  H   H447      1.0  0.74761  0.17686  0.45225  1.0000
  H   H448      1.0  0.66200  0.09419  0.49950  1.0000
  H   H449      1.0  0.80792  0.55061  0.55670  1.0000
  C   C268      1.0  0.79796  0.09540  0.58122  1.0000
  H   H450      1.0  0.83742  0.52255  0.50529  1.0000
  S   S112      1.0  0.58913  0.52332  0.67221  1.0000
  H   H451      1.0  0.98633  0.13185  0.59411  1.0000
  C   C269      1.0  0.79178  0.07957  0.67316  1.0000
  C   C270      1.0  0.65459  0.52529  0.67703  1.0000
  H   H452      1.0  0.66953  0.54192  0.62734  1.0000
  H   H453      1.0  0.59379  0.50573  0.46067  1.0000
  S   S113      1.0  0.58786  0.53148  0.57454  1.0000
  C   C271      1.0  0.68567  0.53589  0.65114  1.0000
  H   H454      1.0  0.99401  0.21987  0.63865  1.0000
  H   H455      1.0  0.95288  0.18371  0.62584  1.0000
  H   H456      1.0  0.79854  0.55251  0.48100  1.0000
  C   C272      1.0  0.67498  0.10581  0.47583  1.0000
  H   H457      1.0  0.56620  0.13384  0.56038  1.0000
  H   H458      1.0  0.97642  0.21483  0.59618  1.0000
  C   C273      1.0  0.98668  0.19963  0.61889  1.0000
  H   H459      1.0  0.00889  0.16311  0.56420  1.0000
  H   H460      1.0  0.01155  0.13926  0.65274  1.0000
  C   C274      1.0  0.04327  0.15641  0.64434  1.0000
  C   C275      1.0  0.67795  0.16627  0.49874  1.0000
  S   S114      1.0  0.66410  0.08762  0.57581  1.0000
  C   C276      1.0  0.02140  0.37137  0.46050  1.0000
  H   H461      1.0  0.64412  0.17488  0.48446  1.0000
  H   H462      1.0  0.56338  0.16782  0.65449  1.0000
  Fe  Fe53      1.0  0.04854  0.18823  0.49910  1.0000
  S   S115      1.0  0.63850  0.27144  0.86940  1.0000
  H   H463      1.0  0.60353  0.49274  0.82757  1.0000
  Fe  Fe54      1.0  0.64013  0.24062  0.82222  1.0000
  S   S116      1.0  0.71223  0.22697  0.79713  1.0000
  N   N31       1.0  0.93654  0.16932  0.91718  1.0000
  C   C277      1.0  0.98601  0.14258  0.80904  1.0000
  C   C278      1.0  0.82249  0.33528  0.82633  1.0000
  S   S117      1.0  0.85939  0.56520  0.78373  1.0000
  C   C279      1.0  0.72764  0.52053  0.71259  1.0000
  H   H464      1.0  0.00936  0.19468  0.91651  1.0000
  H   H465      1.0  0.59484  0.43248  0.95037  1.0000
  H   H466      1.0  0.81160  0.36394  0.83152  1.0000
  H   H467      1.0  0.74317  0.51471  0.73627  1.0000
  C   C280      1.0  0.00210  0.33510  0.75674  1.0000
  C   C281      1.0  0.96498  0.11065  0.79644  1.0000
  S   S118      1.0  0.76415  0.54660  0.85106  1.0000
  C   C282      1.0  0.56767  0.49677  0.88879  1.0000
  H   H468      1.0  0.85532  0.28380  0.78459  1.0000
  C   C283      1.0  0.67779  0.37474  0.91456  1.0000
  C   C284      1.0  0.74577  0.19608  0.82154  1.0000
  C   C285      1.0  0.73079  0.18922  0.85379  1.0000
  C   C286      1.0  0.75510  0.16229  0.87232  1.0000
  C   C287      1.0  0.79394  0.14189  0.85845  1.0000
  C   C288      1.0  0.81071  0.15007  0.82687  1.0000
  C   C289      1.0  0.78658  0.17714  0.80838  1.0000
  H   H469      1.0  0.69976  0.20407  0.86434  1.0000
  C   C290      1.0  0.02702  0.15866  0.79357  1.0000
  H   H470      1.0  0.84243  0.13569  0.81670  1.0000
  H   H471      1.0  0.79881  0.18279  0.78364  1.0000
  H   H472      1.0  0.81416  0.31888  0.84853  1.0000
  H   H473      1.0  0.73243  0.30255  0.82458  1.0000
  H   H474      1.0  0.64571  0.45545  0.87145  1.0000
  H   H475      1.0  0.74253  0.15642  0.89696  1.0000
  S   S119      1.0  0.59034  0.19605  0.83965  1.0000
  C   C291      1.0  0.64847  0.36389  0.88759  1.0000
  C   C292      1.0  0.96642  0.35022  0.77803  1.0000
  C   C293      1.0  0.02581  0.11070  0.75256  1.0000
  C   C294      1.0  0.67577  0.51726  0.70760  1.0000
  C   C295      1.0  0.59389  0.09769  0.94993  1.0000
  H   H476      1.0  0.57299  0.06857  0.85468  1.0000
  C   C296      1.0  0.80609  0.34479  0.76854  1.0000
  H   H477      1.0  0.97101  0.11744  0.92645  1.0000
  H   H478      1.0  0.66391  0.34547  0.86968  1.0000
  H   H479      1.0  0.56920  0.48888  0.91515  1.0000
  N   N32       1.0  0.79603  0.32110  0.79701  1.0000
  C   C297      1.0  0.81430  0.28401  0.78989  1.0000
  Fe  Fe55      1.0  0.58305  0.22966  0.88523  1.0000
  H   H480      1.0  0.97015  0.15495  0.83058  1.0000
  H   H481      1.0  0.96435  0.21649  0.94272  1.0000
  C   C298      1.0  0.74136  0.32028  0.80330  1.0000
  H   H482      1.0  0.66017  0.47613  0.91033  1.0000
  H   H483      1.0  0.69308  0.48995  0.87416  1.0000
  C   C299      1.0  0.57770  0.16015  0.93379  1.0000
  H   H484      1.0  0.93303  0.09877  0.80844  1.0000
  C   C300      1.0  0.98962  0.38525  0.71927  1.0000
  C   C301      1.0  0.59928  0.37683  0.88395  1.0000
  H   H485      1.0  0.81801  0.51505  0.91585  1.0000
  H   H486      1.0  0.90016  0.21650  0.89691  1.0000
  C   C302      1.0  0.61427  0.51738  0.84178  1.0000
  C   C303      1.0  0.65568  0.48157  0.88360  1.0000
  H   H487      1.0  0.80781  0.26545  0.81097  1.0000
  H   H488      1.0  0.02020  0.30974  0.76300  1.0000
  H   H489      1.0  0.66007  0.10657  0.79378  1.0000
  H   H490      1.0  0.79509  0.37347  0.77354  1.0000
  H   H491      1.0  0.93471  0.42506  0.73376  1.0000
  H   H492      1.0  0.88797  0.17497  0.87520  1.0000
  H   H493      1.0  0.92591  0.11756  0.89368  1.0000
  S   S120      1.0  0.81936  0.10512  0.88015  1.0000
  C   C304      1.0  0.94301  0.38327  0.77028  1.0000
  S   S121      1.0  0.00430  0.56229  0.81019  1.0000
  H   H494      1.0  0.69863  0.11458  0.72722  1.0000
  C   C305      1.0  0.79184  0.52655  0.93442  1.0000
  H   H495      1.0  0.95782  0.33667  0.80082  1.0000
  H   H496      1.0  0.98691  0.13737  0.88770  1.0000
  H   H497      1.0  0.65196  0.50900  0.72766  1.0000
  H   H498      1.0  0.94786  0.19699  0.87139  1.0000
  S   S122      1.0  0.59317  0.20624  0.93565  1.0000
  Fe  Fe56      1.0  0.57172  0.29962  0.84731  1.0000
  C   C306      1.0  0.65819  0.39896  0.93765  1.0000
  H   H499      1.0  0.87998  0.18935  0.95021  1.0000
  H   H500      1.0  0.57902  0.08559  0.81377  1.0000
  C   C307      1.0  0.98528  0.09433  0.76848  1.0000
  N   N33       1.0  0.61706  0.50974  0.87735  1.0000
  S   S123      1.0  0.89934  0.40212  0.79775  1.0000
  H   H501      1.0  0.71543  0.36401  0.91778  1.0000
  H   H502      1.0  0.84684  0.34506  0.76244  1.0000
  H   H503      1.0  0.86398  0.33502  0.82287  1.0000
  H   H504      1.0  0.78533  0.33563  0.74626  1.0000
  H   H505      1.0  0.66556  0.13778  0.82719  1.0000
  H   H506      1.0  0.79448  0.27215  0.76825  1.0000
  H   H507      1.0  0.86391  0.14788  0.92943  1.0000
  C   C308      1.0  0.58036  0.40211  0.90633  1.0000
  H   H508      1.0  0.72637  0.34790  0.80864  1.0000
  H   H509      1.0  0.72018  0.30930  0.78182  1.0000
  C   C309      1.0  0.59324  0.08867  0.83934  1.0000
  C   C310      1.0  0.97750  0.18967  0.93346  1.0000
  C   C311      1.0  0.95602  0.13392  0.90568  1.0000
  C   C312      1.0  0.95394  0.40036  0.74056  1.0000
  S   S124      1.0  0.57831  0.27253  0.79822  1.0000
  Fe  Fe57      1.0  0.88536  0.46193  0.79086  1.0000
  S   S125      1.0  0.92575  0.49743  0.75504  1.0000
  H   H510      1.0  0.71487  0.10561  0.81995  1.0000
  Fe  Fe58      1.0  0.84972  0.52219  0.74527  1.0000
  S   S126      1.0  0.80879  0.48316  0.77800  1.0000
  C   C313      1.0  0.01434  0.35291  0.72756  1.0000
  C   C314      1.0  0.63064  0.54324  0.89528  1.0000
  C   C315      1.0  0.60989  0.41327  0.93307  1.0000
  Fe  Fe59      1.0  0.82319  0.52476  0.81712  1.0000
  H   H511      1.0  0.58236  0.11619  0.84799  1.0000
  C   C316      1.0  0.91728  0.19040  0.88891  1.0000
  Fe  Fe60      1.0  0.93073  0.53637  0.79717  1.0000
  C   C317      1.0  0.04660  0.14295  0.76505  1.0000
  S   S127      1.0  0.89543  0.49943  0.83385  1.0000
  S   S128      1.0  0.55989  0.35961  0.85314  1.0000
  H   H512      1.0  0.58626  0.53907  0.83622  1.0000
  H   H513      1.0  0.59087  0.17277  0.71187  1.0000
  H   H514      1.0  0.74823  0.54874  0.78193  1.0000
  H   H515      1.0  0.56537  0.28390  0.93499  1.0000
  H   H516      1.0  0.65117  0.52661  0.83227  1.0000
  H   H517      1.0  0.65556  0.11647  0.88461  1.0000
  C   C318      1.0  0.67333  0.10935  0.81956  1.0000
  C   C319      1.0  0.89543  0.16331  0.94077  1.0000
  C   C320      1.0  0.57061  0.31187  0.94472  1.0000
  N   N34       1.0  0.81126  0.56089  0.94831  1.0000
  H   H518      1.0  0.04165  0.09817  0.73094  1.0000
  H   H519      1.0  0.70737  0.08601  0.87764  1.0000
  H   H520      1.0  0.75499  0.53077  0.92189  1.0000
  N   N35       1.0  0.64820  0.08318  0.84139  1.0000
  H   H521      1.0  0.64883  0.06884  0.89252  1.0000
  H   H522      1.0  0.62933  0.53908  0.92228  1.0000
  C   C321      1.0  0.66577  0.08891  0.87550  1.0000
  H   H523      1.0  0.66916  0.55232  0.88903  1.0000
  C   C322      1.0  0.68705  0.08645  0.72602  1.0000
  H   H524      1.0  0.61106  0.31877  0.94204  1.0000
  H   H525      1.0  0.73358  0.06984  0.76662  1.0000
  H   H526      1.0  0.60430  0.56593  0.88944  1.0000
  C   C323      1.0  0.55885  0.08575  0.92654  1.0000
  S   S129      1.0  0.05343  0.19826  0.81024  1.0000
  H   H527      1.0  0.56285  0.12971  0.72029  1.0000
  H   H528      1.0  0.55483  0.47261  0.87467  1.0000
  H   H529      1.0  0.86944  0.07190  0.71503  1.0000
  H   H530      1.0  0.88826  0.54278  0.94837  1.0000
  C   C324      1.0  0.65434  0.07493  0.70116  1.0000
  C   C325      1.0  0.55518  0.15941  0.71924  1.0000
  C   C326      1.0  0.88356  0.54319  0.07575  1.0000
  C   C327      1.0  0.68807  0.10366  0.03108  1.0000
  H   H531      1.0  0.85105  0.52445  0.19976  1.0000
  C   C328      1.0  0.03496  0.41811  0.04419  1.0000
  H   H532      1.0  0.02133  0.35130  0.06874  1.0000
  H   H533      1.0  0.64985  0.14485  0.10135  1.0000
  H   H534      1.0  0.77364  0.48305  0.16250  1.0000
  S   S130      1.0  0.95022  0.15780  0.02976  1.0000
  H   H535      1.0  0.65373  0.52528  0.18988  1.0000
  C   C329      1.0  0.57387  0.37758  0.11078  1.0000
  S   S131      1.0  0.04882  0.11889  0.99469  1.0000
  H   H536      1.0  0.77853  0.56590  0.17602  1.0000
  H   H537      1.0  0.62491  0.29389  0.99784  1.0000
  H   H538      1.0  0.71223  0.13501  0.08803  1.0000
  C   C330      1.0  0.81499  0.11088  0.10985  1.0000
  C   C331      1.0  0.86422  0.12323  0.10554  1.0000
  C   C332      1.0  0.68414  0.54468  0.18349  1.0000
  C   C333      1.0  0.67326  0.14038  0.07915  1.0000
  C   C334      1.0  0.55966  0.34219  0.10219  1.0000
  H   H539      1.0  0.79113  0.54212  0.13842  1.0000
  H   H540      1.0  0.60861  0.38218  0.12410  1.0000
  C   C335      1.0  0.87076  0.13529  0.16385  1.0000
  H   H541      1.0  0.92944  0.54487  0.17334  1.0000
  N   N36       1.0  0.65416  0.10982  0.05914  1.0000
  H   H542      1.0  0.88074  0.12306  0.08139  1.0000
  S   S132      1.0  0.73340  0.09286  0.14623  1.0000
  Fe  Fe61      1.0  0.97201  0.10253  0.01122  1.0000
  C   C336      1.0  0.79372  0.11057  0.14117  1.0000
  H   H543      1.0  0.79360  0.10122  0.08897  1.0000
  Fe  Fe62      1.0  0.98301  0.13801  0.07743  1.0000
  C   C337      1.0  0.56352  0.35173  0.99162  1.0000
  C   C338      1.0  0.69630  0.51560  0.13096  1.0000
  C   C339      1.0  0.82166  0.12271  0.16815  1.0000
  H   H544      1.0  0.72383  0.50347  0.11363  1.0000
  H   H545      1.0  0.69072  0.06801  0.08739  1.0000
  C   C340      1.0  0.60309  0.11850  0.04688  1.0000
  N   N37       1.0  0.72144  0.52774  0.16150  1.0000
  H   H546      1.0  0.69076  0.12810  0.01523  1.0000
  C   C341      1.0  0.89205  0.13544  0.13258  1.0000
  S   S133      1.0  0.95476  0.14814  0.12818  1.0000
  H   H547      1.0  0.61520  0.07815  0.96413  1.0000
  H   H548      1.0  0.60407  0.35909  0.99042  1.0000
  H   H549      1.0  0.76628  0.55585  0.99157  1.0000
  H   H550      1.0  0.72681  0.09670  0.03959  1.0000
  H   H551      1.0  0.02400  0.40259  0.10834  1.0000
  H   H552      1.0  0.71601  0.47522  0.18418  1.0000
  C   C342      1.0  0.74460  0.49614  0.17813  1.0000
  H   H553      1.0  0.80608  0.12155  0.19243  1.0000
  H   H554      1.0  0.60290  0.14358  0.03165  1.0000
  C   C343      1.0  0.58386  0.28839  0.99929  1.0000
  H   H555      1.0  0.58788  0.09616  0.03130  1.0000
  H   H556      1.0  0.58330  0.31944  0.10906  1.0000
  H   H557      1.0  0.78639  0.50566  0.95383  1.0000
  C   C344      1.0  0.60308  0.13500  0.95368  1.0000
  H   H558      1.0  0.57647  0.12275  0.06749  1.0000
  H   H559      1.0  0.03830  0.41009  0.01798  1.0000
  S   S134      1.0  0.66304  0.51006  0.98706  1.0000
  Fe  Fe63      1.0  0.67741  0.52265  0.04006  1.0000
  H   H560      1.0  0.99517  0.41398  0.05164  1.0000
  Fe  Fe64      1.0  0.00823  0.52092  0.09044  1.0000
  H   H561      1.0  0.85497  0.53388  0.98565  1.0000
  S   S135      1.0  0.95226  0.49050  0.05942  1.0000
  H   H562      1.0  0.57762  0.25997  0.99085  1.0000
  H   H563      1.0  0.89257  0.14437  0.18479  1.0000
  H   H564      1.0  0.04219  0.44782  0.04565  1.0000
  S   S136      1.0  0.69372  0.41001  0.97260  1.0000
  Fe  Fe65      1.0  0.65689  0.45248  0.00376  1.0000
  C   C345      1.0  0.79571  0.54128  0.05932  1.0000
  C   C346      1.0  0.80397  0.50784  0.04396  1.0000
  C   C347      1.0  0.85214  0.49224  0.04428  1.0000
  C   C348      1.0  0.89202  0.50994  0.06011  1.0000
  Fe  Fe66      1.0  0.02959  0.17256  0.01731  1.0000
  H   H565      1.0  0.63133  0.14432  0.97085  1.0000
  H   H566      1.0  0.77355  0.49416  0.03140  1.0000
  H   H567      1.0  0.85852  0.46648  0.03220  1.0000
  H   H568      1.0  0.67498  0.08059  0.01558  1.0000
  S   S137      1.0  0.01395  0.50912  0.14424  1.0000
  H   H569      1.0  0.62996  0.08084  0.10217  1.0000
  S   S138      1.0  0.67920  0.46447  0.05577  1.0000
  Fe  Fe67      1.0  0.58168  0.51320  0.00055  1.0000
  Fe  Fe68      1.0  0.59695  0.47275  0.06427  1.0000
  S   S139      1.0  0.99805  0.08131  0.06000  1.0000
  H   H570      1.0  0.94530  0.07149  0.16067  1.0000
  H   H571      1.0  0.67395  0.16610  0.06490  1.0000
  H   H572      1.0  0.99277  0.17453  0.95491  1.0000
  C   C349      1.0  0.91454  0.55985  0.19386  1.0000
  S   S140      1.0  0.57432  0.45446  0.01391  1.0000
  S   S141      1.0  0.59630  0.53200  0.05212  1.0000
  C   C350      1.0  0.85952  0.55386  0.96544  1.0000
  H   H573      1.0  0.66678  0.49493  0.13585  1.0000
  H   H574      1.0  0.90855  0.14722  0.96224  1.0000
  S   S142      1.0  0.92347  0.07195  0.97558  1.0000
  Fe  Fe69      1.0  0.69857  0.10442  0.19503  1.0000
  S   S143      1.0  0.73592  0.56137  0.05860  1.0000
  C   C351      1.0  0.65236  0.07666  0.07951  1.0000
  S   S144      1.0  0.56288  0.45132  0.11035  1.0000
  S   S145      1.0  0.05255  0.22540  0.99459  1.0000
  H   H575      1.0  0.57310  0.28982  0.02560  1.0000
  H   H576      1.0  0.67786  0.53868  0.11791  1.0000
  H   H577      1.0  0.91399  0.55688  0.08823  1.0000
  C   C352      1.0  0.76077  0.55452  0.15343  1.0000
  C   C353      1.0  0.83555  0.55902  0.07506  1.0000
  S   S146      1.0  0.62163  0.12911  0.19531  1.0000
  Fe  Fe70      1.0  0.68420  0.58493  0.34778  1.0000
  S   S147      1.0  0.71914  0.62891  0.37793  1.0000
  H   H578      1.0  0.80586  0.69046  0.37116  1.0000
  Fe  Fe71      1.0  0.79061  0.59778  0.37148  1.0000
  S   S148      1.0  0.84202  0.59553  0.41516  1.0000
  H   H579      1.0  0.76309  0.97659  0.29866  1.0000
  C   C354      1.0  0.87424  0.74212  0.38183  1.0000
  H   H580      1.0  0.82242  0.76320  0.43422  1.0000
  H   H581      1.0  0.85041  0.76655  0.37723  1.0000
  C   C355      1.0  0.89944  0.57463  0.40575  1.0000
  C   C356      1.0  0.93793  0.57430  0.42929  1.0000
  C   C357      1.0  0.80236  0.70523  0.39485  1.0000
  H   H582      1.0  0.85913  0.61465  0.26629  1.0000
  Fe  Fe72      1.0  0.77053  0.58258  0.29959  1.0000
  S   S149      1.0  0.81312  0.62677  0.32570  1.0000
  C   C358      1.0  0.65687  0.71937  0.36726  1.0000
  Fe  Fe73      1.0  0.73824  0.65427  0.32989  1.0000
  S   S150      1.0  0.69716  0.61285  0.29979  1.0000
  C   C359      1.0  0.61219  0.73344  0.38016  1.0000
  H   H583      1.0  0.56075  0.06608  0.29506  1.0000
  C   C360      1.0  0.04804  0.05710  0.42375  1.0000
  C   C361      1.0  0.87467  0.59894  0.24655  1.0000
  H   H584      1.0  0.77588  0.72824  0.39048  1.0000
  H   H585      1.0  0.99164  0.92638  0.44020  1.0000
  C   C362      1.0  0.67614  0.73324  0.33804  1.0000
  H   H586      1.0  0.72203  0.99198  0.26642  1.0000
  S   S151      1.0  0.72978  0.71400  0.32022  1.0000
  S   S152      1.0  0.67896  0.05857  0.22848  1.0000
  H   H587      1.0  0.04962  0.58658  0.25818  1.0000
  C   C363      1.0  0.57561  0.68143  0.30051  1.0000
  H   H588      1.0  0.67643  0.69800  0.38012  1.0000
  H   H589      1.0  0.88202  0.74613  0.44862  1.0000
  H   H590      1.0  0.62982  0.97407  0.26753  1.0000
  C   C364      1.0  0.84520  0.73811  0.43785  1.0000
  C   C365      1.0  0.99516  0.03626  0.37901  1.0000
  H   H591      1.0  0.59727  0.72243  0.40268  1.0000
  C   C366      1.0  0.91983  0.60991  0.23214  1.0000
  H   H592      1.0  0.66210  0.01801  0.30660  1.0000
  H   H593      1.0  0.93597  0.02177  0.20119  1.0000
  N   N38       1.0  0.85182  0.71803  0.40675  1.0000
  H   H594      1.0  0.91200  0.75197  0.38958  1.0000
  H   H595      1.0  0.87873  0.72790  0.35790  1.0000
  C   C367      1.0  0.90077  0.88029  0.42450  1.0000
  H   H596      1.0  0.59641  0.64585  0.35544  1.0000
  H   H597      1.0  0.89686  0.90113  0.40605  1.0000
  S   S153      1.0  0.98579  0.88546  0.29661  1.0000
  H   H598      1.0  0.92348  0.69513  0.42054  1.0000
  C   C368      1.0  0.93994  0.59033  0.20586  1.0000
  H   H599      1.0  0.98477  0.01564  0.36141  1.0000
  S   S154      1.0  0.94871  0.94109  0.35586  1.0000
  C   C369      1.0  0.88528  0.68650  0.41250  1.0000
  C   C370      1.0  0.80010  0.05034  0.29813  1.0000
  Fe  Fe74      1.0  0.96806  0.94481  0.30230  1.0000
  S   S155      1.0  0.92394  0.97417  0.26297  1.0000
  C   C371      1.0  0.91875  0.84585  0.41587  1.0000
  H   H600      1.0  0.70701  0.90676  0.31455  1.0000
  C   C372      1.0  0.60603  0.77557  0.33483  1.0000
  H   H601      1.0  0.72998  0.93937  0.34386  1.0000
  H   H602      1.0  0.84949  0.01505  0.22832  1.0000
  C   C373      1.0  0.03412  0.02992  0.40153  1.0000
  Fe  Fe75      1.0  0.97291  0.88303  0.35095  1.0000
  H   H603      1.0  0.66485  0.92635  0.34397  1.0000
  H   H604      1.0  0.65126  0.92763  0.26807  1.0000
  H   H605      1.0  0.70511  0.00476  0.33840  1.0000
  H   H606      1.0  0.56765  0.68329  0.27374  1.0000
  H   H607      1.0  0.78474  0.68634  0.41267  1.0000
  C   C374      1.0  0.83299  0.03463  0.32102  1.0000
  C   C375      1.0  0.87194  0.01179  0.31042  1.0000
  C   C376      1.0  0.87759  0.00426  0.27700  1.0000
  C   C377      1.0  0.84535  0.02074  0.25414  1.0000
  C   C378      1.0  0.65135  0.76197  0.32227  1.0000
  C   C379      1.0  0.80705  0.04406  0.26464  1.0000
  H   H608      1.0  0.89737  0.99999  0.32815  1.0000
  H   H609      1.0  0.87038  0.66859  0.43212  1.0000
  H   H610      1.0  0.93919  0.63365  0.24136  1.0000
  H   H611      1.0  0.64051  0.99046  0.34000  1.0000
  S   S156      1.0  0.93612  0.83576  0.37556  1.0000
  N   N39       1.0  0.68550  0.96203  0.30461  1.0000
  C   C380      1.0  0.69744  0.93230  0.32777  1.0000
  H   H612      1.0  0.82821  0.03985  0.34696  1.0000
  C   C381      1.0  0.64220  0.95141  0.28383  1.0000
  C   C382      1.0  0.67274  0.99521  0.32325  1.0000
  C   C383      1.0  0.72951  0.96915  0.28367  1.0000
  H   H613      1.0  0.88934  0.66957  0.38999  1.0000
  H   H614      1.0  0.61602  0.67400  0.30361  1.0000
  C   C384      1.0  0.92263  0.81877  0.43969  1.0000
  H   H615      1.0  0.73987  0.94492  0.26884  1.0000
  H   H616      1.0  0.58602  0.79658  0.32174  1.0000
  H   H617      1.0  0.78268  0.05684  0.24676  1.0000
  S   S157      1.0  0.04827  0.96060  0.31106  1.0000
  C   C385      1.0  0.58601  0.76090  0.36353  1.0000
  C   C386      1.0  0.55584  0.65255  0.35196  1.0000
  H   H618      1.0  0.66623  0.77285  0.29968  1.0000
  C   C387      1.0  0.84974  0.56805  0.23511  1.0000
  H   H619      1.0  0.57073  0.70909  0.31097  1.0000
  H   H620      1.0  0.60944  0.94360  0.29908  1.0000
  Fe  Fe76      1.0  0.03077  0.95198  0.36398  1.0000
  H   H621      1.0  0.93792  0.79253  0.43326  1.0000
  H   H622      1.0  0.58770  0.60915  0.30323  1.0000
  S   S158      1.0  0.05317  0.89368  0.36438  1.0000
  H   H623      1.0  0.55729  0.02782  0.34484  1.0000
  C   C388      1.0  0.71899  0.71655  0.58681  1.0000
  H   H624      1.0  0.85239  0.05166  0.62644  1.0000
  C   C389      1.0  0.89503  0.57552  0.53211  1.0000
  H   H625      1.0  0.05375  0.96790  0.51272  1.0000
  C   C390      1.0  0.96409  0.66481  0.51346  1.0000
  H   H626      1.0  0.79811  0.02355  0.63141  1.0000
  H   H627      1.0  0.80206  0.65730  0.64868  1.0000
  S   S159      1.0  0.58514  0.93874  0.61554  1.0000
  N   N40       1.0  0.73461  0.65235  0.67710  1.0000
  C   C391      1.0  0.02411  0.61838  0.49733  1.0000
  C   C392      1.0  0.84004  0.61473  0.50075  1.0000
  H   H628      1.0  0.96417  0.67860  0.56484  1.0000
  Fe  Fe77      1.0  0.59561  0.59123  0.56559  1.0000
  S   S160      1.0  0.66417  0.61160  0.53992  1.0000
  C   C393      1.0  0.04306  0.93894  0.51597  1.0000
  H   H629      1.0  0.04434  0.87845  0.69724  1.0000
  C   C394      1.0  0.76506  0.64332  0.64800  1.0000
  S   S161      1.0  0.91664  0.69569  0.50259  1.0000
  S   S162      1.0  0.57913  0.60723  0.61747  1.0000
  C   C395      1.0  0.98072  0.66186  0.54598  1.0000
  Fe  Fe78      1.0  0.89840  0.73588  0.54215  1.0000
  C   C396      1.0  0.68366  0.65312  0.55652  1.0000
  C   C397      1.0  0.73256  0.66509  0.55080  1.0000
  C   C398      1.0  0.75036  0.69658  0.56609  1.0000
  C   C399      1.0  0.66942  0.70534  0.59169  1.0000
  C   C400      1.0  0.65171  0.67367  0.57644  1.0000
  H   H630      1.0  0.75681  0.64979  0.53481  1.0000
  H   H631      1.0  0.78859  0.70499  0.56207  1.0000
  C   C401      1.0  0.01893  0.63703  0.55415  1.0000
  H   H632      1.0  0.61314  0.66553  0.57966  1.0000
  H   H633      1.0  0.04690  0.73863  0.57671  1.0000
  C   C402      1.0  0.72765  0.69210  0.67929  1.0000
  H   H634      1.0  0.66543  0.64289  0.65097  1.0000
  H   H635      1.0  0.85882  0.00755  0.64453  1.0000
  C   C403      1.0  0.99720  0.93932  0.46468  1.0000
  C   C404      1.0  0.98580  0.64309  0.48918  1.0000
  C   C405      1.0  0.88636  0.88742  0.45696  1.0000
  C   C406      1.0  0.83413  0.03195  0.64322  1.0000
  H   H636      1.0  0.66004  0.64223  0.69477  1.0000
  H   H637      1.0  0.84469  0.63765  0.51829  1.0000
  H   H638      1.0  0.04124  0.60204  0.47841  1.0000
  C   C407      1.0  0.68494  0.63479  0.67408  1.0000
  C   C408      1.0  0.02175  0.88235  0.48944  1.0000
  H   H639      1.0  0.64472  0.72107  0.60722  1.0000
  H   H640      1.0  0.00711  0.96824  0.46020  1.0000
  H   H641      1.0  0.05139  0.86712  0.50316  1.0000
  H   H642      1.0  0.61301  0.02977  0.68101  1.0000
  H   H643      1.0  0.76428  0.70656  0.68035  1.0000
  H   H644      1.0  0.03806  0.73007  0.51698  1.0000
  S   S163      1.0  0.56598  0.04309  0.60468  1.0000
  C   C409      1.0  0.80592  0.57701  0.54349  1.0000
  S   S164      1.0  0.88380  0.72453  0.59537  1.0000
  H   H645      1.0  0.98656  0.88067  0.50399  1.0000
  C   C410      1.0  0.80281  0.02038  0.69765  1.0000
  H   H646      1.0  0.80296  0.61792  0.48818  1.0000
  H   H647      1.0  0.74048  0.94082  0.55884  1.0000
  S   S165      1.0  0.95020  0.78236  0.55171  1.0000
  H   H648      1.0  0.76522  0.01173  0.68832  1.0000
  Fe  Fe79      1.0  0.61403  0.99314  0.60090  1.0000
  C   C411      1.0  0.04561  0.85715  0.58363  1.0000
  H   H649      1.0  0.75449  0.91471  0.59498  1.0000
  Fe  Fe80      1.0  0.88082  0.81690  0.54929  1.0000
  C   C412      1.0  0.89015  0.86015  0.48071  1.0000
  H   H650      1.0  0.90300  0.59774  0.54992  1.0000
  C   C413      1.0  0.75415  0.91389  0.56768  1.0000
  N   N41       1.0  0.82574  0.04786  0.67605  1.0000
  S   S166      1.0  0.78232  0.02685  0.55745  1.0000
  C   C414      1.0  0.67019  0.88906  0.56681  1.0000
  H   H651      1.0  0.78125  0.84420  0.55870  1.0000
  C   C415      1.0  0.74215  0.84890  0.56729  1.0000
  H   H652      1.0  0.74267  0.84772  0.59459  1.0000
  S   S167      1.0  0.87485  0.86923  0.52163  1.0000
  H   H653      1.0  0.64497  0.86706  0.55786  1.0000
  N   N42       1.0  0.72229  0.88400  0.55519  1.0000
  H   H654      1.0  0.70810  0.91024  0.50892  1.0000
  H   H655      1.0  0.66834  0.88904  0.59412  1.0000
  S   S168      1.0  0.86403  0.81336  0.60290  1.0000
  H   H656      1.0  0.76716  0.57965  0.53312  1.0000
  H   H657      1.0  0.79381  0.91082  0.55940  1.0000
  H   H658      1.0  0.76182  0.88052  0.50944  1.0000
  H   H659      1.0  0.69948  0.86183  0.50860  1.0000
  H   H660      1.0  0.65392  0.91535  0.55833  1.0000
  S   S169      1.0  0.64055  0.00432  0.55000  1.0000
  C   C416      1.0  0.72288  0.88416  0.51892  1.0000
  H   H661      1.0  0.71896  0.82564  0.55853  1.0000
  C   C417      1.0  0.01214  0.83684  0.60244  1.0000
  S   S170      1.0  0.83057  0.77114  0.53485  1.0000
  H   H662      1.0  0.90084  0.03631  0.69327  1.0000
  H   H663      1.0  0.86941  0.61794  0.48172  1.0000
  Fe  Fe81      1.0  0.59853  0.05669  0.55567  1.0000
  S   S171      1.0  0.68155  0.01754  0.62522  1.0000
  H   H664      1.0  0.97347  0.64564  0.46392  1.0000
  Fe  Fe82      1.0  0.70352  0.03380  0.57472  1.0000
  H   H665      1.0  0.77237  0.61360  0.64649  1.0000
  H   H666      1.0  0.74555  0.65156  0.62493  1.0000
  S   S172      1.0  0.74258  0.75456  0.60754  1.0000
  Fe  Fe83      1.0  0.82005  0.76402  0.58884  1.0000
  H   H667      1.0  0.96046  0.93897  0.47755  1.0000
  H   H668      1.0  0.91105  0.80455  0.49004  1.0000
  C   C418      1.0  0.90803  0.82578  0.47197  1.0000
  N   N43       1.0  0.03664  0.92049  0.48399  1.0000
  Fe  Fe84      1.0  0.92926  0.77480  0.60457  1.0000
  C   C419      1.0  0.03038  0.81251  0.62602  1.0000
  C   C420      1.0  0.04078  0.61535  0.52980  1.0000
  H   H669      1.0  0.97223  0.83904  0.59776  1.0000
  S   S173      1.0  0.98987  0.78032  0.64272  1.0000
  H   H670      1.0  0.92476  0.57668  0.51302  1.0000
  H   H671      1.0  0.03139  0.87422  0.56413  1.0000
  H   H672      1.0  0.00776  0.93825  0.53048  1.0000
  H   H673      1.0  0.01474  0.86799  0.46577  1.0000
  H   H674      1.0  0.87210  0.91397  0.46356  1.0000
  H   H675      1.0  0.68834  0.60476  0.67420  1.0000
  H   H676      1.0  0.03172  0.63463  0.57932  1.0000
  H   H677      1.0  0.70670  0.70277  0.65763  1.0000
  H   H678      1.0  0.86205  0.05588  0.51865  1.0000
  H   H679      1.0  0.93268  0.58744  0.45263  1.0000
  C   C421      1.0  0.87433  0.05956  0.69027  1.0000
  N   N44       1.0  0.84424  0.57924  0.51746  1.0000
  H   H680      1.0  0.81077  0.59899  0.56198  1.0000
  C   C422      1.0  0.63916  0.03868  0.69980  1.0000
  H   H681      1.0  0.82623  0.72110  0.45662  1.0000
  H   H682      1.0  0.82682  0.99570  0.69985  1.0000
  H   H683      1.0  0.90678  0.00197  0.93951  1.0000
  H   H684      1.0  0.58482  0.76527  0.93805  1.0000
  H   H685      1.0  0.93846  0.97904  0.90680  1.0000
  C   C423      1.0  0.70737  0.06105  0.74805  1.0000
  C   C424      1.0  0.04363  0.61345  0.85076  1.0000
  S   S174      1.0  0.99846  0.71036  0.88588  1.0000
  Fe  Fe85      1.0  0.59102  0.68705  0.79246  1.0000
  S   S175      1.0  0.63651  0.65115  0.76027  1.0000
  H   H686      1.0  0.91807  0.66615  0.85992  1.0000
  C   C425      1.0  0.99768  0.66611  0.87005  1.0000
  C   C426      1.0  0.95298  0.65120  0.85776  1.0000
  C   C427      1.0  0.95397  0.61789  0.84095  1.0000
  S   S176      1.0  0.65667  0.87539  0.94491  1.0000
  H   H687      1.0  0.78342  0.59365  0.90841  1.0000
  C   C428      1.0  0.67033  0.62162  0.78598  1.0000
  C   C429      1.0  0.67077  0.62676  0.82007  1.0000
  C   C430      1.0  0.69943  0.60379  0.84036  1.0000
  C   C431      1.0  0.05320  0.81388  0.72700  1.0000
  C   C432      1.0  0.01168  0.94915  0.94236  1.0000
  C   C433      1.0  0.69769  0.59304  0.77235  1.0000
  H   H688      1.0  0.64980  0.64877  0.83091  1.0000
  H   H689      1.0  0.70047  0.60846  0.86655  1.0000
  H   H690      1.0  0.64342  0.02543  0.84795  1.0000
  C   C434      1.0  0.05250  0.65043  0.77501  1.0000
  S   S177      1.0  0.62278  0.72544  0.82953  1.0000
  S   S178      1.0  0.58863  0.69136  0.91467  1.0000
  H   H691      1.0  0.03924  0.97087  0.93669  1.0000
  C   C435      1.0  0.76059  0.63918  0.70701  1.0000
  C   C436      1.0  0.99966  0.59961  0.83661  1.0000
  H   H692      1.0  0.99052  0.67788  0.70614  1.0000
  H   H693      1.0  0.96928  0.01495  0.92872  1.0000
  S   S179      1.0  0.82978  0.06505  0.79195  1.0000
  S   S180      1.0  0.56152  0.82377  0.81131  1.0000
  H   H694      1.0  0.04238  0.84883  0.78484  1.0000
  C   C437      1.0  0.04603  0.88864  0.85489  1.0000
  H   H695      1.0  0.83192  0.04462  0.94708  1.0000
  H   H696      1.0  0.91983  0.60720  0.83027  1.0000
  H   H697      1.0  0.79755  0.03112  0.72290  1.0000
  H   H698      1.0  0.55974  0.89436  0.84336  1.0000
  H   H699      1.0  0.97254  0.68420  0.74827  1.0000
  C   C438      1.0  0.72780  0.57575  0.82649  1.0000
  C   C439      1.0  0.65897  0.01343  0.72208  1.0000
  H   H700      1.0  0.00518  0.93363  0.91931  1.0000
  C   C440      1.0  0.66034  0.04574  0.83109  1.0000
  H   H701      1.0  0.02152  0.65621  0.79247  1.0000
  H   H702      1.0  0.68440  0.92143  0.80750  1.0000
  C   C441      1.0  0.99963  0.61471  0.73915  1.0000
  Fe  Fe86      1.0  0.87204  0.98082  0.84155  1.0000
  Fe  Fe87      1.0  0.56046  0.76298  0.81375  1.0000
  S   S181      1.0  0.88540  0.92845  0.86800  1.0000
  C   C442      1.0  0.69426  0.02439  0.74557  1.0000
  S   S182      1.0  0.72330  0.99161  0.77043  1.0000
  S   S183      1.0  0.79767  0.00752  0.84956  1.0000
  C   C443      1.0  0.57079  0.64840  0.92861  1.0000
  C   C444      1.0  0.94681  0.91290  0.86197  1.0000
  H   H703      1.0  0.91913  0.92083  0.93629  1.0000
  H   H704      1.0  0.59593  0.91475  0.89690  1.0000
  H   H705      1.0  0.71183  0.95268  0.83616  1.0000
  H   H706      1.0  0.93255  0.86026  0.88293  1.0000
  S   S184      1.0  0.86580  0.98005  0.78675  1.0000
  C   C445      1.0  0.96034  0.87792  0.87213  1.0000
  C   C446      1.0  0.78153  0.90412  0.81815  1.0000
  S   S185      1.0  0.91569  0.03279  0.84430  1.0000
  H   H707      1.0  0.76996  0.90113  0.79199  1.0000
  H   H708      1.0  0.72479  0.89774  0.89247  1.0000
  C   C447      1.0  0.58225  0.83857  0.85001  1.0000
  H   H709      1.0  0.64827  0.98516  0.72024  1.0000
  N   N45       1.0  0.73899  0.89786  0.84049  1.0000
  C   C448      1.0  0.72674  0.57047  0.79257  1.0000
  C   C449      1.0  0.00986  0.86562  0.86825  1.0000
  C   C450      1.0  0.71996  0.86059  0.83570  1.0000
  C   C451      1.0  0.69851  0.92428  0.83317  1.0000
  C   C452      1.0  0.60537  0.81373  0.87117  1.0000
  H   H710      1.0  0.78679  0.88309  0.88124  1.0000
  H   H711      1.0  0.70535  0.85635  0.81032  1.0000
  H   H712      1.0  0.84589  0.57669  0.90293  1.0000
  S   S186      1.0  0.96019  0.05331  0.75385  1.0000
  H   H713      1.0  0.74976  0.83996  0.84055  1.0000
  C   C453      1.0  0.81920  0.58736  0.92160  1.0000
  H   H714      1.0  0.81310  0.88493  0.82317  1.0000
  H   H715      1.0  0.68868  0.85480  0.85270  1.0000
  H   H716      1.0  0.60802  0.78563  0.86463  1.0000
  Fe  Fe88      1.0  0.79405  0.01041  0.79495  1.0000
  C   C454      1.0  0.75597  0.90243  0.87489  1.0000
  H   H717      1.0  0.66604  0.92065  0.84981  1.0000
  C   C455      1.0  0.62436  0.86171  0.90967  1.0000
  H   H718      1.0  0.64803  0.80625  0.91563  1.0000
  H   H719      1.0  0.69654  0.58830  0.74617  1.0000
  H   H720      1.0  0.77064  0.93026  0.87945  1.0000
  H   H721      1.0  0.79671  0.93194  0.82125  1.0000
  C   C456      1.0  0.59845  0.88652  0.88971  1.0000
  H   H722      1.0  0.97258  0.96272  0.84019  1.0000
  H   H723      1.0  0.64574  0.03992  0.80600  1.0000
  C   C457      1.0  0.98282  0.93569  0.84811  1.0000
  Fe  Fe89      1.0  0.90250  0.03458  0.78973  1.0000
  C   C458      1.0  0.57810  0.87503  0.85947  1.0000
  C   C459      1.0  0.62748  0.82537  0.90044  1.0000
  H   H724      1.0  0.04751  0.79541  0.74823  1.0000
  Fe  Fe90      1.0  0.56460  0.70169  0.86268  1.0000
  H   H725      1.0  0.02014  0.83851  0.87605  1.0000
  H   H726      1.0  0.02022  0.58908  0.74493  1.0000
  C   C460      1.0  0.04589  0.86613  0.76258  1.0000
  H   H727      1.0  0.70160  0.04103  0.83088  1.0000
  H   H728      1.0  0.73910  0.64623  0.72948  1.0000
  H   H729      1.0  0.83462  0.61341  0.93113  1.0000
  H   H730      1.0  0.01594  0.81851  0.71506  1.0000
  C   C461      1.0  0.03259  0.92370  0.84492  1.0000
  C   C462      1.0  0.94384  0.99124  0.93149  1.0000
  H   H731      1.0  0.96837  0.61681  0.75713  1.0000
  N   N46       1.0  0.03330  0.64653  0.74109  1.0000
  Fe  Fe91      1.0  0.84004  0.05969  0.84629  1.0000
  H   H732      1.0  0.02941  0.70416  0.73330  1.0000
  C   C463      1.0  0.00512  0.67964  0.73175  1.0000
  H   H733      1.0  0.00727  0.87195  0.75330  1.0000
  C   C464      1.0  0.04258  0.64659  0.86750  1.0000
  H   H734      1.0  0.76528  0.60909  0.70666  1.0000
  H   H735      1.0  0.98278  0.61153  0.71426  1.0000
  H   H736      1.0  0.79869  0.65119  0.70961  1.0000
  H   H737      1.0  0.55491  0.59849  0.70268  1.0000
  H   H738      1.0  0.70584  0.69974  0.70151  1.0000
  C   C465      1.0  0.58323  0.59785  0.96606  1.0000
  Fe  Fe92      1.0  0.02865  0.56874  0.14915  1.0000
  H   H739      1.0  0.58048  0.75063  0.97966  1.0000
  C   C466      1.0  0.92748  0.93503  0.95983  1.0000
  H   H740      1.0  0.99103  0.96375  0.00518  1.0000
  H   H741      1.0  0.02961  0.93022  0.96033  1.0000
  S   S187      1.0  0.99841  0.60319  0.19005  1.0000
  C   C467      1.0  0.97397  0.98272  0.98694  1.0000
  H   H742      1.0  0.89477  0.96698  0.12912  1.0000
  H   H743      1.0  0.89281  0.06566  0.04315  1.0000
  S   S188      1.0  0.01609  0.58130  0.09578  1.0000
  N   N47       1.0  0.96428  0.96453  0.95516  1.0000
  C   C468      1.0  0.81907  0.04182  0.04173  1.0000
  H   H744      1.0  0.59039  0.79799  0.97058  1.0000
  H   H745      1.0  0.62770  0.64669  0.96648  1.0000
  H   H746      1.0  0.82934  0.58496  0.08689  1.0000
  C   C469      1.0  0.86779  0.05639  0.99349  1.0000
  Fe  Fe93      1.0  0.63067  0.92840  0.96524  1.0000
  Fe  Fe94      1.0  0.66326  0.99044  0.00858  1.0000
  S   S189      1.0  0.66509  0.98236  0.95398  1.0000
  N   N48       1.0  0.91556  0.01842  0.15004  1.0000
  C   C470      1.0  0.82856  0.04363  0.97353  1.0000
  H   H747      1.0  0.74511  0.57767  0.13902  1.0000
  H   H748      1.0  0.60350  0.58555  0.98631  1.0000
  H   H749      1.0  0.86026  0.05061  0.17517  1.0000
  S   S190      1.0  0.58597  0.01516  0.00937  1.0000
  H   H750      1.0  0.63594  0.05339  0.06581  1.0000
  H   H751      1.0  0.87506  0.57907  0.97662  1.0000
  H   H752      1.0  0.94178  0.91435  0.97751  1.0000
  H   H753      1.0  0.91429  0.97803  0.18827  1.0000
  H   H754      1.0  0.89114  0.94569  0.96934  1.0000
  C   C471      1.0  0.77979  0.02904  0.02184  1.0000
  S   S191      1.0  0.72501  0.01300  0.04059  1.0000
  C   C472      1.0  0.86286  0.05572  0.02760  1.0000
  H   H755      1.0  0.83905  0.00635  0.16299  1.0000
  S   S192      1.0  0.63555  0.93456  0.01973  1.0000
  H   H756      1.0  0.00006  0.00607  0.98414  1.0000
  H   H757      1.0  0.75420  0.02070  0.97219  1.0000
  H   H758      1.0  0.93863  0.99376  0.99759  1.0000
  C   C473      1.0  0.78448  0.03011  0.98770  1.0000
  C   C474      1.0  0.77443  0.57571  0.97183  1.0000
  Fe  Fe95      1.0  0.55829  0.95807  0.01532  1.0000
  C   C475      1.0  0.86289  0.02966  0.15555  1.0000
  C   C476      1.0  0.57011  0.77303  0.96257  1.0000
  H   H759      1.0  0.81549  0.04100  0.06814  1.0000
  H   H760      1.0  0.98579  0.04314  0.13657  1.0000
  C   C477      1.0  0.91721  0.99153  0.12312  1.0000
  H   H761      1.0  0.73800  0.58244  0.95963  1.0000
  H   H762      1.0  0.78851  0.60082  0.98398  1.0000
  Fe  Fe96      1.0  0.58542  0.00253  0.95559  1.0000
  C   C478      1.0  0.93636  0.00212  0.18040  1.0000
  H   H763      1.0  0.84571  0.04146  0.13295  1.0000
  H   H764      1.0  0.95645  0.98252  0.11820  1.0000
  H   H765      1.0  0.90166  0.00308  0.09988  1.0000
  C   C479      1.0  0.59683  0.63242  0.95488  1.0000
  H   H766      1.0  0.97598  0.99308  0.17717  1.0000
  C   C480      1.0  0.94578  0.05045  0.14102  1.0000
  H   H767      1.0  0.93105  0.06351  0.11829  1.0000
  H   H768      1.0  0.66634  0.56886  0.17184  1.0000
