data_image0
_chemical_formula_structural       SH2SHSC2HFeC2HC2SHSCH2SH3FeSC4HNC2HCHC2HCH3CH2CH3CNH2SCSCH2FeS2H2FeHSCHCH3CH3C2H4FeH3CHCHCHCSH3C5HCFeS2HCSHCSHC4H5SNFeHSCH2CHC2H2FeH2CFeHCFeCS2H2C3HCH2NCH5FeHCH6NH3FeS2C4SH3CHCH2CH6CH2CH2FeS2H2C6H4C2NHCNCFeCH2C3HFeCS2FeH4CSCH3CHNFeHCSH3FeS2HCH2SH2C2HCH2C2SH3CH2SC7HNH2CSCNSHCH5CH2FeHFeH2NHCHFeNSHFeS2FeSH2C6H7CHSHSH3CSH5CH2SCH3C2S2H3CFeH2SHCH2CHCH4SFeSFeCH3CH3C2H2CHCNH4C2SFeCH3C2SHFeSHC7HCHS2H7CFeCH5NSHSH2CH2CHSH3CHC3H2CNH2CHC2H2NH2CH3CH2SHFeCH3CHSCH3C3H3C3HSH3CHSCFeSFeH5C3HCSC2HCHCHC2H2NHFeNFeS2CFeS2CSCHCH3FeHCHSH2CH3FeHFeSHSFeSFeS2HC3HNC4H11SHCSC2HSFeS2HCHC6H2CSHSHCHC2H2C2HCNCSHSHFeHSHC2HC2H8NH2CSNHCHC3H3NHCHFeC2H2FeHC2SH4SFe2HSHSC6H5C2H3S2CHSH5CH3FeCHFeS2H2C2HC3HSCH2CH5NH2CH3CHCHCH2
_chemical_formula_sum              "S96 H384 C240 Fe48 N24"
_cell_length_a       43.2407
_cell_length_b       35.9926
_cell_length_c       27.5075
_cell_angle_alpha    89.3196
_cell_angle_beta     102.388
_cell_angle_gamma    90.1407

_space_group_name_H-M_alt    "P 1"
_space_group_IT_number       1

loop_
  _space_group_symop_operation_xyz
  'x, y, z'

loop_
  _atom_site_type_symbol
  _atom_site_label
  _atom_site_symmetry_multiplicity
  _atom_site_fract_x
  _atom_site_fract_y
  _atom_site_fract_z
  _atom_site_occupancy
  S   S1        1.0  0.16732  0.03870  0.14067  1.0000
  H   H1        1.0  0.13883  0.10106  0.05677  1.0000
  H   H2        1.0  0.03959  0.05966  0.08325  1.0000
  S   S2        1.0  0.21723  0.01959  0.28287  1.0000
  H   H3        1.0  0.26374  0.06257  0.24425  1.0000
  S   S3        1.0  0.24298  0.01457  0.15517  1.0000
  C   C1        1.0  0.25670  0.03199  0.30871  1.0000
  C   C2        1.0  0.04130  0.03135  0.07131  1.0000
  H   H4        1.0  0.10232  0.08080  0.06488  1.0000
  Fe  Fe1       1.0  0.20429  0.03732  0.09396  1.0000
  C   C3        1.0  0.06801  0.47366  0.50624  1.0000
  C   C4        1.0  0.27435  0.05334  0.28162  1.0000
  H   H5        1.0  0.09114  0.47875  0.49846  1.0000
  C   C5        1.0  0.11336  0.09739  0.03876  1.0000
  C   C6        1.0  0.27053  0.02073  0.35749  1.0000
  S   S4        1.0  0.16252  0.46587  0.52965  1.0000
  H   H6        1.0  0.09075  0.02549  0.10725  1.0000
  S   S5        1.0  0.20555  0.09078  0.04996  1.0000
  C   C7        1.0  0.04245  0.46435  0.46739  1.0000
  H   H7        1.0  0.04608  0.46227  0.42979  1.0000
  H   H8        1.0  0.10213  0.12535  0.03498  1.0000
  S   S6        1.0  0.24867  0.17802  0.75774  1.0000
  H   H9        1.0  0.26073  0.03542  0.65164  1.0000
  H   H10       1.0  0.24505  0.09529  0.72275  1.0000
  H   H11       1.0  0.21170  0.15162  0.98504  1.0000
  Fe  Fe2       1.0  0.25597  0.23646  0.78585  1.0000
  S   S7        1.0  0.22106  0.28358  0.77796  1.0000
  C   C8        1.0  0.12496  0.39701  0.67663  1.0000
  C   C9        1.0  0.22478  0.09414  0.99974  1.0000
  C   C10       1.0  0.22393  0.12809  0.97377  1.0000
  C   C11       1.0  0.23870  0.13177  0.93315  1.0000
  H   H12       1.0  0.11534  0.02429  0.02298  1.0000
  N   N1        1.0  0.10960  0.07905  0.99002  1.0000
  C   C12       1.0  0.24053  0.06383  0.98496  1.0000
  C   C13       1.0  0.22302  0.36012  0.64471  1.0000
  H   H13       1.0  0.23767  0.15793  0.91308  1.0000
  C   C14       1.0  0.27922  0.05464  0.67160  1.0000
  H   H14       1.0  0.12248  0.08913  0.91968  1.0000
  C   C15       1.0  0.23248  0.29946  0.68535  1.0000
  C   C16       1.0  0.22220  0.31280  0.72673  1.0000
  H   H15       1.0  0.23963  0.27074  0.68440  1.0000
  C   C17       1.0  0.12793  0.33625  0.64152  1.0000
  H   H16       1.0  0.24008  0.31232  0.61201  1.0000
  H   H17       1.0  0.06961  0.36228  0.64098  1.0000
  H   H18       1.0  0.15099  0.39745  0.69138  1.0000
  C   C18       1.0  0.25057  0.06621  0.73617  1.0000
  H   H19       1.0  0.11300  0.13020  0.95024  1.0000
  H   H20       1.0  0.24133  0.03759  0.00481  1.0000
  C   C19       1.0  0.25447  0.10147  0.91841  1.0000
  H   H21       1.0  0.15420  0.33530  0.65403  1.0000
  H   H22       1.0  0.07446  0.35911  0.57777  1.0000
  H   H23       1.0  0.15758  0.39265  0.60461  1.0000
  C   C20       1.0  0.23265  0.32300  0.64431  1.0000
  N   N2        1.0  0.11650  0.37480  0.63081  1.0000
  H   H24       1.0  0.27170  0.39950  0.74860  1.0000
  H   H25       1.0  0.11777  0.32313  0.67144  1.0000
  S   S8        1.0  0.09473  0.48841  0.60451  1.0000
  C   C21       1.0  0.12435  0.10234  0.95656  1.0000
  S   S9        1.0  0.27356  0.10505  0.86804  1.0000
  C   C22       1.0  0.21268  0.34993  0.72729  1.0000
  H   H26       1.0  0.11382  0.38570  0.70657  1.0000
  H   H27       1.0  0.25976  0.36295  0.82018  1.0000
  Fe  Fe3       1.0  0.20325  0.44698  0.59019  1.0000
  S   S10       1.0  0.18302  0.47025  0.65173  1.0000
  S   S11       1.0  0.22189  0.38833  0.59155  1.0000
  H   H28       1.0  0.20490  0.36046  0.75937  1.0000
  H   H29       1.0  0.07182  0.06113  0.93052  1.0000
  Fe  Fe4       1.0  0.14442  0.49302  0.59101  1.0000
  H   H30       1.0  0.27327  0.08306  0.65586  1.0000
  S   S12       1.0  0.23349  0.49680  0.58284  1.0000
  C   C23       1.0  0.21361  0.37366  0.68673  1.0000
  H   H31       1.0  0.12626  0.37480  0.55721  1.0000
  C   C24       1.0  0.25534  0.06753  0.94436  1.0000
  H   H32       1.0  0.25107  0.06571  0.77682  1.0000
  H   H33       1.0  0.20711  0.40237  0.68815  1.0000
  H   H34       1.0  0.07250  0.40374  0.60529  1.0000
  C   C25       1.0  0.12529  0.04235  0.99697  1.0000
  H   H35       1.0  0.28029  0.50452  0.67612  1.0000
  H   H36       1.0  0.06391  0.05578  0.99138  1.0000
  H   H37       1.0  0.11714  0.42643  0.66967  1.0000
  C   C26       1.0  0.08172  0.37487  0.61295  1.0000
  C   C27       1.0  0.07555  0.07413  0.96782  1.0000
  H   H38       1.0  0.15002  0.10684  0.97257  1.0000
  H   H39       1.0  0.15110  0.04519  0.01275  1.0000
  H   H40       1.0  0.23062  0.04830  0.71761  1.0000
  H   H41       1.0  0.12252  0.02734  0.96120  1.0000
  Fe  Fe5       1.0  0.27854  0.16081  0.83166  1.0000
  H   H42       1.0  0.06266  0.10111  0.96351  1.0000
  H   H43       1.0  0.12272  0.41999  0.58219  1.0000
  H   H44       1.0  0.12162  0.31861  0.60789  1.0000
  C   C28       1.0  0.13140  0.39125  0.59201  1.0000
  H   H45       1.0  0.26754  0.04398  0.93311  1.0000
  C   C29       1.0  0.06341  0.47689  0.55478  1.0000
  H   H46       1.0  0.27690  0.39945  0.86177  1.0000
  C   C30       1.0  0.03326  0.47046  0.56435  1.0000
  H   H47       1.0  0.23845  0.65062  0.37906  1.0000
  C   C31       1.0  0.27613  0.59868  0.47823  1.0000
  S   S13       1.0  0.19015  0.54855  0.45571  1.0000
  H   H48       1.0  0.25978  0.58820  0.33040  1.0000
  H   H49       1.0  0.12140  0.86964  0.11514  1.0000
  H   H50       1.0  0.24823  0.90871  0.26744  1.0000
  C   C32       1.0  0.25138  0.57443  0.48287  1.0000
  C   C33       1.0  0.22188  0.57781  0.45027  1.0000
  C   C34       1.0  0.21746  0.60500  0.41243  1.0000
  C   C35       1.0  0.24220  0.62929  0.40782  1.0000
  C   C36       1.0  0.27235  0.83785  0.15569  1.0000
  H   H51       1.0  0.19468  0.60762  0.38700  1.0000
  C   C37       1.0  0.14664  0.86459  0.11399  1.0000
  Fe  Fe6       1.0  0.22465  0.95824  0.12856  1.0000
  S   S14       1.0  0.18922  0.95482  0.17652  1.0000
  S   S15       1.0  0.25742  0.90979  0.12593  1.0000
  H   H52       1.0  0.25511  0.55307  0.51150  1.0000
  C   C38       1.0  0.26884  0.92779  0.27089  1.0000
  S   S16       1.0  0.23308  0.75548  0.22462  1.0000
  H   H53       1.0  0.19693  0.87003  0.07192  1.0000
  C   C39       1.0  0.25179  0.86774  0.15666  1.0000
  S   S17       1.0  0.10918  0.95198  0.08059  1.0000
  H   H54       1.0  0.19514  0.82354  0.09563  1.0000
  C   C40       1.0  0.24163  0.79887  0.20061  1.0000
  C   C41       1.0  0.22138  0.82884  0.20221  1.0000
  C   C42       1.0  0.22665  0.86317  0.18077  1.0000
  C   C43       1.0  0.07269  0.97586  0.06848  1.0000
  H   H55       1.0  0.24915  0.53996  0.32447  1.0000
  H   H56       1.0  0.20156  0.82540  0.22011  1.0000
  H   H57       1.0  0.21074  0.88563  0.18217  1.0000
  H   H58       1.0  0.14369  0.79251  0.08991  1.0000
  H   H59       1.0  0.27186  0.93452  0.23254  1.0000
  S   S18       1.0  0.19004  0.98108  0.06208  1.0000
  N   N3        1.0  0.14975  0.84862  0.06602  1.0000
  Fe  Fe7       1.0  0.15543  0.98107  0.11236  1.0000
  H   H60       1.0  0.26855  0.55779  0.38376  1.0000
  S   S19       1.0  0.27907  0.66529  0.28930  1.0000
  C   C44       1.0  0.26744  0.80358  0.17794  1.0000
  H   H61       1.0  0.15701  0.84600  0.14590  1.0000
  H   H62       1.0  0.10771  0.81542  0.05947  1.0000
  C   C45       1.0  0.27153  0.62626  0.44089  1.0000
  H   H63       1.0  0.15883  0.89189  0.12019  1.0000
  C   C46       1.0  0.18362  0.84332  0.06579  1.0000
  C   C47       1.0  0.13333  0.81238  0.05936  1.0000
  H   H64       1.0  0.27273  0.88262  0.35048  1.0000
  H   H65       1.0  0.27860  0.53329  0.25751  1.0000
  Fe  Fe8       1.0  0.27654  0.72579  0.26670  1.0000
  H   H66       1.0  0.26243  0.95405  0.28731  1.0000
  H   H67       1.0  0.25693  0.00430  0.37864  1.0000
  C   C48       1.0  0.26773  0.55961  0.34311  1.0000
  Fe  Fe9       1.0  0.19085  0.51827  0.52832  1.0000
  H   H68       1.0  0.23774  0.64171  0.52597  1.0000
  C   C49       1.0  0.07030  0.01223  0.08453  1.0000
  Fe  Fe10      1.0  0.20535  0.01216  0.19974  1.0000
  C   C50       1.0  0.04570  0.95825  0.04081  1.0000
  S   S20       1.0  0.16967  0.54692  0.58559  1.0000
  S   S21       1.0  0.23528  0.55381  0.70678  1.0000
  H   H69       1.0  0.13692  0.86312  0.98814  1.0000
  H   H70       1.0  0.26875  0.55972  0.80869  1.0000
  C   C51       1.0  0.27096  0.53375  0.73930  1.0000
  C   C52       1.0  0.26128  0.60130  0.61056  1.0000
  C   C53       1.0  0.22349  0.63760  0.64270  1.0000
  H   H71       1.0  0.23792  0.63451  0.68130  1.0000
  C   C54       1.0  0.26618  0.66801  0.61380  1.0000
  H   H72       1.0  0.20610  0.61433  0.63725  1.0000
  H   H73       1.0  0.20996  0.66401  0.64056  1.0000
  N   N4        1.0  0.24355  0.63669  0.60545  1.0000
  C   C55       1.0  0.22331  0.63983  0.55487  1.0000
  H   H74       1.0  0.20817  0.66510  0.55065  1.0000
  H   H75       1.0  0.24496  0.57711  0.60342  1.0000
  H   H76       1.0  0.04731  0.93002  0.02858  1.0000
  H   H77       1.0  0.25368  0.69521  0.61014  1.0000
  H   H78       1.0  0.13521  0.79942  0.02358  1.0000
  Fe  Fe11      1.0  0.21019  0.52138  0.64052  1.0000
  H   H79       1.0  0.10996  0.87958  0.02480  1.0000
  C   C56       1.0  0.13539  0.87428  0.02507  1.0000
  H   H80       1.0  0.18693  0.83202  0.02979  1.0000
  H   H81       1.0  0.26912  0.99575  0.72750  1.0000
  H   H82       1.0  0.27738  0.59994  0.58412  1.0000
  H   H83       1.0  0.27595  0.59740  0.64888  1.0000
  H   H84       1.0  0.20737  0.61532  0.54589  1.0000
  H   H85       1.0  0.14745  0.90183  0.02919  1.0000
  N   N5        1.0  0.35768  0.15173  0.48127  1.0000
  H   H86       1.0  0.32314  0.18763  0.50214  1.0000
  H   H87       1.0  0.32121  0.11803  0.43703  1.0000
  H   H88       1.0  0.31867  0.08135  0.28289  1.0000
  Fe  Fe12      1.0  0.38342  0.03526  0.44622  1.0000
  S   S22       1.0  0.42635  0.05802  0.49842  1.0000
  S   S23       1.0  0.35761  0.06837  0.37993  1.0000
  C   C57       1.0  0.33645  0.11909  0.47521  1.0000
  C   C58       1.0  0.30185  0.03076  0.37911  1.0000
  C   C59       1.0  0.31921  0.05293  0.35245  1.0000
  C   C60       1.0  0.30540  0.06414  0.30367  1.0000
  S   S24       1.0  0.38878  0.48560  0.05125  1.0000
  H   H89       1.0  0.39356  0.17506  0.44644  1.0000
  H   H90       1.0  0.29158  0.49212  0.33264  1.0000
  H   H91       1.0  0.35365  0.21129  0.47869  1.0000
  C   C61       1.0  0.30888  0.51344  0.35057  1.0000
  H   H92       1.0  0.31087  0.51108  0.39155  1.0000
  C   C62       1.0  0.37748  0.15065  0.44367  1.0000
  H   H93       1.0  0.36269  0.15013  0.40513  1.0000
  H   H94       1.0  0.39245  0.12520  0.44810  1.0000
  C   C63       1.0  0.33843  0.18604  0.47434  1.0000
  H   H95       1.0  0.35017  0.09272  0.48096  1.0000
  H   H96       1.0  0.31217  0.02207  0.41675  1.0000
  H   H97       1.0  0.32260  0.18727  0.43663  1.0000
  H   H98       1.0  0.34690  0.13025  0.05571  1.0000
  H   H99       1.0  0.33237  0.50627  0.34279  1.0000
  H   H100      1.0  0.32061  0.11930  0.50212  1.0000
  C   C64       1.0  0.37828  0.15114  0.53172  1.0000
  H   H101      1.0  0.35757  0.17683  0.07557  1.0000
  H   H102      1.0  0.38141  0.15175  0.04099  1.0000
  C   C65       1.0  0.35662  0.15697  0.04455  1.0000
  H   H103      1.0  0.34585  0.37368  0.87414  1.0000
  H   H104      1.0  0.36066  0.13869  0.95164  1.0000
  Fe  Fe13      1.0  0.32455  0.22501  0.83175  1.0000
  S   S25       1.0  0.36859  0.25305  0.87390  1.0000
  S   S26       1.0  0.32461  0.16587  0.80702  1.0000
  H   H105      1.0  0.34504  0.07026  0.57150  1.0000
  H   H106      1.0  0.36428  0.15411  0.56101  1.0000
  C   C66       1.0  0.32701  0.13402  0.65201  1.0000
  C   C67       1.0  0.35520  0.13270  0.68803  1.0000
  C   C68       1.0  0.37993  0.10932  0.68153  1.0000
  C   C69       1.0  0.37653  0.08710  0.63916  1.0000
  C   C70       1.0  0.34802  0.08778  0.60375  1.0000
  C   C71       1.0  0.32344  0.11148  0.60995  1.0000
  H   H107      1.0  0.35822  0.15015  0.72045  1.0000
  H   H108      1.0  0.40196  0.10883  0.70907  1.0000
  H   H109      1.0  0.48396  0.45539  0.98322  1.0000
  H   H110      1.0  0.30188  0.10777  0.73701  1.0000
  C   C72       1.0  0.36350  0.29060  0.91195  1.0000
  C   C73       1.0  0.33478  0.29623  0.92644  1.0000
  N   N6        1.0  0.28106  0.05370  0.72589  1.0000
  H   H111      1.0  0.31486  0.27837  0.91295  1.0000
  C   C74       1.0  0.30658  0.07873  0.75063  1.0000
  N   N7        1.0  0.33710  0.17169  0.99754  1.0000
  C   C75       1.0  0.50624  0.46893  0.99846  1.0000
  Fe  Fe14      1.0  0.37402  0.48768  0.90716  1.0000
  C   C76       1.0  0.33646  0.14453  0.95745  1.0000
  H   H112      1.0  0.33146  0.47861  0.72184  1.0000
  H   H113      1.0  0.41122  0.31051  0.91814  1.0000
  C   C77       1.0  0.38893  0.31465  0.92921  1.0000
  C   C78       1.0  0.35080  0.20703  0.98405  1.0000
  C   C79       1.0  0.31763  0.49597  0.74099  1.0000
  H   H114      1.0  0.30221  0.04665  0.66254  1.0000
  Fe  Fe15      1.0  0.29499  0.18607  0.73455  1.0000
  C   C80       1.0  0.35720  0.34907  0.97624  1.0000
  S   S27       1.0  0.29550  0.16290  0.65867  1.0000
  S   S28       1.0  0.40847  0.05946  0.63110  1.0000
  Fe  Fe16      1.0  0.40578  0.03041  0.55805  1.0000
  H   H115      1.0  0.31140  0.41525  0.75084  1.0000
  H   H116      1.0  0.29088  0.35261  0.87286  1.0000
  H   H117      1.0  0.29336  0.15205  0.01407  1.0000
  H   H118      1.0  0.32194  0.32387  0.81715  1.0000
  C   C81       1.0  0.31251  0.34576  0.78889  1.0000
  S   S29       1.0  0.29979  0.24606  0.75653  1.0000
  C   C82       1.0  0.33566  0.39438  0.84489  1.0000
  H   H119      1.0  0.37540  0.20333  0.97860  1.0000
  H   H120      1.0  0.32567  0.11767  0.96569  1.0000
  H   H121      1.0  0.32997  0.07064  0.74320  1.0000
  C   C83       1.0  0.33189  0.32482  0.95943  1.0000
  H   H122      1.0  0.32222  0.15503  0.92137  1.0000
  N   N8        1.0  0.30607  0.38067  0.81273  1.0000
  Fe  Fe17      1.0  0.42395  0.49685  0.00330  1.0000
  H   H123      1.0  0.30983  0.32861  0.97134  1.0000
  C   C84       1.0  0.50685  0.50034  0.02807  1.0000
  S   S30       1.0  0.36441  0.48334  0.82356  1.0000
  H   H124      1.0  0.35142  0.22860  0.01294  1.0000
  H   H125      1.0  0.30145  0.11212  0.58235  1.0000
  H   H126      1.0  0.35402  0.40065  0.82311  1.0000
  Fe  Fe18      1.0  0.37071  0.44043  0.99669  1.0000
  S   S31       1.0  0.40878  0.44800  0.95341  1.0000
  S   S32       1.0  0.35283  0.38484  0.01709  1.0000
  H   H127      1.0  0.33679  0.21856  0.94850  1.0000
  C   C85       1.0  0.38565  0.34418  0.96069  1.0000
  H   H128      1.0  0.40537  0.36265  0.97386  1.0000
  H   H129      1.0  0.30871  0.07883  0.79171  1.0000
  S   S33       1.0  0.33504  0.47710  0.94743  1.0000
  H   H130      1.0  0.33034  0.35003  0.76557  1.0000
  H   H131      1.0  0.33160  0.42046  0.86397  1.0000
  C   C86       1.0  0.30446  0.17821  0.00397  1.0000
  C   C87       1.0  0.29383  0.40894  0.77402  1.0000
  H   H132      1.0  0.28903  0.18917  0.96910  1.0000
  C   C88       1.0  0.28231  0.37367  0.84319  1.0000
  H   H133      1.0  0.28858  0.43558  0.79084  1.0000
  H   H134      1.0  0.39178  0.12459  0.53947  1.0000
  C   C89       1.0  0.32867  0.50344  0.79164  1.0000
  C   C90       1.0  0.28861  0.51060  0.71506  1.0000
  S   S34       1.0  0.28101  0.21836  0.86275  1.0000
  H   H135      1.0  0.39580  0.17421  0.53668  1.0000
  H   H136      1.0  0.29062  0.33458  0.76446  1.0000
  H   H137      1.0  0.28961  0.01401  0.78622  1.0000
  C   C91       1.0  0.28795  0.01545  0.74524  1.0000
  H   H138      1.0  0.30394  0.19873  0.03375  1.0000
  H   H139      1.0  0.40120  0.67067  0.06937  1.0000
  S   S35       1.0  0.35242  0.68433  0.34687  1.0000
  C   C92       1.0  0.41666  0.57915  0.09473  1.0000
  C   C93       1.0  0.34030  0.60247  0.18254  1.0000
  C   C94       1.0  0.32414  0.62621  0.14507  1.0000
  C   C95       1.0  0.31957  0.61576  0.09491  1.0000
  C   C96       1.0  0.33111  0.58162  0.08209  1.0000
  C   C97       1.0  0.34625  0.55741  0.11977  1.0000
  C   C98       1.0  0.35105  0.56794  0.16980  1.0000
  H   H140      1.0  0.52165  0.91246  0.52471  1.0000
  N   N9        1.0  0.48004  0.87930  0.49850  1.0000
  H   H141      1.0  0.31566  0.65283  0.15465  1.0000
  H   H142      1.0  0.36340  0.54937  0.19868  1.0000
  C   C99       1.0  0.29267  0.90248  0.35191  1.0000
  S   S36       1.0  0.34854  0.61519  0.24554  1.0000
  C   C100      1.0  0.32443  0.93749  0.30532  1.0000
  N   N10       1.0  0.29891  0.55118  0.33205  1.0000
  S   S37       1.0  0.29683  0.74607  0.34378  1.0000
  H   H143      1.0  0.29193  0.84100  0.13719  1.0000
  C   C101      1.0  0.32253  0.57849  0.35693  1.0000
  H   H144      1.0  0.32899  0.94449  0.26795  1.0000
  H   H145      1.0  0.31953  0.54669  0.26778  1.0000
  H   H146      1.0  0.44505  0.63179  0.15671  1.0000
  H   H147      1.0  0.37585  0.63169  0.04952  1.0000
  H   H148      1.0  0.34667  0.92581  0.32846  1.0000
  C   C102      1.0  0.39627  0.64139  0.07860  1.0000
  H   H149      1.0  0.47246  0.61382  0.12199  1.0000
  H   H150      1.0  0.32493  0.57800  0.39806  1.0000
  Fe  Fe19      1.0  0.30411  0.68555  0.36425  1.0000
  H   H151      1.0  0.32712  0.86275  0.30033  1.0000
  Fe  Fe20      1.0  0.44859  0.00252  0.49196  1.0000
  H   H152      1.0  0.43723  0.56019  0.09750  1.0000
  H   H153      1.0  0.30763  0.63450  0.06589  1.0000
  N   N11       1.0  0.42429  0.61738  0.08119  1.0000
  H   H154      1.0  0.50535  0.82939  0.52604  1.0000
  C   C103      1.0  0.49820  0.84591  0.49097  1.0000
  H   H155      1.0  0.38833  0.64124  0.11457  1.0000
  Fe  Fe21      1.0  0.32720  0.66694  0.27067  1.0000
  N   N12       1.0  0.29784  0.91101  0.30156  1.0000
  S   S38       1.0  0.47210  0.51822  0.04261  1.0000
  H   H156      1.0  0.39686  0.56750  0.06635  1.0000
  Fe  Fe22      1.0  0.38853  0.96033  0.49787  1.0000
  S   S39       1.0  0.36604  0.90391  0.49902  1.0000
  S   S40       1.0  0.40743  0.98252  0.43375  1.0000
  Fe  Fe23      1.0  0.34294  0.74281  0.31946  1.0000
  S   S41       1.0  0.37816  0.78988  0.33089  1.0000
  H   H157      1.0  0.30949  0.88175  0.24007  1.0000
  H   H158      1.0  0.31939  0.96403  0.32262  1.0000
  C   C104      1.0  0.36906  0.87270  0.45156  1.0000
  C   C105      1.0  0.35473  0.83770  0.45078  1.0000
  C   C106      1.0  0.35724  0.81209  0.41370  1.0000
  C   C107      1.0  0.37427  0.82134  0.37744  1.0000
  C   C108      1.0  0.38863  0.85630  0.37824  1.0000
  C   C109      1.0  0.38584  0.88199  0.41498  1.0000
  H   H159      1.0  0.34180  0.83025  0.47907  1.0000
  H   H160      1.0  0.34656  0.78493  0.41386  1.0000
  H   H161      1.0  0.40179  0.86354  0.35015  1.0000
  H   H162      1.0  0.39699  0.90869  0.41516  1.0000
  H   H163      1.0  0.40954  0.57818  0.13125  1.0000
  H   H164      1.0  0.45697  0.92530  0.45525  1.0000
  H   H165      1.0  0.45666  0.88303  0.42117  1.0000
  C   C110      1.0  0.47110  0.90025  0.45103  1.0000
  H   H166      1.0  0.31577  0.60729  0.34420  1.0000
  S   S42       1.0  0.32240  0.72553  0.24096  1.0000
  H   H167      1.0  0.48397  0.82742  0.46240  1.0000
  S   S43       1.0  0.30273  0.65680  0.43741  1.0000
  H   H168      1.0  0.29895  0.59607  0.50355  1.0000
  H   H169      1.0  0.28950  0.58149  0.26256  1.0000
  H   H170      1.0  0.31406  0.88963  0.37595  1.0000
  C   C111      1.0  0.30542  0.87635  0.27815  1.0000
  S   S44       1.0  0.49705  0.99232  0.47611  1.0000
  H   H171      1.0  0.35468  0.53079  0.11036  1.0000
  H   H172      1.0  0.45745  0.66038  0.11037  1.0000
  H   H173      1.0  0.28581  0.85574  0.27456  1.0000
  H   H174      1.0  0.34627  0.57347  0.34865  1.0000
  H   H175      1.0  0.28711  0.92806  0.37079  1.0000
  C   C112      1.0  0.45102  0.63152  0.11928  1.0000
  H   H176      1.0  0.49233  0.91028  0.43790  1.0000
  H   H177      1.0  0.52015  0.85357  0.47815  1.0000
  S   S45       1.0  0.36113  0.01188  0.50644  1.0000
  C   C113      1.0  0.29647  0.55314  0.27764  1.0000
  H   H178      1.0  0.43596  0.84939  0.48804  1.0000
  H   H179      1.0  0.28300  0.78046  0.17599  1.0000
  H   H180      1.0  0.43641  0.89249  0.52020  1.0000
  C   C114      1.0  0.45112  0.86798  0.51537  1.0000
  C   C115      1.0  0.43313  0.61722  0.03216  1.0000
  S   S46       1.0  0.39256  0.53729  0.95279  1.0000
  S   S47       1.0  0.32835  0.57127  0.01882  1.0000
  H   H181      1.0  0.41307  0.60763  0.00248  1.0000
  H   H182      1.0  0.45339  0.59810  0.03220  1.0000
  H   H183      1.0  0.50717  0.00758  0.58229  1.0000
  C   C116      1.0  0.49976  0.90310  0.53647  1.0000
  Fe  Fe24      1.0  0.35649  0.52326  0.99791  1.0000
  H   H184      1.0  0.31929  0.53228  0.85513  1.0000
  H   H185      1.0  0.31086  0.00531  0.73801  1.0000
  S   S48       1.0  0.43138  0.97632  0.55556  1.0000
  H   H186      1.0  0.43996  0.64540  0.02123  1.0000
  C   C117      1.0  0.31086  0.52622  0.81609  1.0000
  H   H187      1.0  0.45688  0.85284  0.55166  1.0000
  H   H188      1.0  0.48680  0.92867  0.54279  1.0000
  C   C118      1.0  0.28227  0.54176  0.78975  1.0000
  H   H189      1.0  0.50704  0.88837  0.57288  1.0000
  C   C119      1.0  0.52973  0.00106  0.57341  1.0000
  H   H190      1.0  0.28182  0.66640  0.65164  1.0000
  H   H191      1.0  0.28173  0.66799  0.58626  1.0000
  H   H192      1.0  0.59640  0.44043  0.25224  1.0000
  H   H193      1.0  0.63498  0.43506  0.23857  1.0000
  S   S49       1.0  0.68224  0.43574  0.07478  1.0000
  Fe  Fe25      1.0  0.69369  0.47763  0.13584  1.0000
  S   S50       1.0  0.70100  0.46551  0.21778  1.0000
  Fe  Fe26      1.0  0.71522  0.46891  0.03863  1.0000
  C   C120      1.0  0.75310  0.45516  0.29359  1.0000
  H   H194      1.0  0.60542  0.39979  0.22036  1.0000
  H   H195      1.0  0.64177  0.43916  0.15257  1.0000
  H   H196      1.0  0.71394  0.29869  0.50006  1.0000
  C   C121      1.0  0.74059  0.45293  0.24230  1.0000
  H   H197      1.0  0.74738  0.32825  0.49885  1.0000
  H   H198      1.0  0.73837  0.46474  0.31810  1.0000
  H   H199      1.0  0.55860  0.41281  0.15179  1.0000
  C   C122      1.0  0.60914  0.43033  0.22384  1.0000
  C   C123      1.0  0.75977  0.44063  0.21078  1.0000
  H   H200      1.0  0.61148  0.40508  0.13253  1.0000
  H   H201      1.0  0.75025  0.43864  0.17119  1.0000
  C   C124      1.0  0.56390  0.44296  0.15687  1.0000
  H   H202      1.0  0.59577  0.50546  0.14626  1.0000
  C   C125      1.0  0.61580  0.43525  0.13928  1.0000
  N   N13       1.0  0.59815  0.44961  0.17549  1.0000
  H   H203      1.0  0.62969  0.49593  0.19540  1.0000
  H   H204      1.0  0.55511  0.45678  0.12002  1.0000
  H   H205      1.0  0.54969  0.45394  0.18280  1.0000
  H   H206      1.0  0.60868  0.44974  0.10270  1.0000
  C   C126      1.0  0.74025  0.29939  0.50678  1.0000
  C   C127      1.0  0.60396  0.48994  0.18195  1.0000
  S   S51       1.0  0.73034  0.50724  0.10349  1.0000
  Fe  Fe27      1.0  0.64539  0.47704  0.03818  1.0000
  C   C128      1.0  0.56416  0.50380  0.03760  1.0000
  H   H207      1.0  0.59128  0.50168  0.20942  1.0000
  H   H208      1.0  0.74764  0.28085  0.47921  1.0000
  H   H209      1.0  0.70348  0.08387  0.59098  1.0000
  C   C129      1.0  0.74485  0.24953  0.56754  1.0000
  C   C130      1.0  0.64795  0.43676  0.90999  1.0000
  S   S52       1.0  0.72628  0.30160  0.73311  1.0000
  H   H210      1.0  0.63447  0.11192  0.61537  1.0000
  Fe  Fe28      1.0  0.73823  0.24346  0.71549  1.0000
  S   S53       1.0  0.70574  0.20986  0.65728  1.0000
  H   H211      1.0  0.76714  0.24950  0.03051  1.0000
  C   C131      1.0  0.74920  0.09740  0.63593  1.0000
  C   C132      1.0  0.63436  0.08782  0.64099  1.0000
  C   C133      1.0  0.75430  0.15945  0.67061  1.0000
  C   C134      1.0  0.72284  0.16708  0.64785  1.0000
  C   C135      1.0  0.70473  0.14008  0.61817  1.0000
  C   C136      1.0  0.71763  0.10488  0.61327  1.0000
  C   C137      1.0  0.72818  0.33699  0.91031  1.0000
  H   H212      1.0  0.66828  0.13008  0.74942  1.0000
  C   C138      1.0  0.56362  0.47216  0.00845  1.0000
  H   H213      1.0  0.58591  0.10749  0.68180  1.0000
  S   S54       1.0  0.71855  0.29608  0.87592  1.0000
  S   S55       1.0  0.74996  0.22563  0.79532  1.0000
  H   H214      1.0  0.69405  0.32677  0.95571  1.0000
  H   H215      1.0  0.61431  0.05040  0.71434  1.0000
  H   H216      1.0  0.66550  0.14749  0.68745  1.0000
  H   H217      1.0  0.61237  0.43887  0.81739  1.0000
  H   H218      1.0  0.60896  0.13257  0.73330  1.0000
  H   H219      1.0  0.76558  0.28841  0.98839  1.0000
  H   H220      1.0  0.68061  0.14625  0.59954  1.0000
  C   C139      1.0  0.66552  0.12157  0.70997  1.0000
  Fe  Fe29      1.0  0.74360  0.28538  0.81328  1.0000
  C   C140      1.0  0.60841  0.12311  0.69475  1.0000
  H   H221      1.0  0.77621  0.41288  0.92000  1.0000
  H   H222      1.0  0.63893  0.07462  0.76501  1.0000
  H   H223      1.0  0.71832  0.31296  0.58951  1.0000
  H   H224      1.0  0.68693  0.10532  0.70706  1.0000
  H   H225      1.0  0.65645  0.04777  0.72309  1.0000
  N   N14       1.0  0.63623  0.09983  0.69278  1.0000
  S   S56       1.0  0.59888  0.45317  0.99708  1.0000
  H   H226      1.0  0.70610  0.38495  0.00379  1.0000
  S   S57       1.0  0.74992  0.44539  0.99631  1.0000
  H   H227      1.0  0.67961  0.41791  0.80994  1.0000
  H   H228      1.0  0.61234  0.07165  0.62668  1.0000
  C   C141      1.0  0.63654  0.06682  0.72538  1.0000
  H   H229      1.0  0.75179  0.34256  0.58801  1.0000
  H   H230      1.0  0.60749  0.14830  0.67057  1.0000
  C   C142      1.0  0.71203  0.34551  0.94791  1.0000
  H   H231      1.0  0.65461  0.06948  0.63816  1.0000
  S   S58       1.0  0.76616  0.05385  0.63057  1.0000
  H   H232      1.0  0.65396  0.38937  0.83838  1.0000
  H   H233      1.0  0.62127  0.48536  0.83882  1.0000
  H   H234      1.0  0.63882  0.46722  0.79039  1.0000
  C   C143      1.0  0.75145  0.36126  0.90056  1.0000
  H   H235      1.0  0.70420  0.46532  0.90349  1.0000
  C   C144      1.0  0.71873  0.37850  0.97504  1.0000
  C   C145      1.0  0.74177  0.40298  0.96489  1.0000
  C   C146      1.0  0.63161  0.45996  0.82582  1.0000
  H   H236      1.0  0.75573  0.23983  0.60596  1.0000
  H   H237      1.0  0.71872  0.24750  0.56356  1.0000
  C   C147      1.0  0.74447  0.31336  0.59348  1.0000
  N   N15       1.0  0.65872  0.44592  0.86378  1.0000
  H   H238      1.0  0.63670  0.46117  0.92365  1.0000
  H   H239      1.0  0.69257  0.40165  0.87257  1.0000
  C   C148      1.0  0.75834  0.39403  0.92800  1.0000
  H   H240      1.0  0.66798  0.42781  0.94041  1.0000
  C   C149      1.0  0.68362  0.47476  0.87418  1.0000
  C   C150      1.0  0.67168  0.41225  0.84522  1.0000
  H   H241      1.0  0.69283  0.48189  0.84045  1.0000
  H   H242      1.0  0.63006  0.41405  0.90438  1.0000
  N   N16       1.0  0.75480  0.28785  0.55833  1.0000
  H   H243      1.0  0.74637  0.24591  0.96656  1.0000
  H   H244      1.0  0.76848  0.18001  0.69357  1.0000
  C   C151      1.0  0.76768  0.12505  0.66357  1.0000
  H   H245      1.0  0.76389  0.35515  0.87148  1.0000
  H   H246      1.0  0.67461  0.50079  0.88768  1.0000
  H   H247      1.0  0.77810  0.12039  0.90686  1.0000
  C   C152      1.0  0.76783  0.25759  0.99161  1.0000
  H   H248      1.0  0.75512  0.30566  0.63270  1.0000
  H   H249      1.0  0.75191  0.22947  0.54141  1.0000
  S   S59       1.0  0.67772  0.50763  0.99785  1.0000
  H   H250      1.0  0.53401  0.43039  0.96609  1.0000
  Fe  Fe30      1.0  0.77745  0.31348  0.73391  1.0000
  C   C153      1.0  0.53460  0.45483  0.98880  1.0000
  H   H251      1.0  0.77882  0.18995  0.95821  1.0000
  H   H252      1.0  0.77576  0.24328  0.89989  1.0000
  H   H253      1.0  0.77867  0.02337  0.72827  1.0000
  C   C154      1.0  0.53588  0.51768  0.04765  1.0000
  H   H254      1.0  0.73338  0.57086  0.23970  1.0000
  S   S60       1.0  0.65385  0.51607  0.10259  1.0000
  C   C155      1.0  0.70191  0.66766  0.20690  1.0000
  H   H255      1.0  0.71554  0.67889  0.09013  1.0000
  H   H256      1.0  0.67926  0.58360  0.15502  1.0000
  H   H257      1.0  0.73900  0.91516  0.21076  1.0000
  C   C156      1.0  0.69730  0.62884  0.11730  1.0000
  C   C157      1.0  0.68792  0.61180  0.15787  1.0000
  C   C158      1.0  0.68981  0.63138  0.20236  1.0000
  H   H258      1.0  0.68263  0.61813  0.23367  1.0000
  H   H259      1.0  0.76049  0.53818  0.22326  1.0000
  H   H260      1.0  0.75979  0.54508  0.28752  1.0000
  C   C159      1.0  0.56068  0.98452  0.51334  1.0000
  C   C160      1.0  0.70843  0.66550  0.12143  1.0000
  C   C161      1.0  0.75756  0.90144  0.30915  1.0000
  H   H261      1.0  0.53644  0.54220  0.07020  1.0000
  S   S61       1.0  0.70735  0.69042  0.26440  1.0000
  H   H262      1.0  0.71962  0.71302  0.16897  1.0000
  H   H263      1.0  0.75983  0.92017  0.50401  1.0000
  H   H264      1.0  0.73592  0.91900  0.29980  1.0000
  C   C162      1.0  0.71096  0.68475  0.16620  1.0000
  H   H265      1.0  0.58627  0.51785  0.05190  1.0000
  S   S62       1.0  0.75027  0.79107  0.27175  1.0000
  C   C163      1.0  0.73769  0.84222  0.40598  1.0000
  Fe  Fe31      1.0  0.74948  0.72871  0.27624  1.0000
  S   S63       1.0  0.69160  0.90976  0.48385  1.0000
  Fe  Fe32      1.0  0.68973  0.54298  0.06595  1.0000
  H   H266      1.0  0.75298  0.62947  0.28108  1.0000
  H   H267      1.0  0.68942  0.85279  0.41129  1.0000
  H   H268      1.0  0.56205  0.97825  0.47547  1.0000
  H   H269      1.0  0.75495  0.62099  0.19260  1.0000
  H   H270      1.0  0.73139  0.82062  0.37858  1.0000
  C   C164      1.0  0.75361  0.89821  0.47717  1.0000
  C   C165      1.0  0.72188  0.88830  0.46041  1.0000
  C   C166      1.0  0.71398  0.86047  0.42453  1.0000
  H   H271      1.0  0.74977  0.87196  0.31010  1.0000
  C   C167      1.0  0.75785  0.55959  0.25102  1.0000
  S   S64       1.0  0.69629  0.60474  0.06168  1.0000
  C   C168      1.0  0.77716  0.61721  0.29079  1.0000
  C   C169      1.0  0.77731  0.88007  0.45854  1.0000
  H   H272      1.0  0.77022  0.90832  0.34768  1.0000
  C   C170      1.0  0.53130  0.99309  0.52435  1.0000
  H   H273      1.0  0.76800  0.96532  0.26361  1.0000
  C   C171      1.0  0.77850  0.60763  0.20462  1.0000
  H   H274      1.0  0.75705  0.82270  0.51940  1.0000
  C   C172      1.0  0.76040  0.89749  0.22262  1.0000
  C   C173      1.0  0.76944  0.85197  0.42305  1.0000
  H   H275      1.0  0.75242  0.86797  0.22073  1.0000
  H   H276      1.0  0.78042  0.60485  0.32883  1.0000
  N   N17       1.0  0.77814  0.90694  0.27312  1.0000
  H   H277      1.0  0.77532  0.90102  0.19454  1.0000
  Fe  Fe33      1.0  0.66789  0.97679  0.62902  1.0000
  N   N18       1.0  0.76037  0.82457  0.59845  1.0000
  Fe  Fe34      1.0  0.72772  0.93078  0.66818  1.0000
  S   S65       1.0  0.75041  0.94927  0.60605  1.0000
  S   S66       1.0  0.75214  0.88724  0.72296  1.0000
  C   C174      1.0  0.58840  0.98402  0.55100  1.0000
  Fe  Fe35      1.0  0.73216  0.00576  0.61976  1.0000
  S   S67       1.0  0.68095  0.91794  0.61748  1.0000
  S   S68       1.0  0.71284  0.98770  0.68566  1.0000
  C   C175      1.0  0.72831  0.84052  0.59264  1.0000
  S   S69       1.0  0.68605  0.99984  0.56424  1.0000
  C   C176      1.0  0.58689  0.99217  0.59999  1.0000
  H   H278      1.0  0.72560  0.85505  0.62695  1.0000
  C   C177      1.0  0.55749  0.00071  0.61108  1.0000
  H   H279      1.0  0.70965  0.81877  0.58471  1.0000
  H   H280      1.0  0.74891  0.77594  0.63715  1.0000
  H   H281      1.0  0.76830  0.94056  0.80380  1.0000
  Fe  Fe36      1.0  0.70256  0.94125  0.55630  1.0000
  H   H282      1.0  0.55615  0.00693  0.64895  1.0000
  C   C178      1.0  0.76655  0.79890  0.64179  1.0000
  H   H283      1.0  0.76515  0.81368  0.67670  1.0000
  S   S70       1.0  0.62132  0.99259  0.64795  1.0000
  H   H284      1.0  0.74529  0.78080  0.54596  1.0000
  H   H285      1.0  0.61091  0.97738  0.54205  1.0000
  C   C179      1.0  0.76247  0.80422  0.55287  1.0000
  H   H286      1.0  0.72322  0.86111  0.56150  1.0000
  H   H287      1.0  0.78014  0.87471  0.57471  1.0000
  H   H288      1.0  0.78065  0.00741  0.79087  1.0000
  Fe  Fe37      1.0  0.88205  0.41388  0.49498  1.0000
  H   H289      1.0  0.95315  0.37675  0.37378  1.0000
  Fe  Fe38      1.0  0.87664  0.49440  0.46057  1.0000
  S   S71       1.0  0.89549  0.48295  0.39287  1.0000
  H   H290      1.0  0.89877  0.36356  0.32618  1.0000
  S   S72       1.0  0.90141  0.39638  0.42928  1.0000
  Fe  Fe39      1.0  0.93135  0.44740  0.44308  1.0000
  S   S73       1.0  0.98045  0.44774  0.42725  1.0000
  Fe  Fe40      1.0  0.86403  0.43319  0.38448  1.0000
  S   S74       1.0  0.84290  0.41729  0.30548  1.0000
  S   S75       1.0  0.84179  0.44686  0.44883  1.0000
  H   H291      1.0  0.79419  0.44664  0.35288  1.0000
  C   C180      1.0  0.80370  0.43194  0.28183  1.0000
  C   C181      1.0  0.00777  0.46097  0.52558  1.0000
  C   C182      1.0  0.01226  0.45815  0.47691  1.0000
  H   H292      1.0  0.80569  0.41981  0.20604  1.0000
  N   N19       1.0  0.93605  0.38792  0.29562  1.0000
  C   C183      1.0  0.94789  0.38660  0.24913  1.0000
  C   C184      1.0  0.92653  0.42633  0.30372  1.0000
  C   C185      1.0  0.96133  0.37589  0.33806  1.0000
  C   C186      1.0  0.90837  0.36304  0.29169  1.0000
  H   H293      1.0  0.98238  0.39449  0.34266  1.0000
  H   H294      1.0  0.90721  0.43641  0.27281  1.0000
  H   H295      1.0  0.94681  0.44601  0.30778  1.0000
  H   H296      1.0  0.96872  0.40522  0.25098  1.0000
  H   H297      1.0  0.91448  0.33375  0.28542  1.0000
  H   H298      1.0  0.88858  0.37178  0.26062  1.0000
  H   H299      1.0  0.91737  0.42795  0.33827  1.0000
  H   H300      1.0  0.98475  0.45556  0.53345  1.0000
  H   H301      1.0  0.96926  0.34704  0.33340  1.0000
  H   H302      1.0  0.92933  0.39567  0.21651  1.0000
  H   H303      1.0  0.95531  0.35798  0.24179  1.0000
  S   S76       1.0  0.91518  0.46260  0.51243  1.0000
  H   H304      1.0  0.82629  0.25406  0.05031  1.0000
  C   C187      1.0  0.79116  0.42987  0.23057  1.0000
  S   S77       1.0  0.89679  0.02400  0.05148  1.0000
  C   C188      1.0  0.01444  0.01401  0.04268  1.0000
  C   C189      1.0  0.78473  0.44502  0.31330  1.0000
  H   H305      1.0  0.78565  0.17636  0.85811  1.0000
  S   S78       1.0  0.82062  0.06452  0.95519  1.0000
  Fe  Fe41      1.0  0.79947  0.24263  0.79324  1.0000
  S   S79       1.0  0.84169  0.20830  0.83112  1.0000
  S   S80       1.0  0.79397  0.30171  0.81573  1.0000
  H   H306      1.0  0.82120  0.19303  0.97216  1.0000
  C   C190      1.0  0.85483  0.36835  0.59094  1.0000
  H   H307      1.0  0.87340  0.31773  0.62868  1.0000
  C   C191      1.0  0.82727  0.10470  0.92204  1.0000
  C   C192      1.0  0.85744  0.11401  0.91502  1.0000
  C   C193      1.0  0.86164  0.14592  0.88714  1.0000
  C   C194      1.0  0.83575  0.16859  0.86614  1.0000
  C   C195      1.0  0.80570  0.15923  0.87357  1.0000
  C   C196      1.0  0.80149  0.12750  0.90149  1.0000
  H   H308      1.0  0.87757  0.09681  0.93132  1.0000
  H   H309      1.0  0.88505  0.15307  0.88186  1.0000
  C   C197      1.0  0.83503  0.33929  0.65884  1.0000
  S   S81       1.0  0.78841  0.25614  0.71120  1.0000
  H   H310      1.0  0.81705  0.10193  0.80315  1.0000
  S   S82       1.0  0.97938  0.03994  0.02240  1.0000
  H   H311      1.0  0.82208  0.06192  0.70867  1.0000
  C   C198      1.0  0.85608  0.33970  0.62638  1.0000
  H   H312      1.0  0.85086  0.02830  0.73776  1.0000
  C   C199      1.0  0.78965  0.28926  0.56555  1.0000
  C   C200      1.0  0.79650  0.25557  0.92567  1.0000
  H   H313      1.0  0.79799  0.31786  0.55911  1.0000
  H   H314      1.0  0.83154  0.41905  0.56120  1.0000
  C   C201      1.0  0.83259  0.39682  0.58833  1.0000
  C   C202      1.0  0.83723  0.05309  0.74496  1.0000
  H   H315      1.0  0.79437  0.41852  0.61873  1.0000
  C   C203      1.0  0.81261  0.36757  0.65593  1.0000
  N   N20       1.0  0.81799  0.04469  0.78212  1.0000
  C   C204      1.0  0.81158  0.39645  0.62089  1.0000
  S   S83       1.0  0.88062  0.36679  0.54948  1.0000
  H   H316      1.0  0.83625  0.31720  0.68619  1.0000
  S   S84       1.0  0.89719  0.01509  0.93241  1.0000
  H   H317      1.0  0.80142  0.28080  0.60414  1.0000
  Fe  Fe42      1.0  0.86123  0.02441  0.97882  1.0000
  H   H318      1.0  0.82532  0.02642  0.85855  1.0000
  S   S85       1.0  0.78486  0.36691  0.69428  1.0000
  H   H319      1.0  0.85661  0.05429  0.84417  1.0000
  C   C205      1.0  0.79939  0.20370  0.98275  1.0000
  C   C206      1.0  0.83896  0.03245  0.82927  1.0000
  H   H320      1.0  0.79228  0.11976  0.68028  1.0000
  C   C207      1.0  0.82495  0.26174  0.01061  1.0000
  C   C208      1.0  0.80060  0.07836  0.79096  1.0000
  H   H321      1.0  0.85444  0.07588  0.75762  1.0000
  H   H322      1.0  0.81819  0.24629  0.91346  1.0000
  H   H323      1.0  0.02965  0.47263  0.60196  1.0000
  H   H324      1.0  0.84742  0.25266  0.00069  1.0000
  H   H325      1.0  0.80002  0.19426  0.02161  1.0000
  H   H326      1.0  0.82397  0.29264  0.00749  1.0000
  H   H327      1.0  0.79460  0.28628  0.92058  1.0000
  H   H328      1.0  0.79842  0.27047  0.53965  1.0000
  N   N21       1.0  0.79717  0.24461  0.97775  1.0000
  H   H329      1.0  0.78698  0.07340  0.82049  1.0000
  H   H330      1.0  0.78353  0.08747  0.75668  1.0000
  C   C209      1.0  0.79520  0.01484  0.76339  1.0000
  S   S86       1.0  0.86410  0.55309  0.47722  1.0000
  N   N22       1.0  0.78180  0.58937  0.25389  1.0000
  H   H331      1.0  0.95799  0.55794  0.43403  1.0000
  C   C210      1.0  0.78856  0.94609  0.27373  1.0000
  H   H332      1.0  0.78276  0.87630  0.08639  1.0000
  C   C211      1.0  0.84463  0.61970  0.43152  1.0000
  C   C212      1.0  0.86205  0.58712  0.42984  1.0000
  C   C213      1.0  0.87867  0.58307  0.39183  1.0000
  H   H333      1.0  0.89107  0.60795  0.32694  1.0000
  H   H334      1.0  0.83200  0.62334  0.46111  1.0000
  H   H335      1.0  0.89260  0.55869  0.39017  1.0000
  N   N23       1.0  0.96487  0.56788  0.51267  1.0000
  H   H336      1.0  0.87494  0.88085  0.03898  1.0000
  C   C214      1.0  0.84332  0.64760  0.39491  1.0000
  H   H337      1.0  0.92794  0.53907  0.46318  1.0000
  Fe  Fe43      1.0  0.88757  0.96256  0.05286  1.0000
  C   C215      1.0  0.85993  0.64339  0.35693  1.0000
  C   C216      1.0  0.87794  0.61125  0.35597  1.0000
  H   H338      1.0  0.81783  0.55125  0.24293  1.0000
  H   H339      1.0  0.95318  0.61876  0.47082  1.0000
  Fe  Fe44      1.0  0.78846  0.78310  0.22874  1.0000
  H   H340      1.0  0.81765  0.56036  0.30701  1.0000
  C   C217      1.0  0.94870  0.60431  0.50466  1.0000
  C   C218      1.0  0.80616  0.88258  0.28700  1.0000
  S   S87       1.0  0.85845  0.67713  0.30959  1.0000
  H   H341      1.0  0.80412  0.95102  0.24680  1.0000
  H   H342      1.0  0.82993  0.67258  0.39674  1.0000
  H   H343      1.0  0.01229  0.54606  0.52606  1.0000
  H   H344      1.0  0.80184  0.88796  0.47149  1.0000
  S   S88       1.0  0.79994  0.83037  0.40039  1.0000
  Fe  Fe45      1.0  0.82049  0.72127  0.29989  1.0000
  Fe  Fe46      1.0  0.78996  0.78753  0.33921  1.0000
  H   H345      1.0  0.86263  0.79565  0.03826  1.0000
  S   S89       1.0  0.82847  0.78286  0.29586  1.0000
  H   H346      1.0  0.92253  0.60109  0.49939  1.0000
  S   S90       1.0  0.88946  0.93103  0.12507  1.0000
  C   C219      1.0  0.81263  0.84994  0.15028  1.0000
  C   C220      1.0  0.80600  0.87582  0.11079  1.0000
  C   C221      1.0  0.82930  0.90110  0.10280  1.0000
  C   C222      1.0  0.85933  0.90052  0.13427  1.0000
  C   C223      1.0  0.86576  0.87500  0.17411  1.0000
  C   C224      1.0  0.84252  0.84967  0.18203  1.0000
  H   H347      1.0  0.83237  0.59485  0.26998  1.0000
  H   H348      1.0  0.82399  0.92129  0.07275  1.0000
  H   H349      1.0  0.88898  0.87454  0.19862  1.0000
  H   H350      1.0  0.84789  0.82973  0.21239  1.0000
  H   H351      1.0  0.82260  0.88631  0.26124  1.0000
  C   C225      1.0  0.99950  0.57315  0.52019  1.0000
  C   C226      1.0  0.81384  0.57318  0.26912  1.0000
  H   H352      1.0  0.83868  0.83118  0.05623  1.0000
  H   H353      1.0  0.79651  0.62992  0.20534  1.0000
  H   H354      1.0  0.79903  0.85294  0.28573  1.0000
  S   S91       1.0  0.78442  0.72089  0.22799  1.0000
  S   S92       1.0  0.78532  0.72572  0.34859  1.0000
  C   C227      1.0  0.95373  0.54451  0.46864  1.0000
  H   H355      1.0  0.00594  0.58693  0.48728  1.0000
  S   S93       1.0  0.78289  0.81865  0.15885  1.0000
  H   H356      1.0  0.80223  0.95394  0.31128  1.0000
  H   H357      1.0  0.81963  0.88788  0.32559  1.0000
  H   H358      1.0  0.96584  0.51712  0.47270  1.0000
  H   H359      1.0  0.79426  0.64062  0.29276  1.0000
  H   H360      1.0  0.78102  0.58744  0.17538  1.0000
  C   C228      1.0  0.85842  0.81926  0.94418  1.0000
  H   H361      1.0  0.81369  0.85552  0.73618  1.0000
  H   H362      1.0  0.99612  0.96367  0.00588  1.0000
  H   H363      1.0  0.87884  0.80022  0.95710  1.0000
  Fe  Fe47      1.0  0.93226  0.00963  0.00559  1.0000
  C   C229      1.0  0.81773  0.93051  0.83760  1.0000
  H   H364      1.0  0.80294  0.85076  0.94875  1.0000
  Fe  Fe48      1.0  0.88660  0.95487  0.94268  1.0000
  S   S94       1.0  0.84841  0.96412  0.98458  1.0000
  S   S95       1.0  0.88040  0.91308  0.88088  1.0000
  H   H365      1.0  0.80750  0.98927  0.75522  1.0000
  H   H366      1.0  0.86454  0.83782  0.91484  1.0000
  C   C230      1.0  0.82459  0.86634  0.96654  1.0000
  C   C231      1.0  0.78937  0.92503  0.80178  1.0000
  H   H367      1.0  0.85219  0.00672  0.82432  1.0000
  C   C232      1.0  0.84457  0.90904  0.83626  1.0000
  C   C233      1.0  0.84291  0.88239  0.79917  1.0000
  C   C234      1.0  0.78794  0.89827  0.76463  1.0000
  H   H368      1.0  0.86345  0.86555  0.79809  1.0000
  S   S96       1.0  0.92532  0.94819  0.01141  1.0000
  C   C235      1.0  0.87960  0.86305  0.00851  1.0000
  H   H369      1.0  0.88701  0.88168  0.98055  1.0000
  H   H370      1.0  0.83770  0.80221  0.92619  1.0000
  C   C236      1.0  0.81474  0.87684  0.76385  1.0000
  H   H371      1.0  0.81862  0.95072  0.86666  1.0000
  H   H372      1.0  0.96888  0.52160  0.56384  1.0000
  H   H373      1.0  0.96545  0.56613  0.59109  1.0000
  H   H374      1.0  0.00885  0.59052  0.55330  1.0000
  H   H375      1.0  0.83025  0.88603  0.93810  1.0000
  N   N24       1.0  0.85142  0.84104  0.98577  1.0000
  H   H376      1.0  0.81857  0.88320  0.99686  1.0000
  H   H377      1.0  0.82140  0.79931  0.00841  1.0000
  C   C237      1.0  0.84315  0.81563  0.02368  1.0000
  H   H378      1.0  0.80858  0.84383  0.61143  1.0000
  H   H379      1.0  0.78288  0.87094  0.64051  1.0000
  H   H380      1.0  0.90014  0.84499  0.02476  1.0000
  C   C238      1.0  0.95735  0.54936  0.55700  1.0000
  H   H381      1.0  0.93131  0.54503  0.55239  1.0000
  C   C239      1.0  0.01663  0.97720  0.02808  1.0000
  H   H382      1.0  0.79053  0.78627  0.64734  1.0000
  C   C240      1.0  0.78407  0.85480  0.60665  1.0000
  H   H383      1.0  0.95665  0.62293  0.53693  1.0000
  H   H384      1.0  0.78659  0.79264  0.55514  1.0000
