data_image0
_chemical_formula_structural       CNSH2CH3CH2NHCHCHFeH2CHCSCHCH3SH2C2HC2H5SC6H4SCH2CH5NHNCH7CNH5S2C2HCHC2H2CHSCHSH5CH2NHS2CSC2SHC3H2FeHCNH2CSFeC2FeHFeH4CH2C3FeS4HNH2CFeCH2CH4CHCFeSCSH4CH2C2HC2H4CNHCH4CH3FeS2C3H2S2HFeSCFeCHC2H3CH4CHC2FeHFeHFeC4SHC2H2SH2NH2SNHCSHCFeSCFe2SHSH2C2H2SH2SH3C3H4CSNHCHC2H2CSH4C3HC2FeSNCNHCHCH5C2H5CHCH3SCHFeS2FeSFeSFeS2CHCSHCH5SHCFeSCHCHFeHC2H2S2NCS2CFeSHC2FeHCH2CH3CHC2NHCH5CHC2H2S2C5HCHS2FeH5CH4CSCH5C2S2C2HFeNSCH2CH2SFeHC2H8CHC2H3CH9C5H2CHSFeH2CSNH3C3H3FeSCHCHCH2CHCHSH3SCHSH4CHNCHCHC2HC3H2S2C2H3CSCHFeHCH4CHSHFeC6HSHSH3CHFeCSCNHC2H2CH8CH2SH5NH5CHSC2HCHCHC2H2CHC2H3CFeH2CFeNH2CHCHCSHC2HSH3FeSC4H2SHFeSH2CHFeH3C3SHS2Fe3S2HCH2C3HS2H3SHCH6NCHFeC3HCHCHCSH2SH2CH2SHCH2FeH5CH2SCHC2H2CFeCHS2CFeH2CH2CSHCHCHSCHS2CFeCH2NH3C3FeSFeS2FeSFeH2SC2H2C2HC2H4CNH4C2HCHC3HSC3H3S2HSCH3CHFeH2FeHSHSHFeSHCSC3SFeHCHC3SCH3C2NSHCFeNCH10CNHCH3CH2CH2FeHSH2C6HCNCSFeH2CHCH2FeHCH3C2HCH2SH3CFeS2FeCHSHCFeHCH2C2HSC2H3CH2C2HNH3SH2CHCHSC2H2CH3NH3CH5CHCHSNCSHFeH4CH3C3HCH2C2SCFeS
_chemical_formula_sum              "C320 N32 S128 H512 Fe64"
_cell_length_a       31.5441
_cell_length_b       30.8421
_cell_length_c       39.8557
_cell_angle_alpha    90.2686
_cell_angle_beta     89.2892
_cell_angle_gamma    89.9142

_space_group_name_H-M_alt    "P 1"
_space_group_IT_number       1

loop_
  _space_group_symop_operation_xyz
  'x, y, z'

loop_
  _atom_site_type_symbol
  _atom_site_label
  _atom_site_symmetry_multiplicity
  _atom_site_fract_x
  _atom_site_fract_y
  _atom_site_fract_z
  _atom_site_occupancy
  C   C1        1.0  0.57252  0.17957  0.12698  1.0000
  N   N1        1.0  0.54482  0.16610  0.09917  1.0000
  S   S1        1.0  0.50268  0.51341  0.10081  1.0000
  H   H1        1.0  0.53705  0.23510  0.34538  1.0000
  H   H2        1.0  0.55698  0.17438  0.15187  1.0000
  C   C2        1.0  0.50569  0.19252  0.10012  1.0000
  H   H3        1.0  0.48840  0.18900  0.12446  1.0000
  H   H4        1.0  0.49915  0.15166  0.31729  1.0000
  H   H5        1.0  0.28509  0.55932  0.17059  1.0000
  C   C3        1.0  0.53388  0.11973  0.10283  1.0000
  H   H6        1.0  0.51793  0.11312  0.12734  1.0000
  H   H7        1.0  0.17965  0.55056  0.21318  1.0000
  N   N2        1.0  0.21725  0.55318  0.16781  1.0000
  H   H8        1.0  0.08422  0.49934  0.23216  1.0000
  C   C4        1.0  0.21207  0.54218  0.20371  1.0000
  H   H9        1.0  0.55430  0.20745  0.30779  1.0000
  C   C5        1.0  0.18599  0.52868  0.14800  1.0000
  H   H10       1.0  0.57178  0.55989  0.34091  1.0000
  Fe  Fe1       1.0  0.09982  0.58796  0.33551  1.0000
  H   H11       1.0  0.57406  0.48158  0.13657  1.0000
  H   H12       1.0  0.26672  0.50634  0.15871  1.0000
  C   C6        1.0  0.08865  0.53365  0.22778  1.0000
  H   H13       1.0  0.18934  0.49306  0.15149  1.0000
  C   C7        1.0  0.10003  0.56095  0.25438  1.0000
  S   S2        1.0  0.09149  0.49965  0.10685  1.0000
  C   C8        1.0  0.26053  0.54170  0.15610  1.0000
  H   H14       1.0  0.18949  0.53526  0.12073  1.0000
  C   C9        1.0  0.08325  0.55061  0.19547  1.0000
  H   H15       1.0  0.26543  0.54991  0.12909  1.0000
  H   H16       1.0  0.56259  0.09882  0.10124  1.0000
  H   H17       1.0  0.23502  0.56013  0.21955  1.0000
  S   S3        1.0  0.10956  0.53897  0.29417  1.0000
  H   H18       1.0  0.21678  0.50690  0.20811  1.0000
  H   H19       1.0  0.15307  0.53773  0.15531  1.0000
  C   C10       1.0  0.55854  0.20921  0.33549  1.0000
  C   C11       1.0  0.50494  0.15472  0.34469  1.0000
  H   H20       1.0  0.57467  0.13024  0.30980  1.0000
  C   C12       1.0  0.57828  0.13362  0.33748  1.0000
  C   C13       1.0  0.20555  0.33050  0.54241  1.0000
  H   H21       1.0  0.17675  0.31014  0.54602  1.0000
  H   H22       1.0  0.21835  0.32398  0.51670  1.0000
  H   H23       1.0  0.22982  0.31905  0.56045  1.0000
  H   H24       1.0  0.50423  0.54522  0.57593  1.0000
  H   H25       1.0  0.14996  0.36544  0.58680  1.0000
  S   S4        1.0  0.35507  0.27890  0.52233  1.0000
  C   C14       1.0  0.42643  0.18799  0.45084  1.0000
  C   C15       1.0  0.42828  0.23289  0.44624  1.0000
  C   C16       1.0  0.40562  0.26076  0.46777  1.0000
  C   C17       1.0  0.38106  0.24387  0.49403  1.0000
  C   C18       1.0  0.37858  0.19893  0.49837  1.0000
  C   C19       1.0  0.40134  0.17099  0.47680  1.0000
  H   H26       1.0  0.40658  0.29533  0.46359  1.0000
  H   H27       1.0  0.35931  0.18573  0.51850  1.0000
  H   H28       1.0  0.39894  0.13643  0.48005  1.0000
  H   H29       1.0  0.44718  0.24622  0.42595  1.0000
  S   S5        1.0  0.45612  0.15419  0.42387  1.0000
  C   C20       1.0  0.45134  0.26116  0.57048  1.0000
  H   H30       1.0  0.44924  0.17757  0.55318  1.0000
  H   H31       1.0  0.53407  0.19574  0.39938  1.0000
  C   C21       1.0  0.47894  0.19496  0.54617  1.0000
  H   H32       1.0  0.44464  0.27355  0.54498  1.0000
  H   H33       1.0  0.47488  0.20708  0.52010  1.0000
  H   H34       1.0  0.08305  0.45395  0.46481  1.0000
  H   H35       1.0  0.50511  0.17068  0.54572  1.0000
  H   H36       1.0  0.48217  0.17912  0.35506  1.0000
  N   N3        1.0  0.54931  0.16704  0.35144  1.0000
  H   H37       1.0  0.52244  0.26858  0.53355  1.0000
  N   N4        1.0  0.48767  0.23085  0.56984  1.0000
  C   C22       1.0  0.55538  0.17064  0.38806  1.0000
  H   H38       1.0  0.44509  0.11650  0.59612  1.0000
  H   H39       1.0  0.42175  0.24512  0.57954  1.0000
  H   H40       1.0  0.45740  0.28968  0.58699  1.0000
  H   H41       1.0  0.54778  0.13954  0.40089  1.0000
  H   H42       1.0  0.53541  0.42279  0.52733  1.0000
  H   H43       1.0  0.49670  0.12315  0.35658  1.0000
  H   H44       1.0  0.17461  0.38605  0.49679  1.0000
  C   C23       1.0  0.23502  0.40261  0.54225  1.0000
  N   N5        1.0  0.19591  0.37703  0.54741  1.0000
  H   H45       1.0  0.24786  0.39884  0.51627  1.0000
  H   H46       1.0  0.26042  0.39209  0.55959  1.0000
  H   H47       1.0  0.13346  0.37245  0.52649  1.0000
  H   H48       1.0  0.10865  0.56275  0.49284  1.0000
  H   H49       1.0  0.55437  0.23215  0.55792  1.0000
  S   S6        1.0  0.11341  0.57554  0.38997  1.0000
  S   S7        1.0  0.39472  0.37814  0.57103  1.0000
  C   C24       1.0  0.26200  0.50994  0.58989  1.0000
  C   C25       1.0  0.17950  0.38417  0.58191  1.0000
  H   H50       1.0  0.15541  0.42587  0.52643  1.0000
  C   C26       1.0  0.16355  0.39091  0.52316  1.0000
  H   H51       1.0  0.22935  0.43779  0.54690  1.0000
  C   C27       1.0  0.52634  0.25413  0.55888  1.0000
  C   C28       1.0  0.48231  0.48266  0.43450  1.0000
  H   H52       1.0  0.25994  0.53907  0.57498  1.0000
  H   H53       1.0  0.29434  0.50928  0.44342  1.0000
  C   C29       1.0  0.29682  0.48214  0.58594  1.0000
  H   H54       1.0  0.31573  0.49743  0.48403  1.0000
  S   S8        1.0  0.12153  0.50744  0.58980  1.0000
  C   C30       1.0  0.32920  0.58132  0.46914  1.0000
  H   H55       1.0  0.32053  0.57622  0.49604  1.0000
  S   S9        1.0  0.33480  0.49319  0.55464  1.0000
  H   H56       1.0  0.29946  0.58795  0.45531  1.0000
  H   H57       1.0  0.51904  0.57039  0.53682  1.0000
  H   H58       1.0  0.53405  0.28120  0.57638  1.0000
  H   H59       1.0  0.17186  0.41895  0.58650  1.0000
  H   H60       1.0  0.51934  0.46031  0.47597  1.0000
  C   C31       1.0  0.52986  0.54758  0.55657  1.0000
  H   H61       1.0  0.48328  0.58514  0.40395  1.0000
  H   H62       1.0  0.55555  0.53095  0.48423  1.0000
  N   N6        1.0  0.35181  0.54327  0.45503  1.0000
  H   H63       1.0  0.38467  0.57916  0.41649  1.0000
  S   S10       1.0  0.36558  0.40191  0.49438  1.0000
  S   S11       1.0  0.44648  0.45317  0.52858  1.0000
  C   C32       1.0  0.47355  0.51746  0.41336  1.0000
  S   S12       1.0  0.51495  0.37394  0.58724  1.0000
  C   C33       1.0  0.52122  0.56303  0.44513  1.0000
  C   C34       1.0  0.32427  0.50465  0.45745  1.0000
  S   S13       1.0  0.45218  0.43533  0.43135  1.0000
  H   H64       1.0  0.38410  0.53202  0.50144  1.0000
  C   C35       1.0  0.49196  0.55795  0.41933  1.0000
  C   C36       1.0  0.51198  0.48748  0.46004  1.0000
  C   C37       1.0  0.36274  0.55115  0.41940  1.0000
  H   H65       1.0  0.34048  0.47539  0.44688  1.0000
  H   H66       1.0  0.40724  0.50562  0.46567  1.0000
  Fe  Fe2       1.0  0.37889  0.43801  0.54194  1.0000
  H   H67       1.0  0.45118  0.51357  0.39323  1.0000
  C   C38       1.0  0.56382  0.41899  0.54182  1.0000
  N   N7        1.0  0.57022  0.56200  0.57141  1.0000
  H   H68       1.0  0.33409  0.55840  0.40437  1.0000
  H   H69       1.0  0.41383  0.56297  0.47117  1.0000
  C   C39       1.0  0.39097  0.53575  0.47415  1.0000
  S   S14       1.0  0.45577  0.35043  0.50604  1.0000
  Fe  Fe3       1.0  0.46128  0.38957  0.55307  1.0000
  C   C40       1.0  0.56282  0.39451  0.57130  1.0000
  C   C41       1.0  0.53225  0.52744  0.46481  1.0000
  Fe  Fe4       1.0  0.38774  0.34335  0.52203  1.0000
  H   H70       1.0  0.53323  0.51495  0.54470  1.0000
  Fe  Fe5       1.0  0.43447  0.41254  0.48290  1.0000
  H   H71       1.0  0.37856  0.52240  0.40780  1.0000
  H   H72       1.0  0.57190  0.10125  0.34874  1.0000
  H   H73       1.0  0.13193  0.59208  0.54841  1.0000
  H   H74       1.0  0.54134  0.41657  0.71485  1.0000
  C   C42       1.0  0.49396  0.21325  0.60384  1.0000
  H   H75       1.0  0.48526  0.19774  0.77208  1.0000
  H   H76       1.0  0.42853  0.16723  0.80856  1.0000
  C   C43       1.0  0.48440  0.20550  0.79858  1.0000
  C   C44       1.0  0.45217  0.18852  0.81915  1.0000
  C   C45       1.0  0.51520  0.23263  0.81231  1.0000
  Fe  Fe6       1.0  0.54100  0.14807  0.68872  1.0000
  S   S15       1.0  0.48336  0.12758  0.66031  1.0000
  S   S16       1.0  0.55043  0.13652  0.74370  1.0000
  S   S17       1.0  0.55503  0.21912  0.69168  1.0000
  S   S18       1.0  0.55712  0.25176  0.78749  1.0000
  H   H77       1.0  0.52067  0.18957  0.60434  1.0000
  N   N8        1.0  0.57796  0.36041  0.70080  1.0000
  H   H78       1.0  0.50118  0.23936  0.62225  1.0000
  H   H79       1.0  0.57199  0.30309  0.73082  1.0000
  C   C46       1.0  0.49667  0.09384  0.62627  1.0000
  Fe  Fe7       1.0  0.57126  0.20585  0.74510  1.0000
  C   C47       1.0  0.53312  0.09778  0.83857  1.0000
  H   H80       1.0  0.53322  0.37409  0.66181  1.0000
  H   H81       1.0  0.56327  0.32526  0.65567  1.0000
  C   C48       1.0  0.55588  0.38735  0.72632  1.0000
  H   H82       1.0  0.56046  0.52869  0.61825  1.0000
  H   H83       1.0  0.08710  0.57295  0.78572  1.0000
  H   H84       1.0  0.53020  0.36877  0.73920  1.0000
  H   H85       1.0  0.20290  0.52166  0.61598  1.0000
  C   C49       1.0  0.23155  0.46191  0.63174  1.0000
  H   H86       1.0  0.26925  0.40594  0.64380  1.0000
  C   C50       1.0  0.26724  0.43505  0.62885  1.0000
  Fe  Fe8       1.0  0.12686  0.47306  0.63908  1.0000
  S   S19       1.0  0.18855  0.44598  0.65712  1.0000
  C   C51       1.0  0.22940  0.49982  0.61275  1.0000
  S   S20       1.0  0.08660  0.52063  0.66780  1.0000
  H   H87       1.0  0.08932  0.50673  0.74963  1.0000
  H   H88       1.0  0.20308  0.37450  0.60107  1.0000
  H   H89       1.0  0.32691  0.42392  0.60343  1.0000
  H   H90       1.0  0.52128  0.32671  0.68643  1.0000
  C   C52       1.0  0.54752  0.34605  0.67511  1.0000
  H   H91       1.0  0.51563  0.12767  0.83160  1.0000
  H   H92       1.0  0.46515  0.19608  0.61314  1.0000
  C   C53       1.0  0.29980  0.44509  0.60588  1.0000
  C   C54       1.0  0.51335  0.24345  0.84640  1.0000
  H   H93       1.0  0.57819  0.39859  0.74597  1.0000
  C   C55       1.0  0.47252  0.09548  0.59710  1.0000
  C   C56       1.0  0.32143  0.22883  0.91041  1.0000
  H   H94       1.0  0.34230  0.20468  0.92263  1.0000
  H   H95       1.0  0.35926  0.26130  0.96558  1.0000
  H   H96       1.0  0.32101  0.22003  0.88327  1.0000
  H   H97       1.0  0.28886  0.22439  0.92084  1.0000
  C   C57       1.0  0.33761  0.28352  0.95198  1.0000
  N   N9        1.0  0.33697  0.27354  0.91565  1.0000
  H   H98       1.0  0.30556  0.28030  0.96368  1.0000
  C   C58       1.0  0.30857  0.30438  0.89865  1.0000
  H   H99       1.0  0.27551  0.30206  0.90860  1.0000
  H   H100      1.0  0.30771  0.29798  0.87114  1.0000
  H   H101      1.0  0.34874  0.31724  0.95679  1.0000
  H   H102      1.0  0.40307  0.25644  0.91496  1.0000
  C   C59       1.0  0.38030  0.27750  0.90143  1.0000
  H   H103      1.0  0.38161  0.26746  0.87454  1.0000
  H   H104      1.0  0.39207  0.31137  0.90297  1.0000
  H   H105      1.0  0.31923  0.33849  0.90232  1.0000
  Fe  Fe9       1.0  0.44950  0.19538  0.00092  1.0000
  S   S21       1.0  0.49223  0.19340  0.95572  1.0000
  S   S22       1.0  0.44864  0.25195  0.03659  1.0000
  C   C60       1.0  0.43854  0.30107  0.01630  1.0000
  C   C61       1.0  0.44259  0.30433  0.98143  1.0000
  C   C62       1.0  0.42698  0.33758  0.03529  1.0000
  H   H106      1.0  0.45205  0.27647  0.96666  1.0000
  H   H107      1.0  0.42359  0.33512  0.06227  1.0000
  S   S23       1.0  0.39285  0.16794  0.97492  1.0000
  S   S24       1.0  0.41335  0.17337  0.87943  1.0000
  H   H108      1.0  0.48049  0.23416  0.89335  1.0000
  Fe  Fe10      1.0  0.43747  0.16018  0.93103  1.0000
  S   S25       1.0  0.47012  0.13111  0.02039  1.0000
  C   C63       1.0  0.48167  0.22575  0.86708  1.0000
  Fe  Fe11      1.0  0.50901  0.12697  0.97330  1.0000
  C   C64       1.0  0.43487  0.34403  0.96560  1.0000
  H   H109      1.0  0.43898  0.34687  0.93874  1.0000
  C   C65       1.0  0.54735  0.33451  0.06790  1.0000
  C   C66       1.0  0.45149  0.19775  0.85355  1.0000
  H   H110      1.0  0.56992  0.34566  0.00331  1.0000
  H   H111      1.0  0.53697  0.26480  0.85695  1.0000
  H   H112      1.0  0.51462  0.32211  0.06391  1.0000
  C   C67       1.0  0.56739  0.13438  0.88450  1.0000
  H   H113      1.0  0.56990  0.30917  0.05865  1.0000
  H   H114      1.0  0.54710  0.16470  0.04513  1.0000
  H   H115      1.0  0.55078  0.16535  0.87897  1.0000
  H   H116      1.0  0.54775  0.11654  0.90329  1.0000
  C   C68       1.0  0.56739  0.17267  0.06685  1.0000
  H   H117      1.0  0.51266  0.22754  0.09638  1.0000
  C   C69       1.0  0.37964  0.56803  0.88713  1.0000
  C   C70       1.0  0.57123  0.52844  0.05956  1.0000
  Fe  Fe12      1.0  0.41812  0.10307  0.98977  1.0000
  H   H118      1.0  0.40398  0.55818  0.90568  1.0000
  Fe  Fe13      1.0  0.46167  0.52713  0.05653  1.0000
  H   H119      1.0  0.34833  0.55675  0.89687  1.0000
  Fe  Fe14      1.0  0.09222  0.51093  0.05135  1.0000
  C   C71       1.0  0.19267  0.55190  0.05253  1.0000
  C   C72       1.0  0.27121  0.52380  0.02710  1.0000
  C   C73       1.0  0.19451  0.51607  0.03095  1.0000
  C   C74       1.0  0.26916  0.55959  0.04874  1.0000
  S   S26       1.0  0.14794  0.48840  0.02029  1.0000
  H   H120      1.0  0.30150  0.51261  0.01741  1.0000
  C   C75       1.0  0.23383  0.50217  0.01809  1.0000
  C   C76       1.0  0.22987  0.57373  0.06127  1.0000
  H   H121      1.0  0.23537  0.47438  0.00144  1.0000
  H   H122      1.0  0.16255  0.56280  0.06255  1.0000
  S   S27       1.0  0.31518  0.58715  0.06074  1.0000
  H   H123      1.0  0.52884  0.41534  0.09090  1.0000
  H   H124      1.0  0.51243  0.10852  0.08264  1.0000
  N   N10       1.0  0.57443  0.10834  0.85367  1.0000
  H   H125      1.0  0.55249  0.40109  0.00022  1.0000
  H   H126      1.0  0.55215  0.33788  0.09541  1.0000
  S   S28       1.0  0.38674  0.55085  0.98277  1.0000
  N   N11       1.0  0.55434  0.37618  0.05050  1.0000
  H   H127      1.0  0.52779  0.44047  0.05047  1.0000
  C   C77       1.0  0.41879  0.37713  0.01938  1.0000
  S   S29       1.0  0.41077  0.42893  0.96394  1.0000
  H   H128      1.0  0.51485  0.35902  0.00894  1.0000
  C   C78       1.0  0.55663  0.51235  0.09033  1.0000
  Fe  Fe15      1.0  0.45069  0.57921  0.99322  1.0000
  S   S30       1.0  0.39907  0.49344  0.05179  1.0000
  C   C79       1.0  0.52412  0.40896  0.06368  1.0000
  Fe  Fe16      1.0  0.41661  0.48761  0.99718  1.0000
  Fe  Fe17      1.0  0.37475  0.55912  0.03802  1.0000
  S   S31       1.0  0.43602  0.59361  0.04731  1.0000
  H   H129      1.0  0.40875  0.40479  0.03410  1.0000
  S   S32       1.0  0.48162  0.51524  0.00309  1.0000
  H   H130      1.0  0.49069  0.39851  0.06050  1.0000
  H   H131      1.0  0.54964  0.54455  0.04290  1.0000
  C   C80       1.0  0.42242  0.38032  0.98449  1.0000
  C   C81       1.0  0.54767  0.37021  0.01412  1.0000
  H   H132      1.0  0.38664  0.55013  0.86338  1.0000
  H   H133      1.0  0.48348  0.18275  0.08003  1.0000
  S   S33       1.0  0.57695  0.10755  0.97802  1.0000
  H   H134      1.0  0.57807  0.20685  0.06389  1.0000
  H   H135      1.0  0.11420  0.62660  0.26884  1.0000
  S   S34       1.0  0.12599  0.65579  0.33518  1.0000
  H   H136      1.0  0.50622  0.91204  0.23680  1.0000
  H   H137      1.0  0.28739  0.61928  0.33533  1.0000
  H   H138      1.0  0.10670  0.65616  0.21171  1.0000
  C   C82       1.0  0.10126  0.62200  0.21615  1.0000
  C   C83       1.0  0.10548  0.60527  0.24858  1.0000
  C   C84       1.0  0.54618  0.00259  0.33652  1.0000
  H   H139      1.0  0.57815  0.86841  0.30289  1.0000
  H   H140      1.0  0.50655  0.83145  0.23697  1.0000
  H   H141      1.0  0.51673  0.83202  0.28130  1.0000
  H   H142      1.0  0.55132  0.80266  0.25331  1.0000
  C   C85       1.0  0.53209  0.83282  0.25594  1.0000
  S   S35       1.0  0.09077  0.61538  0.14848  1.0000
  N   N12       1.0  0.55864  0.87192  0.25164  1.0000
  H   H143      1.0  0.55473  0.87348  0.19768  1.0000
  C   C86       1.0  0.51381  0.03213  0.32958  1.0000
  H   H144      1.0  0.48987  0.07909  0.29460  1.0000
  C   C87       1.0  0.51513  0.05652  0.30001  1.0000
  C   C88       1.0  0.53203  0.91121  0.25557  1.0000
  H   H145      1.0  0.55109  0.94128  0.25210  1.0000
  H   H146      1.0  0.51720  0.91313  0.28106  1.0000
  C   C89       1.0  0.54927  0.05202  0.27760  1.0000
  S   S36       1.0  0.55336  0.08603  0.24263  1.0000
  H   H147      1.0  0.23372  0.61973  0.17737  1.0000
  H   H148      1.0  0.48770  0.03629  0.34687  1.0000
  H   H149      1.0  0.21224  0.60945  0.13646  1.0000
  H   H150      1.0  0.17810  0.61006  0.17257  1.0000
  C   C90       1.0  0.09066  0.59466  0.18947  1.0000
  C   C91       1.0  0.21016  0.60018  0.16335  1.0000
  C   C92       1.0  0.24305  0.63867  0.37426  1.0000
  H   H151      1.0  0.27050  0.68291  0.44918  1.0000
  C   C93       1.0  0.23817  0.65701  0.40623  1.0000
  C   C94       1.0  0.27410  0.66939  0.42420  1.0000
  Fe  Fe18      1.0  0.13387  0.64521  0.39057  1.0000
  S   S37       1.0  0.18761  0.66608  0.42379  1.0000
  N   N13       1.0  0.09885  0.62796  0.51072  1.0000
  C   C95       1.0  0.29637  0.76541  0.37375  1.0000
  N   N14       1.0  0.28968  0.80082  0.39841  1.0000
  H   H152      1.0  0.27064  0.74076  0.37540  1.0000
  C   C96       1.0  0.10887  0.59672  0.48352  1.0000
  H   H153      1.0  0.12482  0.64836  0.55785  1.0000
  C   C97       1.0  0.28926  0.78280  0.43271  1.0000
  H   H154      1.0  0.26267  0.75955  0.43632  1.0000
  H   H155      1.0  0.16357  0.63197  0.52680  1.0000
  H   H156      1.0  0.55367  0.59715  0.37281  1.0000
  H   H157      1.0  0.34916  0.61100  0.46770  1.0000
  H   H158      1.0  0.12929  0.68049  0.48454  1.0000
  C   C98       1.0  0.09847  0.67238  0.49696  1.0000
  C   C99       1.0  0.13133  0.62495  0.53702  1.0000
  H   H159      1.0  0.28541  0.80878  0.45197  1.0000
  H   H160      1.0  0.22179  0.79896  0.39419  1.0000
  H   H161      1.0  0.14056  0.60320  0.47196  1.0000
  H   H162      1.0  0.21547  0.62868  0.36034  1.0000
  H   H163      1.0  0.09233  0.69692  0.51702  1.0000
  C   C100      1.0  0.24865  0.82230  0.39202  1.0000
  H   H164      1.0  0.32688  0.74819  0.37796  1.0000
  C   C101      1.0  0.31469  0.66494  0.40980  1.0000
  H   H165      1.0  0.31936  0.76533  0.43819  1.0000
  H   H166      1.0  0.55468  0.62984  0.56887  1.0000
  H   H167      1.0  0.33104  0.82249  0.51255  1.0000
  S   S38       1.0  0.53188  0.78100  0.35047  1.0000
  C   C102      1.0  0.31958  0.64697  0.37769  1.0000
  H   H168      1.0  0.34209  0.67563  0.42351  1.0000
  Fe  Fe19      1.0  0.49908  0.66374  0.43148  1.0000
  S   S39       1.0  0.54273  0.61418  0.45346  1.0000
  S   S40       1.0  0.49087  0.66992  0.37598  1.0000
  Fe  Fe20      1.0  0.42138  0.67470  0.38811  1.0000
  S   S41       1.0  0.42948  0.66157  0.44271  1.0000
  Fe  Fe21      1.0  0.49241  0.74130  0.38634  1.0000
  S   S42       1.0  0.39467  0.76466  0.48741  1.0000
  Fe  Fe22      1.0  0.43449  0.73368  0.44713  1.0000
  S   S43       1.0  0.42176  0.74695  0.39294  1.0000
  S   S44       1.0  0.50530  0.73503  0.44148  1.0000
  C   C103      1.0  0.38466  0.81908  0.47868  1.0000
  H   H169      1.0  0.43611  0.82537  0.44294  1.0000
  C   C104      1.0  0.35063  0.83999  0.49472  1.0000
  S   S45       1.0  0.37017  0.64117  0.35928  1.0000
  H   H170      1.0  0.35566  0.81783  0.40053  1.0000
  C   C105      1.0  0.40982  0.84152  0.45545  1.0000
  H   H171      1.0  0.24784  0.83640  0.36638  1.0000
  H   H172      1.0  0.24252  0.84912  0.41028  1.0000
  H   H173      1.0  0.31518  0.89953  0.49985  1.0000
  H   H174      1.0  0.39730  0.98979  0.56632  1.0000
  H   H175      1.0  0.46604  0.07295  0.54645  1.0000
  S   S46       1.0  0.43865  0.03128  0.40372  1.0000
  H   H176      1.0  0.44363  0.99103  0.53995  1.0000
  C   C106      1.0  0.48427  0.07061  0.56896  1.0000
  Fe  Fe23      1.0  0.50268  0.00245  0.41341  1.0000
  S   S47       1.0  0.53356  0.00978  0.53593  1.0000
  C   C107      1.0  0.32435  0.83281  0.39523  1.0000
  H   H177      1.0  0.32613  0.84676  0.36956  1.0000
  C   C108      1.0  0.45811  0.93906  0.59218  1.0000
  H   H178      1.0  0.46835  0.87377  0.54734  1.0000
  Fe  Fe24      1.0  0.41898  0.99692  0.45071  1.0000
  H   H179      1.0  0.32000  0.86027  0.41321  1.0000
  C   C109      1.0  0.34156  0.88336  0.48745  1.0000
  C   C110      1.0  0.45692  0.90528  0.53741  1.0000
  H   H180      1.0  0.39664  0.96456  0.52556  1.0000
  H   H181      1.0  0.48524  0.92422  0.52918  1.0000
  S   S48       1.0  0.52567  0.05778  0.44469  1.0000
  S   S49       1.0  0.35783  0.96129  0.45849  1.0000
  N   N15       1.0  0.43156  0.92943  0.56276  1.0000
  C   C111      1.0  0.36743  0.90624  0.46501  1.0000
  S   S50       1.0  0.43382  0.05259  0.48484  1.0000
  S   S51       1.0  0.48126  0.96348  0.45771  1.0000
  C   C112      1.0  0.39472  0.90304  0.57331  1.0000
  Fe  Fe25      1.0  0.45996  0.08411  0.43850  1.0000
  S   S52       1.0  0.54650  0.97377  0.37432  1.0000
  H   H182      1.0  0.37379  0.89585  0.55174  1.0000
  C   C113      1.0  0.41652  0.97046  0.54804  1.0000
  C   C114      1.0  0.51941  0.04298  0.57024  1.0000
  Fe  Fe26      1.0  0.49796  0.02176  0.48833  1.0000
  H   H183      1.0  0.42064  0.90255  0.43067  1.0000
  C   C115      1.0  0.40131  0.88525  0.44874  1.0000
  H   H184      1.0  0.43803  0.89814  0.51463  1.0000
  H   H185      1.0  0.40483  0.87140  0.58394  1.0000
  C   C116      1.0  0.56444  0.60499  0.58742  1.0000
  H   H186      1.0  0.08524  0.59873  0.46310  1.0000
  H   H187      1.0  0.37515  0.92017  0.59268  1.0000
  H   H188      1.0  0.48670  0.95809  0.58487  1.0000
  C   C117      1.0  0.28375  0.63339  0.36012  1.0000
  H   H189      1.0  0.29712  0.77777  0.34758  1.0000
  C   C118      1.0  0.11855  0.64466  0.70618  1.0000
  C   C119      1.0  0.13714  0.77940  0.78930  1.0000
  N   N16       1.0  0.16056  0.77102  0.82052  1.0000
  H   H190      1.0  0.14783  0.63785  0.71902  1.0000
  C   C120      1.0  0.11433  0.63268  0.67248  1.0000
  H   H191      1.0  0.53987  0.60396  0.60770  1.0000
  H   H192      1.0  0.14027  0.61656  0.65947  1.0000
  H   H193      1.0  0.14286  0.75334  0.77033  1.0000
  H   H194      1.0  0.15072  0.70211  0.81777  1.0000
  H   H195      1.0  0.21912  0.79886  0.80253  1.0000
  C   C121      1.0  0.20647  0.76791  0.81283  1.0000
  H   H196      1.0  0.21334  0.74189  0.79408  1.0000
  C   C122      1.0  0.14579  0.72985  0.83538  1.0000
  C   C123      1.0  0.46489  0.74952  0.84392  1.0000
  H   H197      1.0  0.10226  0.78059  0.79407  1.0000
  H   H198      1.0  0.16384  0.83843  0.83459  1.0000
  S   S53       1.0  0.33758  0.75478  0.83214  1.0000
  S   S54       1.0  0.55774  0.91121  0.81379  1.0000
  C   C124      1.0  0.15266  0.80677  0.84463  1.0000
  C   C125      1.0  0.08471  0.66423  0.72352  1.0000
  C   C126      1.0  0.40348  0.70926  0.80444  1.0000
  C   C127      1.0  0.39143  0.74171  0.82730  1.0000
  C   C128      1.0  0.44596  0.69612  0.80198  1.0000
  H   H199      1.0  0.37985  0.69378  0.78902  1.0000
  C   C129      1.0  0.47667  0.71626  0.82167  1.0000
  H   H200      1.0  0.45508  0.67048  0.78471  1.0000
  S   S55       1.0  0.52891  0.69707  0.82027  1.0000
  S   S56       1.0  0.56745  0.80051  0.77018  1.0000
  Fe  Fe27      1.0  0.57482  0.75119  0.81072  1.0000
  H   H201      1.0  0.44045  0.95858  0.61135  1.0000
  H   H202      1.0  0.14672  0.81072  0.77776  1.0000
  H   H203      1.0  0.53718  0.07797  0.81534  1.0000
  H   H204      1.0  0.54956  0.06361  0.65051  1.0000
  H   H205      1.0  0.11133  0.73131  0.84161  1.0000
  C   C130      1.0  0.53157  0.06596  0.62771  1.0000
  H   H206      1.0  0.35538  0.61221  0.83176  1.0000
  H   H207      1.0  0.56980  0.01882  0.60102  1.0000
  H   H208      1.0  0.56719  0.04876  0.75458  1.0000
  H   H209      1.0  0.46931  0.90884  0.60436  1.0000
  C   C131      1.0  0.54277  0.04036  0.59979  1.0000
  S   S57       1.0  0.09061  0.67601  0.76623  1.0000
  C   C132      1.0  0.56294  0.98921  0.78220  1.0000
  H   H210      1.0  0.52878  0.98724  0.78038  1.0000
  H   H211      1.0  0.22503  0.76025  0.83565  1.0000
  H   H212      1.0  0.43098  0.61352  0.84537  1.0000
  H   H213      1.0  0.57715  0.89500  0.69943  1.0000
  H   H214      1.0  0.15188  0.68277  0.93245  1.0000
  C   C133      1.0  0.14051  0.71580  0.93063  1.0000
  C   C134      1.0  0.16595  0.75013  0.94140  1.0000
  S   S58       1.0  0.21598  0.73938  0.95777  1.0000
  S   S59       1.0  0.25934  0.81942  0.88794  1.0000
  C   C135      1.0  0.11059  0.80092  0.92673  1.0000
  C   C136      1.0  0.15122  0.79275  0.93913  1.0000
  H   H215      1.0  0.17079  0.81938  0.94756  1.0000
  Fe  Fe28      1.0  0.26356  0.78678  0.93782  1.0000
  N   N17       1.0  0.30548  0.71389  0.03244  1.0000
  S   S60       1.0  0.29057  0.84442  0.96435  1.0000
  C   C137      1.0  0.32043  0.69015  0.00222  1.0000
  H   H216      1.0  0.29727  0.69299  0.98146  1.0000
  H   H217      1.0  0.23977  0.70036  0.02319  1.0000
  C   C138      1.0  0.26383  0.69659  0.04323  1.0000
  H   H218      1.0  0.26583  0.66146  0.04892  1.0000
  H   H219      1.0  0.16284  0.72239  0.85895  1.0000
  S   S61       1.0  0.32645  0.75637  0.92716  1.0000
  Fe  Fe29      1.0  0.32466  0.79300  0.87910  1.0000
  H   H220      1.0  0.25156  0.71349  0.06606  1.0000
  C   C139      1.0  0.10064  0.72416  0.91695  1.0000
  C   C140      1.0  0.30103  0.76041  0.02465  1.0000
  H   H221      1.0  0.27751  0.76561  0.00454  1.0000
  H   H222      1.0  0.29016  0.77943  0.04693  1.0000
  H   H223      1.0  0.32613  0.72567  0.08289  1.0000
  H   H224      1.0  0.16936  0.80111  0.86863  1.0000
  H   H225      1.0  0.33161  0.77451  0.01592  1.0000
  H   H226      1.0  0.09882  0.83388  0.92568  1.0000
  H   H227      1.0  0.31568  0.61688  0.86444  1.0000
  H   H228      1.0  0.11821  0.81007  0.85079  1.0000
  C   C141      1.0  0.34807  0.62728  0.85660  1.0000
  H   H229      1.0  0.22810  0.60155  0.07777  1.0000
  C   C142      1.0  0.36984  0.63782  0.91383  1.0000
  C   C143      1.0  0.08544  0.76668  0.91529  1.0000
  H   H230      1.0  0.36134  0.06876  0.94222  1.0000
  H   H231      1.0  0.49807  0.93614  0.00206  1.0000
  H   H232      1.0  0.32456  0.65495  0.00751  1.0000
  C   C144      1.0  0.33656  0.70858  0.05958  1.0000
  H   H233      1.0  0.34695  0.66304  0.85279  1.0000
  H   H234      1.0  0.34118  0.67382  0.06591  1.0000
  H   H235      1.0  0.57114  0.62101  0.92445  1.0000
  H   H236      1.0  0.35147  0.70286  0.99302  1.0000
  H   H237      1.0  0.48853  0.76518  0.85920  1.0000
  H   H238      1.0  0.36811  0.72172  0.05209  1.0000
  H   H239      1.0  0.44752  0.62005  0.88806  1.0000
  H   H240      1.0  0.42398  0.66454  0.86628  1.0000
  H   H241      1.0  0.43981  0.74658  0.03094  1.0000
  C   C145      1.0  0.43506  0.74772  0.94576  1.0000
  C   C146      1.0  0.45202  0.70667  0.93895  1.0000
  C   C147      1.0  0.46268  0.67906  0.96529  1.0000
  C   C148      1.0  0.45861  0.69358  0.99847  1.0000
  C   C149      1.0  0.44300  0.73534  0.00528  1.0000
  H   H242      1.0  0.45592  0.69616  0.91326  1.0000
  H   H243      1.0  0.46802  0.67290  0.01887  1.0000
  C   C150      1.0  0.43023  0.76190  0.97891  1.0000
  H   H244      1.0  0.42568  0.76844  0.92532  1.0000
  S   S62       1.0  0.40471  0.81107  0.98726  1.0000
  Fe  Fe30      1.0  0.35354  0.81682  0.94916  1.0000
  H   H245      1.0  0.53025  0.67933  0.89795  1.0000
  H   H246      1.0  0.54244  0.71533  0.93213  1.0000
  C   C151      1.0  0.55398  0.70301  0.90737  1.0000
  S   S63       1.0  0.47951  0.62608  0.95633  1.0000
  N   N18       1.0  0.37998  0.61545  0.88185  1.0000
  H   H247      1.0  0.55414  0.73064  0.88958  1.0000
  H   H248      1.0  0.41303  0.78709  0.86455  1.0000
  H   H249      1.0  0.39285  0.62912  0.93363  1.0000
  C   C152      1.0  0.42247  0.62887  0.86987  1.0000
  C   C153      1.0  0.41491  0.92435  0.99068  1.0000
  C   C154      1.0  0.43040  0.96425  0.94005  1.0000
  H   H250      1.0  0.33762  0.62921  0.92330  1.0000
  H   H251      1.0  0.08124  0.69751  0.90869  1.0000
  H   H252      1.0  0.37103  0.67367  0.91084  1.0000
  Fe  Fe31      1.0  0.29289  0.87457  0.91318  1.0000
  S   S64       1.0  0.27862  0.94451  0.90331  1.0000
  C   C155      1.0  0.30200  0.97709  0.93414  1.0000
  H   H253      1.0  0.28534  0.93454  0.97478  1.0000
  C   C156      1.0  0.30227  0.96340  0.96751  1.0000
  H   H254      1.0  0.32191  0.02662  0.89944  1.0000
  C   C157      1.0  0.32228  0.01582  0.92523  1.0000
  H   H255      1.0  0.51247  0.07927  0.85623  1.0000
  H   H256      1.0  0.40182  0.94989  0.92815  1.0000
  C   C158      1.0  0.32394  0.98742  0.99172  1.0000
  H   H257      1.0  0.32450  0.97632  0.01743  1.0000
  C   C159      1.0  0.34454  0.03964  0.94941  1.0000
  H   H258      1.0  0.45389  0.97130  0.91976  1.0000
  S   S65       1.0  0.35840  0.85106  0.89988  1.0000
  H   H259      1.0  0.50888  0.96708  0.96477  1.0000
  H   H260      1.0  0.47711  0.87210  0.96812  1.0000
  H   H261      1.0  0.38690  0.90915  0.97862  1.0000
  S   S66       1.0  0.45886  0.09290  0.94397  1.0000
  C   C160      1.0  0.46394  0.89502  0.94941  1.0000
  H   H262      1.0  0.51717  0.99834  0.05300  1.0000
  S   S67       1.0  0.37906  0.04975  0.01195  1.0000
  H   H263      1.0  0.42067  0.99584  0.95129  1.0000
  H   H264      1.0  0.43796  0.87767  0.93634  1.0000
  H   H265      1.0  0.51591  0.04826  0.00438  1.0000
  H   H266      1.0  0.40365  0.95380  0.00438  1.0000
  C   C161      1.0  0.48346  0.95731  0.98280  1.0000
  H   H267      1.0  0.48926  0.90193  0.93049  1.0000
  N   N19       1.0  0.44820  0.93518  0.96569  1.0000
  C   C162      1.0  0.54464  0.01794  0.04704  1.0000
  H   H268      1.0  0.47204  0.98716  0.99594  1.0000
  C   C163      1.0  0.54388  0.04615  0.01964  1.0000
  H   H269      1.0  0.42676  0.90117  0.00973  1.0000
  C   C164      1.0  0.34609  0.02484  0.98254  1.0000
  C   C165      1.0  0.42214  0.76183  0.84705  1.0000
  H   H270      1.0  0.57824  0.04812  0.88051  1.0000
  C   C166      1.0  0.71017  0.16181  0.13839  1.0000
  C   C167      1.0  0.71388  0.20248  0.15377  1.0000
  C   C168      1.0  0.69644  0.23930  0.13873  1.0000
  H   H271      1.0  0.73002  0.20546  0.17748  1.0000
  H   H272      1.0  0.69872  0.27052  0.15107  1.0000
  S   S68       1.0  0.76608  0.32470  0.11686  1.0000
  S   S69       1.0  0.73494  0.11667  0.15611  1.0000
  C   C169      1.0  0.68923  0.15803  0.10776  1.0000
  C   C170      1.0  0.67571  0.23562  0.10805  1.0000
  H   H273      1.0  0.80300  0.23828  0.14367  1.0000
  H   H274      1.0  0.60254  0.16073  0.12678  1.0000
  H   H275      1.0  0.84128  0.27600  0.09720  1.0000
  C   C171      1.0  0.62782  0.48865  0.10317  1.0000
  S   S70       1.0  0.78461  0.42741  0.09933  1.0000
  C   C172      1.0  0.92102  0.56408  0.18827  1.0000
  H   H276      1.0  0.98765  0.51160  0.17614  1.0000
  Fe  Fe32      1.0  0.06790  0.56797  0.11005  1.0000
  H   H277      1.0  0.80372  0.18018  0.14543  1.0000
  C   C173      1.0  0.82226  0.20906  0.13722  1.0000
  H   H278      1.0  0.85149  0.21022  0.15253  1.0000
  H   H279      1.0  0.69641  0.55125  0.13230  1.0000
  H   H280      1.0  0.88660  0.16583  0.10759  1.0000
  H   H281      1.0  0.64814  0.55619  0.32603  1.0000
  C   C174      1.0  0.68378  0.56462  0.15646  1.0000
  H   H282      1.0  0.66146  0.54019  0.16712  1.0000
  S   S71       1.0  0.67492  0.55833  0.25518  1.0000
  H   H283      1.0  0.76474  0.54176  0.25390  1.0000
  Fe  Fe33      1.0  0.75669  0.38929  0.14171  1.0000
  C   C175      1.0  0.70470  0.51502  0.23895  1.0000
  C   C176      1.0  0.68441  0.48074  0.22266  1.0000
  C   C177      1.0  0.70844  0.44713  0.20814  1.0000
  C   C178      1.0  0.75264  0.44730  0.21062  1.0000
  C   C179      1.0  0.77284  0.48116  0.22753  1.0000
  C   C180      1.0  0.74892  0.51537  0.24127  1.0000
  H   H284      1.0  0.65021  0.48034  0.22094  1.0000
  S   S72       1.0  0.78297  0.40591  0.19204  1.0000
  H   H285      1.0  0.69271  0.42053  0.19574  1.0000
  S   S73       1.0  0.68934  0.39658  0.12511  1.0000
  H   H286      1.0  0.64975  0.47475  0.12060  1.0000
  H   H287      1.0  0.80698  0.48122  0.22953  1.0000
  H   H288      1.0  0.71071  0.56728  0.17416  1.0000
  C   C181      1.0  0.58513  0.49333  0.11245  1.0000
  H   H289      1.0  0.60294  0.57842  0.13834  1.0000
  Fe  Fe34      1.0  0.02322  0.48257  0.09981  1.0000
  C   C182      1.0  0.95296  0.40337  0.10752  1.0000
  S   S74       1.0  0.98998  0.43248  0.13100  1.0000
  C   C183      1.0  0.90572  0.48797  0.18079  1.0000
  N   N20       1.0  0.92784  0.52014  0.20187  1.0000
  H   H290      1.0  0.91783  0.48846  0.15441  1.0000
  C   C184      1.0  0.88313  0.37121  0.10372  1.0000
  C   C185      1.0  0.91493  0.39050  0.12282  1.0000
  H   H291      1.0  0.88681  0.57308  0.18879  1.0000
  H   H292      1.0  0.87091  0.49405  0.18033  1.0000
  C   C186      1.0  0.97376  0.51036  0.20191  1.0000
  H   H293      1.0  0.85337  0.36270  0.11563  1.0000
  H   H294      1.0  0.90947  0.39646  0.14926  1.0000
  H   H295      1.0  0.93793  0.58911  0.20321  1.0000
  H   H296      1.0  0.93269  0.56659  0.16191  1.0000
  H   H297      1.0  0.91479  0.48519  0.24740  1.0000
  H   H298      1.0  0.87643  0.52632  0.23750  1.0000
  H   H299      1.0  0.91049  0.45444  0.19026  1.0000
  H   H300      1.0  0.99151  0.53392  0.21767  1.0000
  C   C187      1.0  0.91083  0.51811  0.23655  1.0000
  H   H301      1.0  0.92714  0.54163  0.25324  1.0000
  H   H302      1.0  0.98014  0.47722  0.21162  1.0000
  S   S75       1.0  0.99947  0.55030  0.10755  1.0000
  H   H303      1.0  0.83772  0.13757  0.10056  1.0000
  H   H304      1.0  0.07457  0.52932  0.17512  1.0000
  H   H305      1.0  0.59174  0.21963  0.34012  1.0000
  H   H306      1.0  0.58138  0.21444  0.12508  1.0000
  H   H307      1.0  0.61204  0.14168  0.34221  1.0000
  N   N21       1.0  0.83236  0.20706  0.10091  1.0000
  H   H308      1.0  0.88875  0.24608  0.10490  1.0000
  H   H309      1.0  0.63798  0.58895  0.10354  1.0000
  H   H310      1.0  0.68508  0.59163  0.34610  1.0000
  H   H311      1.0  0.05606  0.58493  0.53662  1.0000
  H   H312      1.0  0.58857  0.17941  0.39425  1.0000
  C   C188      1.0  0.58073  0.57629  0.36473  1.0000
  H   H313      1.0  0.66129  0.54778  0.36924  1.0000
  S   S76       1.0  0.68125  0.47055  0.54429  1.0000
  C   C189      1.0  0.63784  0.43615  0.55129  1.0000
  C   C190      1.0  0.63745  0.40902  0.57925  1.0000
  H   H314      1.0  0.60189  0.45961  0.50941  1.0000
  C   C191      1.0  0.60150  0.43957  0.53161  1.0000
  H   H315      1.0  0.60908  0.53288  0.53273  1.0000
  C   C192      1.0  0.60318  0.56493  0.54481  1.0000
  H   H316      1.0  0.63404  0.57589  0.55509  1.0000
  C   C193      1.0  0.60004  0.38817  0.58921  1.0000
  C   C194      1.0  0.65517  0.57311  0.35010  1.0000
  H   H317      1.0  0.58433  0.55083  0.38424  1.0000
  H   H318      1.0  0.58713  0.49731  0.58628  1.0000
  C   C195      1.0  0.91853  0.59081  0.35756  1.0000
  H   H319      1.0  0.59386  0.58796  0.52473  1.0000
  C   C196      1.0  0.01325  0.53817  0.46182  1.0000
  C   C197      1.0  0.05810  0.47595  0.47274  1.0000
  H   H320      1.0  0.89533  0.56450  0.35265  1.0000
  H   H321      1.0  0.83749  0.42442  0.57367  1.0000
  H   H322      1.0  0.99175  0.49628  0.53883  1.0000
  C   C198      1.0  0.00686  0.49991  0.51460  1.0000
  Fe  Fe35      1.0  0.70599  0.49045  0.59470  1.0000
  H   H323      1.0  0.94591  0.57626  0.37092  1.0000
  H   H324      1.0  0.87544  0.42642  0.53972  1.0000
  C   C199      1.0  0.04533  0.50956  0.45147  1.0000
  Fe  Fe36      1.0  0.06524  0.46463  0.58250  1.0000
  N   N22       1.0  0.90248  0.42879  0.58896  1.0000
  H   H325      1.0  0.95282  0.42619  0.55189  1.0000
  H   H326      1.0  0.94637  0.37764  0.57612  1.0000
  C   C200      1.0  0.99348  0.53279  0.49311  1.0000
  H   H327      1.0  0.96850  0.55476  0.50110  1.0000
  C   C201      1.0  0.94474  0.41366  0.57734  1.0000
  H   H328      1.0  0.86914  0.37758  0.56373  1.0000
  C   C202      1.0  0.03933  0.47163  0.50455  1.0000
  S   S77       1.0  0.05795  0.43257  0.53250  1.0000
  H   H329      1.0  0.90914  0.49118  0.56541  1.0000
  C   C203      1.0  0.90200  0.47669  0.59036  1.0000
  C   C204      1.0  0.86973  0.41362  0.56545  1.0000
  H   H330      1.0  0.97015  0.42468  0.59457  1.0000
  S   S78       1.0  0.99863  0.58221  0.43699  1.0000
  H   H331      1.0  0.06012  0.51309  0.42703  1.0000
  H   H332      1.0  0.66597  0.40464  0.59353  1.0000
  H   H333      1.0  0.86089  0.58387  0.40752  1.0000
  Fe  Fe37      1.0  0.62211  0.19952  0.68041  1.0000
  S   S79       1.0  0.65619  0.23877  0.64101  1.0000
  C   C205      1.0  0.68478  0.28317  0.65662  1.0000
  C   C206      1.0  0.69553  0.28552  0.69052  1.0000
  C   C207      1.0  0.71376  0.32333  0.70355  1.0000
  C   C208      1.0  0.69453  0.31791  0.63537  1.0000
  H   H334      1.0  0.68919  0.25852  0.70687  1.0000
  H   H335      1.0  0.72089  0.32545  0.73000  1.0000
  S   S80       1.0  0.63957  0.19147  0.73436  1.0000
  H   H336      1.0  0.68654  0.31615  0.60906  1.0000
  Fe  Fe38      1.0  0.61777  0.12275  0.72829  1.0000
  S   S81       1.0  0.60696  0.12916  0.67294  1.0000
  H   H337      1.0  0.61142  0.29981  0.69833  1.0000
  H   H338      1.0  0.63161  0.14234  0.83998  1.0000
  C   C209      1.0  0.60031  0.13342  0.82942  1.0000
  H   H339      1.0  0.60666  0.11449  0.80601  1.0000
  Fe  Fe39      1.0  0.07626  0.55095  0.61762  1.0000
  H   H340      1.0  0.62136  0.33119  0.73544  1.0000
  H   H341      1.0  0.63598  0.39710  0.70316  1.0000
  H   H342      1.0  0.62921  0.36647  0.66544  1.0000
  C   C210      1.0  0.61201  0.38603  0.68468  1.0000
  C   C211      1.0  0.72146  0.35884  0.68268  1.0000
  C   C212      1.0  0.71283  0.35579  0.64841  1.0000
  S   S82       1.0  0.73844  0.40790  0.70018  1.0000
  H   H343      1.0  0.71934  0.38297  0.63216  1.0000
  S   S83       1.0  0.73509  0.53141  0.68354  1.0000
  S   S84       1.0  0.66683  0.47528  0.64045  1.0000
  Fe  Fe40      1.0  0.72898  0.46314  0.66492  1.0000
  Fe  Fe41      1.0  0.67691  0.54480  0.65382  1.0000
  Fe  Fe42      1.0  0.76961  0.54170  0.63485  1.0000
  S   S85       1.0  0.76793  0.47217  0.61804  1.0000
  S   S86       1.0  0.82936  0.58081  0.63481  1.0000
  H   H344      1.0  0.82869  0.50285  0.67489  1.0000
  C   C213      1.0  0.59654  0.32203  0.71710  1.0000
  H   H345      1.0  0.59984  0.36774  0.61109  1.0000
  H   H346      1.0  0.89201  0.37521  0.62254  1.0000
  C   C214      1.0  0.05707  0.49855  0.75934  1.0000
  C   C215      1.0  0.94498  0.54165  0.66442  1.0000
  C   C216      1.0  0.02852  0.56537  0.73791  1.0000
  H   H347      1.0  0.58414  0.16405  0.82207  1.0000
  S   S87       1.0  0.07341  0.42678  0.62968  1.0000
  S   S88       1.0  0.01917  0.51174  0.60511  1.0000
  H   H348      1.0  0.79979  0.58876  0.70889  1.0000
  H   H349      1.0  0.04102  0.47928  0.73952  1.0000
  H   H350      1.0  0.06079  0.47713  0.78150  1.0000
  S   S89       1.0  0.97774  0.46583  0.68876  1.0000
  H   H351      1.0  0.05854  0.54300  0.81765  1.0000
  C   C217      1.0  0.89425  0.48901  0.68496  1.0000
  H   H352      1.0  0.92596  0.48917  0.60816  1.0000
  H   H353      1.0  0.97062  0.55471  0.78721  1.0000
  H   H354      1.0  0.97732  0.55256  0.66124  1.0000
  H   H355      1.0  0.06009  0.57520  0.72783  1.0000
  H   H356      1.0  0.91846  0.42073  0.64088  1.0000
  H   H357      1.0  0.97232  0.50693  0.76116  1.0000
  N   N23       1.0  0.03263  0.53804  0.76806  1.0000
  C   C218      1.0  0.86102  0.51401  0.67215  1.0000
  H   H358      1.0  0.86258  0.42344  0.63301  1.0000
  Fe  Fe43      1.0  0.03236  0.47818  0.65350  1.0000
  C   C219      1.0  0.98998  0.52568  0.78046  1.0000
  C   C220      1.0  0.89345  0.41126  0.62278  1.0000
  C   C221      1.0  0.05502  0.56252  0.79442  1.0000
  H   H359      1.0  0.88736  0.45857  0.69728  1.0000
  C   C222      1.0  0.86988  0.55245  0.65492  1.0000
  H   H360      1.0  0.99180  0.50546  0.80347  1.0000
  C   C223      1.0  0.91175  0.56696  0.65205  1.0000
  H   H361      1.0  0.01170  0.54795  0.71756  1.0000
  C   C224      1.0  0.93634  0.50188  0.67981  1.0000
  S   S90       1.0  0.71175  0.56134  0.60645  1.0000
  H   H362      1.0  0.61465  0.53972  0.60768  1.0000
  H   H363      1.0  0.59921  0.41517  0.67192  1.0000
  S   S91       1.0  0.62062  0.58245  0.67241  1.0000
  H   H364      1.0  0.87056  0.48937  0.59893  1.0000
  H   H365      1.0  0.03737  0.59233  0.80167  1.0000
  C   C225      1.0  0.58360  0.53047  0.59698  1.0000
  H   H366      1.0  0.65831  0.19254  0.06795  1.0000
  H   H367      1.0  0.77268  0.23581  0.08757  1.0000
  S   S92       1.0  0.65468  0.28179  0.08888  1.0000
  H   H368      1.0  0.77316  0.17773  0.08751  1.0000
  C   C226      1.0  0.79258  0.20689  0.08166  1.0000
  H   H369      1.0  0.79891  0.20691  0.05414  1.0000
  H   H370      1.0  0.59784  0.14258  0.89686  1.0000
  Fe  Fe44      1.0  0.70149  0.33578  0.09560  1.0000
  H   H371      1.0  0.68706  0.12673  0.09547  1.0000
  H   H372      1.0  0.86549  0.24550  0.06393  1.0000
  H   H373      1.0  0.01305  0.52644  0.92076  1.0000
  H   H374      1.0  0.59578  0.15135  0.06469  1.0000
  H   H375      1.0  0.86439  0.16420  0.06625  1.0000
  C   C227      1.0  0.67259  0.19509  0.09237  1.0000
  H   H376      1.0  0.87404  0.55244  0.01908  1.0000
  H   H377      1.0  0.00847  0.53546  0.98250  1.0000
  S   S93       1.0  0.02564  0.48705  0.04367  1.0000
  C   C228      1.0  0.91391  0.47523  0.01946  1.0000
  H   H378      1.0  0.93419  0.36720  0.02813  1.0000
  C   C229      1.0  0.87571  0.49347  0.96934  1.0000
  C   C230      1.0  0.59821  0.39106  0.05627  1.0000
  H   H379      1.0  0.62191  0.36677  0.04714  1.0000
  H   H380      1.0  0.60484  0.42224  0.04324  1.0000
  C   C231      1.0  0.96018  0.39441  0.07346  1.0000
  Fe  Fe45      1.0  0.71833  0.43015  0.08057  1.0000
  C   C232      1.0  0.61394  0.52341  0.05016  1.0000
  H   H381      1.0  0.62496  0.53476  0.02593  1.0000
  S   S94       1.0  0.72496  0.36974  0.04939  1.0000
  S   S95       1.0  0.69409  0.49206  0.05833  1.0000
  C   C233      1.0  0.64198  0.50238  0.07161  1.0000
  Fe  Fe46      1.0  0.78862  0.36335  0.07293  1.0000
  H   H382      1.0  0.81092  0.45349  0.00173  1.0000
  H   H383      1.0  0.82150  0.53134  0.01346  1.0000
  C   C234      1.0  0.84342  0.44735  0.01120  1.0000
  H   H384      1.0  0.84040  0.43953  0.03835  1.0000
  H   H385      1.0  0.60412  0.39640  0.08346  1.0000
  C   C235      1.0  0.88974  0.36349  0.06947  1.0000
  S   S96       1.0  0.84788  0.34438  0.04510  1.0000
  H   H386      1.0  0.85067  0.51808  0.05046  1.0000
  C   C236      1.0  0.92874  0.37383  0.05451  1.0000
  H   H387      1.0  0.84440  0.50075  0.95808  1.0000
  C   C237      1.0  0.85363  0.52340  0.02292  1.0000
  H   H388      1.0  0.88955  0.46514  0.95566  1.0000
  S   S97       1.0  0.07412  0.58120  0.05494  1.0000
  C   C238      1.0  0.95987  0.58459  0.98077  1.0000
  H   H389      1.0  0.93609  0.50276  0.01570  1.0000
  S   S98       1.0  0.97213  0.57184  0.86718  1.0000
  S   S99       1.0  0.95686  0.59241  0.02428  1.0000
  C   C239      1.0  0.98819  0.55451  0.96664  1.0000
  Fe  Fe47      1.0  0.00753  0.55664  0.05201  1.0000
  C   C240      1.0  0.96613  0.57541  0.91084  1.0000
  H   H390      1.0  0.91213  0.46875  0.04692  1.0000
  H   H391      1.0  0.92849  0.44630  0.00714  1.0000
  N   N24       1.0  0.87166  0.48488  0.00570  1.0000
  H   H392      1.0  0.85586  0.41768  0.99839  1.0000
  H   H393      1.0  0.99009  0.40301  0.06180  1.0000
  H   H394      1.0  0.89678  0.52168  0.96430  1.0000
  C   C241      1.0  0.99083  0.54944  0.93168  1.0000
  C   C242      1.0  0.85814  0.24517  0.09134  1.0000
  C   C243      1.0  0.85639  0.16690  0.09347  1.0000
  Fe  Fe48      1.0  0.71862  0.61444  0.26143  1.0000
  S   S100      1.0  0.76564  0.62312  0.30236  1.0000
  Fe  Fe49      1.0  0.80792  0.65037  0.26189  1.0000
  S   S101      1.0  0.76272  0.63547  0.22039  1.0000
  S   S102      1.0  0.68870  0.67921  0.26832  1.0000
  Fe  Fe50      1.0  0.73963  0.69071  0.30585  1.0000
  S   S103      1.0  0.78595  0.71926  0.26885  1.0000
  Fe  Fe51      1.0  0.73666  0.70178  0.23071  1.0000
  H   H395      1.0  0.71863  0.77940  0.25485  1.0000
  H   H396      1.0  0.67428  0.75843  0.30401  1.0000
  S   S104      1.0  0.71198  0.74266  0.18885  1.0000
  C   C244      1.0  0.70394  0.79570  0.20388  1.0000
  C   C245      1.0  0.70966  0.80486  0.23790  1.0000
  H   H397      1.0  0.59881  0.78012  0.30111  1.0000
  H   H398      1.0  0.68756  0.82207  0.15575  1.0000
  C   C246      1.0  0.61142  0.76819  0.32436  1.0000
  C   C247      1.0  0.65396  0.75527  0.32587  1.0000
  H   H399      1.0  0.63035  0.65515  0.18181  1.0000
  C   C248      1.0  0.64636  0.62317  0.18436  1.0000
  C   C249      1.0  0.69197  0.82899  0.18211  1.0000
  H   H400      1.0  0.60653  0.62060  0.30982  1.0000
  H   H401      1.0  0.72076  0.64314  0.15453  1.0000
  H   H402      1.0  0.67864  0.67098  0.13431  1.0000
  H   H403      1.0  0.67246  0.62759  0.20250  1.0000
  C   C250      1.0  0.69332  0.63841  0.13764  1.0000
  N   N25       1.0  0.66262  0.60695  0.15169  1.0000
  H   H404      1.0  0.64241  0.65577  0.33143  1.0000
  H   H405      1.0  0.62346  0.60002  0.19594  1.0000
  H   H406      1.0  0.61042  0.63297  0.12393  1.0000
  H   H407      1.0  0.93051  0.60248  0.33278  1.0000
  C   C251      1.0  0.61356  0.63545  0.33467  1.0000
  C   C252      1.0  0.62693  0.60164  0.12835  1.0000
  H   H408      1.0  0.70600  0.62744  0.11283  1.0000
  C   C253      1.0  0.59198  0.87237  0.27731  1.0000
  H   H409      1.0  0.71010  0.89202  0.34234  1.0000
  C   C254      1.0  0.90810  0.69970  0.28346  1.0000
  C   C255      1.0  0.98178  0.70500  0.30028  1.0000
  C   C256      1.0  0.94100  0.72292  0.29879  1.0000
  H   H410      1.0  0.02208  0.65242  0.28401  1.0000
  S   S105      1.0  0.87462  0.62500  0.25604  1.0000
  C   C257      1.0  0.91603  0.65855  0.26975  1.0000
  C   C258      1.0  0.99024  0.66549  0.28427  1.0000
  C   C259      1.0  0.95743  0.64217  0.26928  1.0000
  H   H411      1.0  0.87640  0.71292  0.28349  1.0000
  H   H412      1.0  0.93441  0.75373  0.31088  1.0000
  H   H413      1.0  0.96422  0.61082  0.25829  1.0000
  S   S106      1.0  0.02008  0.72822  0.32641  1.0000
  S   S107      1.0  0.03256  0.60762  0.34541  1.0000
  H   H414      1.0  0.87189  0.65583  0.33386  1.0000
  S   S108      1.0  0.57986  0.98134  0.10212  1.0000
  C   C260      1.0  0.67531  0.88606  0.34163  1.0000
  H   H415      1.0  0.59773  0.84136  0.21359  1.0000
  H   H416      1.0  0.58693  0.65768  0.34152  1.0000
  H   H417      1.0  0.66205  0.90927  0.32316  1.0000
  C   C261      1.0  0.70443  0.84719  0.25004  1.0000
  H   H418      1.0  0.60085  0.89905  0.21466  1.0000
  Fe  Fe52      1.0  0.66637  0.98368  0.20755  1.0000
  H   H419      1.0  0.67770  0.89725  0.17742  1.0000
  H   H420      1.0  0.67062  0.85263  0.33165  1.0000
  Fe  Fe53      1.0  0.60379  0.05791  0.20903  1.0000
  H   H421      1.0  0.61544  0.84588  0.27296  1.0000
  S   S109      1.0  0.61829  0.07801  0.15637  1.0000
  H   H422      1.0  0.70987  0.85411  0.27622  1.0000
  S   S110      1.0  0.59734  0.98791  0.19616  1.0000
  H   H423      1.0  0.60989  0.90343  0.27676  1.0000
  Fe  Fe54      1.0  0.68613  0.06657  0.16982  1.0000
  S   S111      1.0  0.68542  0.93285  0.24487  1.0000
  H   H424      1.0  0.60753  0.01773  0.26696  1.0000
  C   C262      1.0  0.57933  0.99665  0.31334  1.0000
  S   S112      1.0  0.67164  0.05309  0.22397  1.0000
  C   C263      1.0  0.69303  0.88060  0.22833  1.0000
  C   C264      1.0  0.68654  0.87152  0.19433  1.0000
  C   C265      1.0  0.58104  0.02156  0.28408  1.0000
  S   S113      1.0  0.68763  0.99626  0.15431  1.0000
  Fe  Fe55      1.0  0.61836  0.00703  0.14462  1.0000
  H   H425      1.0  0.60442  0.97378  0.31832  1.0000
  C   C266      1.0  0.57866  0.87136  0.21789  1.0000
  H   H426      1.0  0.65652  0.72323  0.40732  1.0000
  C   C267      1.0  0.64403  0.73581  0.38414  1.0000
  C   C268      1.0  0.67009  0.73828  0.35558  1.0000
  C   C269      1.0  0.60137  0.74832  0.38251  1.0000
  S   S114      1.0  0.72168  0.71730  0.35660  1.0000
  C   C270      1.0  0.58491  0.76423  0.35254  1.0000
  H   H427      1.0  0.58142  0.74601  0.40458  1.0000
  H   H428      1.0  0.60482  0.64621  0.40087  1.0000
  H   H429      1.0  0.66040  0.64194  0.39079  1.0000
  C   C271      1.0  0.63030  0.62323  0.39276  1.0000
  C   C272      1.0  0.05670  0.61788  0.52530  1.0000
  N   N26       1.0  0.61993  0.60200  0.36057  1.0000
  S   S115      1.0  0.06940  0.67123  0.40384  1.0000
  H   H430      1.0  0.95899  0.64898  0.39617  1.0000
  C   C273      1.0  0.93099  0.66111  0.38228  1.0000
  Fe  Fe56      1.0  0.04828  0.60240  0.39948  1.0000
  N   N27       1.0  0.89920  0.62655  0.37734  1.0000
  C   C274      1.0  0.88483  0.61005  0.41032  1.0000
  H   H431      1.0  0.87039  0.63630  0.42596  1.0000
  H   H432      1.0  0.59302  0.88713  0.39771  1.0000
  H   H433      1.0  0.91758  0.68907  0.39660  1.0000
  H   H434      1.0  0.04777  0.64130  0.54555  1.0000
  H   H435      1.0  0.63377  0.59912  0.41327  1.0000
  H   H436      1.0  0.03155  0.61906  0.50596  1.0000
  H   H437      1.0  0.91172  0.59632  0.42468  1.0000
  H   H438      1.0  0.83760  0.61911  0.35546  1.0000
  H   H439      1.0  0.67227  0.82700  0.39058  1.0000
  H   H440      1.0  0.64599  0.94177  0.41209  1.0000
  C   C275      1.0  0.60964  0.88152  0.37323  1.0000
  N   N28       1.0  0.65535  0.89140  0.37518  1.0000
  H   H441      1.0  0.59376  0.90236  0.35454  1.0000
  C   C276      1.0  0.66079  0.93661  0.38686  1.0000
  H   H442      1.0  0.70996  0.86808  0.40143  1.0000
  H   H443      1.0  0.69488  0.94554  0.38838  1.0000
  H   H444      1.0  0.66068  0.86395  0.42444  1.0000
  C   C277      1.0  0.67547  0.86134  0.39900  1.0000
  H   H445      1.0  0.60402  0.84732  0.36590  1.0000
  H   H446      1.0  0.64530  0.95998  0.36963  1.0000
  C   C278      1.0  0.86245  0.64417  0.35917  1.0000
  H   H447      1.0  0.84764  0.67200  0.37284  1.0000
  H   H448      1.0  0.07329  0.67614  0.47789  1.0000
  Fe  Fe57      1.0  0.05906  0.67467  0.34851  1.0000
  H   H449      1.0  0.94309  0.67371  0.35791  1.0000
  S   S116      1.0  0.64136  0.73394  0.79596  1.0000
  H   H450      1.0  0.69878  0.71881  0.65766  1.0000
  H   H451      1.0  0.68404  0.64117  0.64525  1.0000
  C   C279      1.0  0.76392  0.77648  0.81265  1.0000
  C   C280      1.0  0.64968  0.72417  0.69545  1.0000
  C   C281      1.0  0.61633  0.70293  0.71188  1.0000
  C   C282      1.0  0.63194  0.63707  0.68059  1.0000
  C   C283      1.0  0.66515  0.65831  0.66382  1.0000
  C   C284      1.0  0.67350  0.70216  0.67083  1.0000
  H   H452      1.0  0.72448  0.67899  0.72945  1.0000
  C   C285      1.0  0.74453  0.64942  0.73198  1.0000
  N   N29       1.0  0.78767  0.65641  0.71808  1.0000
  C   C286      1.0  0.80252  0.77229  0.79514  1.0000
  S   S117      1.0  0.66290  0.77731  0.70714  1.0000
  Fe  Fe58      1.0  0.63613  0.78779  0.75900  1.0000
  H   H453      1.0  0.73745  0.79198  0.80077  1.0000
  H   H454      1.0  0.80556  0.78508  0.77000  1.0000
  C   C287      1.0  0.60716  0.65965  0.70417  1.0000
  H   H455      1.0  0.74537  0.64135  0.75916  1.0000
  C   C288      1.0  0.80773  0.69288  0.73595  1.0000
  H   H456      1.0  0.81043  0.68613  0.76326  1.0000
  H   H457      1.0  0.78908  0.72330  0.73336  1.0000
  Fe  Fe59      1.0  0.65992  0.78571  0.83216  1.0000
  H   H458      1.0  0.76751  0.69756  0.67796  1.0000
  C   C289      1.0  0.78499  0.66673  0.68200  1.0000
  H   H459      1.0  0.76833  0.64066  0.66796  1.0000
  H   H460      1.0  0.81708  0.67018  0.67034  1.0000
  H   H461      1.0  0.72801  0.62250  0.71881  1.0000
  C   C290      1.0  0.81355  0.61687  0.72243  1.0000
  C   C291      1.0  0.83706  0.75153  0.80990  1.0000
  H   H462      1.0  0.81617  0.60802  0.74936  1.0000
  C   C292      1.0  0.07665  0.64134  0.65568  1.0000
  H   H463      1.0  0.59732  0.71982  0.73053  1.0000
  H   H464      1.0  0.58132  0.64342  0.71706  1.0000
  S   S118      1.0  0.66049  0.83905  0.79387  1.0000
  H   H465      1.0  0.84038  0.69938  0.72626  1.0000
  H   H466      1.0  0.84630  0.62132  0.71223  1.0000
  H   H467      1.0  0.91870  0.59694  0.63908  1.0000
  C   C293      1.0  0.04676  0.67266  0.70691  1.0000
  Fe  Fe60      1.0  0.03132  0.68747  0.79656  1.0000
  S   S119      1.0  0.96882  0.65357  0.79279  1.0000
  S   S120      1.0  0.88364  0.74361  0.78576  1.0000
  Fe  Fe61      1.0  0.94091  0.71641  0.81158  1.0000
  C   C294      1.0  0.04288  0.66152  0.67282  1.0000
  H   H468      1.0  0.02049  0.68771  0.72026  1.0000
  S   S121      1.0  0.00318  0.75196  0.80992  1.0000
  H   H469      1.0  0.01345  0.66762  0.65999  1.0000
  C   C295      1.0  0.58540  0.95589  0.79777  1.0000
  Fe  Fe62      1.0  0.59200  0.84753  0.80849  1.0000
  H   H470      1.0  0.60248  0.04720  0.83952  1.0000
  C   C296      1.0  0.75990  0.76115  0.84550  1.0000
  H   H471      1.0  0.68870  0.87004  0.72232  1.0000
  H   H472      1.0  0.65759  0.85440  0.66717  1.0000
  C   C297      1.0  0.62876  0.02687  0.76994  1.0000
  C   C298      1.0  0.62955  0.95824  0.79974  1.0000
  H   H473      1.0  0.62866  0.97393  0.71674  1.0000
  S   S122      1.0  0.65679  0.06948  0.75108  1.0000
  C   C299      1.0  0.65117  0.99389  0.78606  1.0000
  C   C300      1.0  0.68147  0.90504  0.71841  1.0000
  H   H474      1.0  0.67678  0.92010  0.74362  1.0000
  H   H475      1.0  0.71003  0.92021  0.70679  1.0000
  H   H476      1.0  0.61140  0.85508  0.71740  1.0000
  C   C301      1.0  0.65109  0.88972  0.66436  1.0000
  H   H477      1.0  0.67883  0.90419  0.65105  1.0000
  H   H478      1.0  0.66318  0.97418  0.68088  1.0000
  C   C302      1.0  0.63541  0.95745  0.69246  1.0000
  C   C303      1.0  0.60658  0.89054  0.71409  1.0000
  H   H479      1.0  0.64700  0.93290  0.81221  1.0000
  N   N30       1.0  0.64363  0.91071  0.69733  1.0000
  H   H480      1.0  0.62304  0.89300  0.64791  1.0000
  H   H481      1.0  0.68536  0.99570  0.78769  1.0000
  H   H482      1.0  0.60754  0.96306  0.67619  1.0000
  S   S123      1.0  0.07083  0.62292  0.61432  1.0000
  H   H483      1.0  0.59430  0.61631  0.59932  1.0000
  H   H484      1.0  0.01050  0.59561  0.74343  1.0000
  C   C304      1.0  0.83300  0.73581  0.84267  1.0000
  H   H485      1.0  0.60070  0.90473  0.73948  1.0000
  C   C305      1.0  0.58463  0.02431  0.76785  1.0000
  H   H486      1.0  0.79168  0.72897  0.88594  1.0000
  S   S124      1.0  0.71140  0.76646  0.86747  1.0000
  C   C306      1.0  0.61035  0.66741  0.87640  1.0000
  C   C307      1.0  0.79461  0.74100  0.86057  1.0000
  H   H487      1.0  0.62934  0.74371  0.90528  1.0000
  H   H488      1.0  0.64227  0.65210  0.87718  1.0000
  C   C308      1.0  0.62697  0.71533  0.92238  1.0000
  H   H489      1.0  0.65953  0.70152  0.92400  1.0000
  H   H490      1.0  0.61766  0.72776  0.94766  1.0000
  H   H491      1.0  0.62540  0.63003  0.93609  1.0000
  N   N31       1.0  0.59636  0.68294  0.90989  1.0000
  H   H492      1.0  0.58274  0.65650  0.95868  1.0000
  H   H493      1.0  0.61232  0.69464  0.85828  1.0000
  H   H494      1.0  0.58768  0.64345  0.86583  1.0000
  C   C309      1.0  0.61572  0.04182  0.05997  1.0000
  H   H495      1.0  0.85917  0.71938  0.85419  1.0000
  H   H496      1.0  0.06811  0.68810  0.03374  1.0000
  H   H497      1.0  0.07444  0.75103  0.99365  1.0000
  H   H498      1.0  0.02061  0.69383  0.94891  1.0000
  H   H499      1.0  0.91207  0.63272  0.97075  1.0000
  C   C310      1.0  0.03154  0.68153  0.97360  1.0000
  H   H500      1.0  0.95640  0.68485  0.00627  1.0000
  C   C311      1.0  0.03314  0.69298  0.03350  1.0000
  H   H501      1.0  0.96200  0.73911  0.02202  1.0000
  S   S125      1.0  0.94453  0.69960  0.86628  1.0000
  N   N32       1.0  0.01914  0.71123  0.00123  1.0000
  C   C312      1.0  0.97254  0.71641  0.00180  1.0000
  S   S126      1.0  0.03438  0.77759  0.90075  1.0000
  H   H502      1.0  0.01814  0.66091  0.03835  1.0000
  Fe  Fe63      1.0  0.00896  0.73010  0.86318  1.0000
  H   H503      1.0  0.91824  0.62513  0.90900  1.0000
  H   H504      1.0  0.01766  0.64880  0.97717  1.0000
  H   H505      1.0  0.96089  0.72928  0.97750  1.0000
  H   H506      1.0  0.02446  0.71454  0.05498  1.0000
  C   C313      1.0  0.03931  0.75393  0.99590  1.0000
  H   H507      1.0  0.02797  0.76933  0.97243  1.0000
  H   H508      1.0  0.06654  0.67723  0.97211  1.0000
  H   H509      1.0  0.03196  0.77676  0.01688  1.0000
  C   C314      1.0  0.93778  0.60542  0.92502  1.0000
  C   C315      1.0  0.61540  0.06912  0.03182  1.0000
  C   C316      1.0  0.59398  0.64597  0.93331  1.0000
  H   H510      1.0  0.64280  0.08886  0.02591  1.0000
  C   C317      1.0  0.59682  0.06777  0.86217  1.0000
  H   H511      1.0  0.62824  0.07452  0.87347  1.0000
  H   H512      1.0  0.64346  0.04028  0.07565  1.0000
  C   C318      1.0  0.93423  0.60959  0.95996  1.0000
  C   C319      1.0  0.58043  0.01587  0.06734  1.0000
  S   S127      1.0  0.59348  0.79897  0.85023  1.0000
  C   C320      1.0  0.57929  0.07145  0.01180  1.0000
  Fe  Fe64      1.0  0.97722  0.63943  0.84731  1.0000
  S   S128      1.0  0.04184  0.66833  0.84975  1.0000
