data_image0
_chemical_formula_structural       CSFeSNC6H3CFeHCH11CHSH3SC2H3C2HSHC2HC3H2C2H2SNFeSH2C4H6CH3SH6FeHFeH2CSH3NHC2HCFeHNCSCH5C2SH2SHFeHCH2FeS2C6H4FeHCH2CSCHCHC2SNHCHSCH3C7H3C2H2CHCHC2SFeSHCH2FeCSH6NSNHSHCFeHSCSH2CNHCH4CH2CH6C3H2CSCNSCH2CSH2SHCH3CFeCHFeHFeSC2HFeCHC2HSHCH4CSH5SCNCHSHNHCFeH3CHCHSH2S2H2SHCH2SFe2S2C5SCH3CH4S2CHS2FeCHFeSCHC3H2SFeHC3H2SNH2C2H3CSCH2NCHC3FeH3CHSFeHSCHFeCH6SH3FeSHCHFeCH2SHCH2NFeS2CHC3H3CH2CHFeH2CHC2H2CH2CFeHSH2CSHCHCNCHSH3S2H4FeSHC3H6C2H2CHSHCSHCHFeSH2C2HNCH4SH3SHC2NH5CH4C2HCHCH2CHCSC3H3SC2FeHC2HFeSHSH2CH2CH2NSNH4CHFeCH4CHCH4SCH2C2H2CH9NHCHCHC2HCNH2SFeHS2HCHS2C2HCHFeHS2H5SFeCHCSCH2CH2SCH2SHC2H2C3HC4FeCFeSHFeSFe2S2H2C6H5C2SHCH3CH2C2HNC2HNCHC3H3SH5C2H4SC2HCFeC2SCH2C3H2C2SNCFeNHC2FeH9CHCFeSC3HCHCH3SH3SHCHCHSH2CH2CH4C2HSCHCH2FeSFeS2FeHFeHS3CH3CHCH3SH5C6HSHNH2CHNHSHC2HCNFeC2H3C2H3CH2SHCS2C6H6CH2CHFeCH3NCH2SFeSHFeS2FeHFeS5FeC3HNCH3FeC6H4C2FeC2HS2H2CH2SH3CSHFeCH2SH2CHCHSCHSHCHCHNC2H2C2HC3H8C2HCHSH3C2HCHCHFeH2NCS2CH6CHCHCFeH3CH4NCHC3H5NHSHC6H6CH2C2HC2HCH3SH3CFeHN2HSFeSHFeS2FeCFeS3H4C5H3FeCHCHSCH2CH2C6H3CHCNC4FeCSHSCH7CH4C2NHCSC2SHCH4CSH2C2H6CH3CH3FeHS2CHCSH2FeHFeS2Fe2HS2CH2CHCHC6H4C4HFeHCSHC2FeHC2H2C2HNHCHNCH4SNH4FeH2SH4SC3H2C2H3CH3CHC2SH2CHSH2CH4CNHFeSFeSHS2HCH2CSCFeS3H3C3H3SFeSHSFeHSFeS2FeSFeHS2H3CHCSHCH3CH4CSC7H5C2H4NC4HCHCSHCHFeHCNCSC2H4CHS3CNSHCSHC2SHC3FeSH2FeCH5SHCH2NCH2C3H2SH2SFeHCHCFeHNCH3CH2C2HCSH2C3FeCFeCH7CH13CH5CH2CHCHS2CFeHS2HC2SH2FeC2H2CH2CSC6H4CHCFeCNC4H12CSHS2HCHSC2H5CH4NSNHFeH2CNFeCHFeH6FeH3C3H2CHSC2HC2HCSC2H4CS2H2S2FeSHNCHCSCHCHC6H2CH2CH2CH2CSCSH2Fe2H3CNHC2H2C2HCFeH3CFeH2SHFeNCH3FeH2SCH2FeHSHCH2FeHCSH2Fe3HSH2CH4SHC2NSCHCHCH2C4S2H2C2H4C2H5CHCH5CH2C2H2CH2SH2Fe2SH5SH3NSCHCHC3HC2H3SC2FeHCHSHC2HS2HCH6C3H2C4HCH5CFeCHCNC2HSHCSHFeHNHCHSHFeHCSCHSHSFeS2FeHCHCSH5FeS2HCH2C2HC2SHC2H8NH2SNH2S2Fe3HCH3SCFeSCSH5C2HSH2CHFeSFeS2H3S2H2CH5CHC6H3NH2C3FeH4C2HCNH2NC4H2NH4C4H3SH2C3H4CH6S2H3FeCH2C3H3FeSHFeHSFeSH3SHCHSCHFeC5H4C6H4CSHSHSHC2HNH2CSHCHCH5CH4CHCNSHSC2HC3HC3H2CHC2H4CHC5HNCH3SH3SC2H2CH4NSCFeH2C3SH2C2HSH2CH3FeH2CHSNH2CHCSC2H2CH5SCH4FeC2H2C2FeS2HSH2C2SC4SHSC2H10NSH3FeHC2NHCFeCFeH6CH5CH2CSC2FeSFeCSC2H4CHCHNHCH3CH2FeSH3S2FeC3HSC2HS
_chemical_formula_sum              "C720 S288 Fe144 N72 H1152"
_cell_length_a       84.1463
_cell_length_b       82.092
_cell_length_c       34.1139
_cell_angle_alpha    90.6999
_cell_angle_beta     90.7878
_cell_angle_gamma    112.24

_space_group_name_H-M_alt    "P 1"
_space_group_IT_number       1

loop_
  _space_group_symop_operation_xyz
  'x, y, z'

loop_
  _atom_site_type_symbol
  _atom_site_label
  _atom_site_symmetry_multiplicity
  _atom_site_fract_x
  _atom_site_fract_y
  _atom_site_fract_z
  _atom_site_occupancy
  C   C1        1.0  0.16736  0.57310  0.35349  1.0000
  S   S1        1.0  0.14995  0.48090  0.25157  1.0000
  Fe  Fe1       1.0  0.07826  0.46234  0.07550  1.0000
  S   S2        1.0  0.08508  0.47120  0.13962  1.0000
  N   N1        1.0  0.04486  0.40910  0.13165  1.0000
  C   C2        1.0  0.13236  0.47929  0.21985  1.0000
  C   C3        1.0  0.13069  0.47088  0.18289  1.0000
  C   C4        1.0  0.11657  0.46865  0.15751  1.0000
  C   C5        1.0  0.10373  0.47450  0.16917  1.0000
  C   C6        1.0  0.10543  0.48298  0.20601  1.0000
  C   C7        1.0  0.11972  0.48554  0.23103  1.0000
  H   H1        1.0  0.14036  0.46596  0.17396  1.0000
  H   H2        1.0  0.11549  0.46208  0.12934  1.0000
  H   H3        1.0  0.09555  0.48747  0.21555  1.0000
  C   C8        1.0  0.04000  0.39770  0.16621  1.0000
  Fe  Fe2       1.0  0.15990  0.49863  0.30616  1.0000
  H   H4        1.0  0.08504  0.50498  0.09588  1.0000
  C   C9        1.0  0.05924  0.42572  0.14248  1.0000
  H   H5        1.0  0.14135  0.52912  0.41507  1.0000
  H   H6        1.0  0.03326  0.42164  0.09196  1.0000
  H   H7        1.0  0.03590  0.40423  0.19069  1.0000
  H   H8        1.0  0.11947  0.51341  0.05517  1.0000
  H   H9        1.0  0.05096  0.39449  0.17732  1.0000
  H   H10       1.0  0.12074  0.49191  0.25942  1.0000
  H   H11       1.0  0.06319  0.43464  0.11712  1.0000
  H   H12       1.0  0.02548  0.41988  0.14098  1.0000
  H   H13       1.0  0.14344  0.55241  0.52871  1.0000
  H   H14       1.0  0.01895  0.40083  0.10869  1.0000
  H   H15       1.0  0.07080  0.42339  0.15278  1.0000
  C   C10       1.0  0.02997  0.41302  0.11791  1.0000
  H   H16       1.0  0.03954  0.38759  0.09022  1.0000
  S   S3        1.0  0.05058  0.45655  0.05885  1.0000
  H   H17       1.0  0.11773  0.54301  0.45805  1.0000
  H   H18       1.0  0.13329  0.54856  0.10070  1.0000
  H   H19       1.0  0.10388  0.53343  0.15771  1.0000
  S   S4        1.0  0.05941  0.58793  0.06220  1.0000
  C   C11       1.0  0.05022  0.39996  0.09994  1.0000
  C   C12       1.0  0.11010  0.52471  0.14562  1.0000
  H   H20       1.0  0.09234  0.51865  0.05392  1.0000
  H   H21       1.0  0.01181  0.42841  0.04701  1.0000
  H   H22       1.0  0.12329  0.52905  0.15862  1.0000
  C   C13       1.0  0.11904  0.51354  0.08780  1.0000
  C   C14       1.0  0.11982  0.54324  0.08924  1.0000
  H   H23       1.0  0.17046  0.55028  0.47396  1.0000
  S   S5        1.0  0.14424  0.50300  0.35534  1.0000
  H   H24       1.0  0.11226  0.49969  0.09717  1.0000
  C   C15       1.0  0.08443  0.59933  0.15615  1.0000
  C   C16       1.0  0.13139  0.55185  0.45443  1.0000
  H   H25       1.0  0.12705  0.53123  0.51695  1.0000
  C   C17       1.0  0.07293  0.62120  0.13920  1.0000
  C   C18       1.0  0.09259  0.51867  0.08653  1.0000
  C   C19       1.0  0.14053  0.54006  0.51116  1.0000
  H   H26       1.0  0.15162  0.58797  0.36568  1.0000
  H   H27       1.0  0.08572  0.52714  0.09653  1.0000
  C   C20       1.0  0.16454  0.58856  0.36139  1.0000
  C   C21       1.0  0.16039  0.65789  0.18903  1.0000
  H   H28       1.0  0.09206  0.59499  0.17756  1.0000
  H   H29       1.0  0.05413  0.40827  0.07356  1.0000
  S   S6        1.0  0.10085  0.58229  0.06826  1.0000
  N   N2        1.0  0.14321  0.54366  0.46888  1.0000
  Fe  Fe3       1.0  0.12148  0.60825  0.08554  1.0000
  S   S7        1.0  0.12952  0.60859  0.14992  1.0000
  H   H30       1.0  0.02916  0.38506  0.15900  1.0000
  H   H31       1.0  0.16604  0.67100  0.17732  1.0000
  C   C22       1.0  0.15009  0.64381  0.16442  1.0000
  C   C23       1.0  0.14269  0.62684  0.17927  1.0000
  C   C24       1.0  0.14560  0.62415  0.21894  1.0000
  C   C25       1.0  0.15605  0.63820  0.24342  1.0000
  H   H32       1.0  0.05982  0.61086  0.13481  1.0000
  H   H33       1.0  0.14790  0.64611  0.13402  1.0000
  H   H34       1.0  0.13969  0.61112  0.23087  1.0000
  H   H35       1.0  0.13249  0.51792  0.09924  1.0000
  H   H36       1.0  0.07910  0.62308  0.11005  1.0000
  H   H37       1.0  0.10281  0.51115  0.15615  1.0000
  C   C26       1.0  0.13974  0.52694  0.44711  1.0000
  H   H38       1.0  0.06132  0.39661  0.10922  1.0000
  H   H39       1.0  0.07158  0.58856  0.15190  1.0000
  H   H40       1.0  0.16405  0.56873  0.47768  1.0000
  S   S8        1.0  0.10729  0.62378  0.05859  1.0000
  H   H41       1.0  0.12643  0.51736  0.45153  1.0000
  H   H42       1.0  0.02734  0.56568  0.09489  1.0000
  H   H43       1.0  0.07155  0.63371  0.14763  1.0000
  H   H44       1.0  0.10751  0.63189  0.14528  1.0000
  H   H45       1.0  0.07302  0.62580  0.21743  1.0000
  H   H46       1.0  0.11357  0.55229  0.09922  1.0000
  Fe  Fe4       1.0  0.16087  0.53150  0.34812  1.0000
  H   H47       1.0  0.09991  0.64274  0.18233  1.0000
  Fe  Fe5       1.0  0.16545  0.50278  0.39652  1.0000
  H   H48       1.0  0.10830  0.62636  0.19551  1.0000
  H   H49       1.0  0.05572  0.43312  0.16618  1.0000
  C   C27       1.0  0.16358  0.65516  0.22852  1.0000
  S   S9        1.0  0.15015  0.55270  0.35129  1.0000
  H   H50       1.0  0.09100  0.60089  0.12768  1.0000
  H   H51       1.0  0.08155  0.60946  0.22985  1.0000
  H   H52       1.0  0.12031  0.54383  0.05663  1.0000
  N   N3        1.0  0.11039  0.52505  0.10231  1.0000
  H   H53       1.0  0.15809  0.63600  0.27397  1.0000
  C   C28       1.0  0.07428  0.61346  0.20690  1.0000
  C   C29       1.0  0.10039  0.62988  0.17322  1.0000
  H   H54       1.0  0.16372  0.55836  0.43098  1.0000
  C   C30       1.0  0.02491  0.56688  0.06406  1.0000
  Fe  Fe6       1.0  0.08695  0.59759  0.03902  1.0000
  H   H55       1.0  0.06114  0.60304  0.20460  1.0000
  N   N4        1.0  0.08301  0.61599  0.16887  1.0000
  C   C31       1.0  0.16113  0.55578  0.46269  1.0000
  S   S10       1.0  0.16167  0.49037  0.45701  1.0000
  C   C32       1.0  0.16685  0.50243  0.50226  1.0000
  H   H56       1.0  0.13323  0.55485  0.42264  1.0000
  H   H57       1.0  0.14862  0.52050  0.45654  1.0000
  H   H58       1.0  0.13356  0.56447  0.47028  1.0000
  H   H59       1.0  0.16828  0.60973  0.25287  1.0000
  H   H60       1.0  0.14892  0.53344  0.52273  1.0000
  C   C33       1.0  0.00795  0.55897  0.04878  1.0000
  C   C34       1.0  0.03865  0.57665  0.04011  1.0000
  S   S11       1.0  0.07933  0.43996  0.03798  1.0000
  H   H61       1.0  0.01010  0.52241  0.03774  1.0000
  H   H62       1.0  0.14395  0.56046  0.92450  1.0000
  S   S12       1.0  0.13002  0.48220  0.77533  1.0000
  H   H63       1.0  0.14485  0.44226  0.84516  1.0000
  Fe  Fe7       1.0  0.15496  0.50273  0.75308  1.0000
  H   H64       1.0  0.12747  0.56108  0.89157  1.0000
  C   C35       1.0  0.16449  0.50294  0.57383  1.0000
  H   H65       1.0  0.17047  0.66235  0.93140  1.0000
  H   H66       1.0  0.14900  0.49756  0.84845  1.0000
  Fe  Fe8       1.0  0.08775  0.45960  0.98889  1.0000
  S   S13       1.0  0.11260  0.46567  0.95556  1.0000
  S   S14       1.0  0.06088  0.45364  0.96593  1.0000
  C   C36       1.0  0.12459  0.47950  0.82583  1.0000
  C   C37       1.0  0.13652  0.48806  0.85570  1.0000
  C   C38       1.0  0.13247  0.48404  0.89528  1.0000
  C   C39       1.0  0.11621  0.47197  0.90575  1.0000
  C   C40       1.0  0.10399  0.46397  0.87603  1.0000
  C   C41       1.0  0.10825  0.46755  0.83629  1.0000
  H   H67       1.0  0.01171  0.48836  0.00044  1.0000
  H   H68       1.0  0.03090  0.50936  0.95363  1.0000
  H   H69       1.0  0.09150  0.45449  0.88357  1.0000
  H   H70       1.0  0.09890  0.46085  0.81353  1.0000
  Fe  Fe9       1.0  0.05222  0.43579  0.01777  1.0000
  H   H71       1.0  0.14202  0.49027  0.91800  1.0000
  C   C42       1.0  0.06874  0.51441  0.98632  1.0000
  H   H72       1.0  0.01560  0.57253  0.95487  1.0000
  H   H73       1.0  0.15547  0.60201  0.84202  1.0000
  C   C43       1.0  0.06918  0.53103  0.99736  1.0000
  S   S15       1.0  0.03067  0.40860  0.01142  1.0000
  C   C44       1.0  0.09937  0.54393  0.98148  1.0000
  H   H74       1.0  0.08289  0.49999  0.96076  1.0000
  C   C45       1.0  0.14496  0.44415  0.81288  1.0000
  H   H75       1.0  0.15333  0.60830  0.91285  1.0000
  C   C46       1.0  0.08449  0.54579  0.99483  1.0000
  C   C47       1.0  0.16179  0.45728  0.75654  1.0000
  S   S16       1.0  0.17076  0.49711  0.70555  1.0000
  N   N5        1.0  0.16242  0.45466  0.79924  1.0000
  H   H76       1.0  0.02587  0.52733  0.93621  1.0000
  C   C48       1.0  0.01815  0.57065  0.98530  1.0000
  H   H77       1.0  0.05800  0.53248  0.00943  1.0000
  S   S17       1.0  0.13733  0.64549  0.96618  1.0000
  C   C49       1.0  0.14611  0.59394  0.91673  1.0000
  H   H78       1.0  0.11013  0.52600  0.95764  1.0000
  H   H79       1.0  0.15965  0.49607  0.60067  1.0000
  H   H80       1.0  0.15724  0.44456  0.73992  1.0000
  C   C50       1.0  0.03519  0.57815  0.00034  1.0000
  C   C51       1.0  0.16109  0.49365  0.53757  1.0000
  C   C52       1.0  0.15710  0.64175  0.84259  1.0000
  C   C53       1.0  0.14043  0.63068  0.85302  1.0000
  C   C54       1.0  0.13462  0.63089  0.89150  1.0000
  C   C55       1.0  0.14529  0.64253  0.91982  1.0000
  C   C56       1.0  0.16212  0.65331  0.90967  1.0000
  H   H81       1.0  0.13430  0.58519  0.84277  1.0000
  H   H82       1.0  0.13175  0.62227  0.83088  1.0000
  H   H83       1.0  0.12156  0.62271  0.89871  1.0000
  C   C57       1.0  0.09871  0.52748  0.96850  1.0000
  C   C58       1.0  0.16995  0.58711  0.89388  1.0000
  H   H84       1.0  0.14834  0.59081  0.94749  1.0000
  H   H85       1.0  0.15370  0.47961  0.53688  1.0000
  C   C59       1.0  0.08333  0.51273  0.97063  1.0000
  H   H86       1.0  0.15198  0.57997  0.82575  1.0000
  C   C60       1.0  0.14814  0.58782  0.84793  1.0000
  H   H87       1.0  0.04552  0.58575  0.98154  1.0000
  C   C61       1.0  0.00840  0.40414  0.01667  1.0000
  C   C62       1.0  0.14156  0.56439  0.89455  1.0000
  S   S18       1.0  0.16269  0.64282  0.79236  1.0000
  Fe  Fe10      1.0  0.12105  0.62227  0.00265  1.0000
  S   S19       1.0  0.09939  0.59778  0.98045  1.0000
  H   H88       1.0  0.13964  0.43096  0.79825  1.0000
  C   C63       1.0  0.16814  0.65267  0.87149  1.0000
  H   H89       1.0  0.16966  0.43234  0.79270  1.0000
  H   H90       1.0  0.08480  0.55853  0.00401  1.0000
  Fe  Fe11      1.0  0.11448  0.58441  0.01192  1.0000
  C   C64       1.0  0.02008  0.51343  0.94585  1.0000
  S   S20       1.0  0.11900  0.56189  0.98373  1.0000
  H   H91       1.0  0.16046  0.47925  0.81314  1.0000
  H   H92       1.0  0.01308  0.50516  0.92031  1.0000
  H   H93       1.0  0.13217  0.59134  0.91354  1.0000
  H   H94       1.0  0.14507  0.55601  0.87309  1.0000
  H   H95       1.0  0.02481  0.53682  0.00402  1.0000
  H   H96       1.0  0.15286  0.46399  0.74912  1.0000
  N   N6        1.0  0.15143  0.58332  0.88828  1.0000
  S   S21       1.0  0.15667  0.52802  0.72524  1.0000
  N   N7        1.0  0.00862  0.51161  0.97938  1.0000
  H   H97       1.0  0.13589  0.45082  0.80644  1.0000
  S   S22       1.0  0.13658  0.60857  0.03153  1.0000
  H   H98       1.0  0.16922  0.47062  0.85207  1.0000
  C   C65       1.0  0.16888  0.47195  0.81968  1.0000
  Fe  Fe12      1.0  0.06093  0.47454  0.00881  1.0000
  H   H99       1.0  0.17292  0.58413  0.92420  1.0000
  S   S23       1.0  0.05074  0.49557  0.99657  1.0000
  C   C66       1.0  0.01850  0.52280  0.01255  1.0000
  S   S24       1.0  0.08829  0.48194  0.02815  1.0000
  H   H100      1.0  0.15324  0.67291  0.82659  1.0000
  H   H101      1.0  0.02873  0.51835  0.02332  1.0000
  C   C67       1.0  0.17368  0.52116  0.57509  1.0000
  N   N8        1.0  0.17129  0.69746  0.80580  1.0000
  H   H102      1.0  0.15342  0.69555  0.75855  1.0000
  C   C68       1.0  0.16512  0.69274  0.76484  1.0000
  H   H103      1.0  0.16178  0.67842  0.75866  1.0000
  H   H104      1.0  0.14610  0.69080  0.82979  1.0000
  H   H105      1.0  0.16456  0.72025  0.80729  1.0000
  H   H106      1.0  0.16208  0.68956  0.86397  1.0000
  C   C69       1.0  0.15760  0.68731  0.83277  1.0000
  H   H107      1.0  0.21217  0.61099  0.27070  1.0000
  H   H108      1.0  0.23960  0.50907  0.42122  1.0000
  C   C70       1.0  0.19799  0.66049  0.50393  1.0000
  H   H109      1.0  0.29649  0.57490  0.22684  1.0000
  H   H110      1.0  0.18366  0.62329  0.28863  1.0000
  H   H111      1.0  0.20972  0.47384  0.42536  1.0000
  H   H112      1.0  0.19502  0.48906  0.49206  1.0000
  H   H113      1.0  0.24397  0.49311  0.31333  1.0000
  H   H114      1.0  0.20471  0.63932  0.19430  1.0000
  C   C71       1.0  0.21191  0.51539  0.44405  1.0000
  C   C72       1.0  0.23440  0.50404  0.45045  1.0000
  C   C73       1.0  0.18407  0.57390  0.34816  1.0000
  H   H115      1.0  0.21486  0.63354  0.27549  1.0000
  H   H116      1.0  0.22146  0.50584  0.31483  1.0000
  C   C74       1.0  0.20917  0.49263  0.49050  1.0000
  S   S25       1.0  0.31962  0.50639  0.40004  1.0000
  C   C75       1.0  0.20701  0.48596  0.42104  1.0000
  N   N9        1.0  0.21565  0.49950  0.45154  1.0000
  S   S26       1.0  0.17969  0.49543  0.34819  1.0000
  C   C76       1.0  0.21167  0.62239  0.25406  1.0000
  H   H117      1.0  0.19881  0.65457  0.47590  1.0000
  H   H118      1.0  0.19786  0.51227  0.44348  1.0000
  C   C77       1.0  0.24657  0.50558  0.32829  1.0000
  S   S27       1.0  0.27920  0.50638  0.33934  1.0000
  H   H119      1.0  0.32057  0.55678  0.25480  1.0000
  H   H120      1.0  0.21784  0.52579  0.46691  1.0000
  S   S28       1.0  0.31391  0.54400  0.40403  1.0000
  H   H121      1.0  0.29185  0.58101  0.27488  1.0000
  C   C78       1.0  0.27768  0.54580  0.26619  1.0000
  H   H122      1.0  0.18111  0.60076  0.28064  1.0000
  H   H123      1.0  0.21084  0.59060  0.34610  1.0000
  H   H124      1.0  0.17629  0.61673  0.36985  1.0000
  C   C79       1.0  0.19518  0.60557  0.35806  1.0000
  Fe  Fe13      1.0  0.20764  0.65046  0.35778  1.0000
  C   C80       1.0  0.23740  0.52931  0.34650  1.0000
  H   H125      1.0  0.22204  0.62611  0.23214  1.0000
  Fe  Fe14      1.0  0.32858  0.53089  0.43855  1.0000
  H   H126      1.0  0.21687  0.52113  0.41527  1.0000
  Fe  Fe15      1.0  0.19383  0.52452  0.34232  1.0000
  S   S29       1.0  0.21571  0.66731  0.30501  1.0000
  C   C81       1.0  0.26605  0.53079  0.36488  1.0000
  C   C82       1.0  0.25349  0.53821  0.36468  1.0000
  H   H127      1.0  0.27830  0.53770  0.37936  1.0000
  Fe  Fe16      1.0  0.30627  0.52046  0.36394  1.0000
  C   C83       1.0  0.29960  0.57485  0.25863  1.0000
  H   H128      1.0  0.18639  0.56207  0.34185  1.0000
  C   C84       1.0  0.26284  0.51472  0.34553  1.0000
  C   C85       1.0  0.19794  0.59008  0.35052  1.0000
  H   H129      1.0  0.25628  0.55096  0.37855  1.0000
  S   S30       1.0  0.18261  0.65397  0.36474  1.0000
  H   H130      1.0  0.29828  0.54415  0.32534  1.0000
  C   C86       1.0  0.19422  0.63415  0.21577  1.0000
  H   H131      1.0  0.21528  0.50257  0.51423  1.0000
  H   H132      1.0  0.19570  0.64498  0.23728  1.0000
  H   H133      1.0  0.19280  0.48209  0.42142  1.0000
  H   H134      1.0  0.30400  0.53533  0.25940  1.0000
  C   C87       1.0  0.18132  0.61281  0.26568  1.0000
  S   S31       1.0  0.21281  0.62560  0.35761  1.0000
  H   H135      1.0  0.21176  0.48063  0.49725  1.0000
  H   H136      1.0  0.27479  0.53199  0.27524  1.0000
  H   H137      1.0  0.23775  0.49240  0.45628  1.0000
  H   H138      1.0  0.31441  0.56577  0.32013  1.0000
  H   H139      1.0  0.31339  0.58348  0.26333  1.0000
  S   S32       1.0  0.22259  0.53978  0.34432  1.0000
  C   C88       1.0  0.19116  0.60390  0.20620  1.0000
  N   N10       1.0  0.29610  0.55682  0.27223  1.0000
  C   C89       1.0  0.30657  0.54905  0.25004  1.0000
  H   H140      1.0  0.30374  0.54852  0.21800  1.0000
  S   S33       1.0  0.18062  0.53156  0.39265  1.0000
  H   H141      1.0  0.26937  0.55082  0.28381  1.0000
  N   N11       1.0  0.19461  0.61833  0.23540  1.0000
  H   H142      1.0  0.33029  0.48733  0.21387  1.0000
  C   C90       1.0  0.17847  0.60482  0.36378  1.0000
  Fe  Fe17      1.0  0.33733  0.55508  0.36741  1.0000
  H   H143      1.0  0.18185  0.63131  0.19962  1.0000
  H   H144      1.0  0.19145  0.59180  0.22015  1.0000
  H   H145      1.0  0.21136  0.49086  0.39118  1.0000
  C   C91       1.0  0.23380  0.51276  0.32912  1.0000
  H   H146      1.0  0.29291  0.56316  0.33227  1.0000
  C   C92       1.0  0.30062  0.55753  0.31434  1.0000
  H   H147      1.0  0.27365  0.54531  0.23488  1.0000
  S   S34       1.0  0.32851  0.53278  0.32372  1.0000
  H   H148      1.0  0.24138  0.51444  0.47265  1.0000
  H   H149      1.0  0.20087  0.60764  0.18271  1.0000
  S   S35       1.0  0.32567  0.53566  0.50345  1.0000
  S   S36       1.0  0.22263  0.67218  0.39951  1.0000
  H   H150      1.0  0.33341  0.49923  0.28208  1.0000
  H   H151      1.0  0.18147  0.52743  0.47715  1.0000
  S   S37       1.0  0.17542  0.52738  0.29700  1.0000
  H   H152      1.0  0.33890  0.42415  0.15574  1.0000
  C   C93       1.0  0.17655  0.52053  0.50378  1.0000
  H   H153      1.0  0.17828  0.60039  0.19190  1.0000
  H   H154      1.0  0.33593  0.44084  0.18632  1.0000
  S   S38       1.0  0.17662  0.67333  0.25825  1.0000
  Fe  Fe18      1.0  0.19160  0.67233  0.31391  1.0000
  Fe  Fe19      1.0  0.18874  0.65630  0.76381  1.0000
  S   S39       1.0  0.31282  0.50486  0.76045  1.0000
  S   S40       1.0  0.33436  0.54324  0.71972  1.0000
  C   C94       1.0  0.17985  0.52984  0.53989  1.0000
  C   C95       1.0  0.18880  0.59427  0.68701  1.0000
  C   C96       1.0  0.26313  0.51115  0.75610  1.0000
  C   C97       1.0  0.24528  0.50138  0.75473  1.0000
  C   C98       1.0  0.20004  0.65253  0.53893  1.0000
  S   S41       1.0  0.17681  0.53390  0.61908  1.0000
  C   C99       1.0  0.32346  0.52090  0.61654  1.0000
  H   H155      1.0  0.24049  0.48723  0.75082  1.0000
  H   H156      1.0  0.18230  0.59864  0.81328  1.0000
  H   H157      1.0  0.27198  0.50452  0.75296  1.0000
  C   C100      1.0  0.20863  0.58117  0.66614  1.0000
  H   H158      1.0  0.31842  0.52405  0.64332  1.0000
  H   H159      1.0  0.21909  0.58178  0.64591  1.0000
  H   H160      1.0  0.18713  0.54389  0.54057  1.0000
  H   H161      1.0  0.20241  0.64047  0.53755  1.0000
  S   S42       1.0  0.21132  0.49726  0.75698  1.0000
  S   S43       1.0  0.17973  0.56346  0.80023  1.0000
  C   C101      1.0  0.19899  0.66001  0.57562  1.0000
  H   H162      1.0  0.20594  0.59535  0.59706  1.0000
  S   S44       1.0  0.29158  0.54227  0.76723  1.0000
  S   S45       1.0  0.19841  0.53800  0.71966  1.0000
  Fe  Fe20      1.0  0.33277  0.51350  0.80966  1.0000
  C   C102      1.0  0.32725  0.52408  0.54576  1.0000
  H   H163      1.0  0.18343  0.60455  0.68165  1.0000
  Fe  Fe21      1.0  0.22346  0.65358  0.75248  1.0000
  S   S46       1.0  0.23825  0.63673  0.76739  1.0000
  C   C103      1.0  0.23363  0.50987  0.75770  1.0000
  H   H164      1.0  0.31330  0.53615  0.58038  1.0000
  C   C104      1.0  0.22314  0.61629  0.78096  1.0000
  C   C105      1.0  0.22587  0.60073  0.77340  1.0000
  C   C106      1.0  0.21267  0.58430  0.77968  1.0000
  H   H165      1.0  0.23798  0.60139  0.76167  1.0000
  H   H166      1.0  0.21467  0.57228  0.77335  1.0000
  S   S47       1.0  0.21438  0.66941  0.79431  1.0000
  Fe  Fe22      1.0  0.33520  0.51623  0.71992  1.0000
  H   H167      1.0  0.25663  0.50620  0.85918  1.0000
  C   C107      1.0  0.32051  0.52768  0.58077  1.0000
  C   C108      1.0  0.19448  0.59911  0.80276  1.0000
  C   C109      1.0  0.23993  0.52817  0.76230  1.0000
  H   H168      1.0  0.20542  0.62738  0.80251  1.0000
  H   H169      1.0  0.31036  0.52442  0.88666  1.0000
  S   S48       1.0  0.19752  0.63914  0.72550  1.0000
  N   N12       1.0  0.20260  0.59566  0.65935  1.0000
  H   H170      1.0  0.29655  0.49881  0.84132  1.0000
  H   H171      1.0  0.27101  0.52735  0.84382  1.0000
  C   C110      1.0  0.25773  0.53788  0.76447  1.0000
  C   C111      1.0  0.19690  0.58353  0.79402  1.0000
  H   H172      1.0  0.26829  0.48758  0.89974  1.0000
  H   H173      1.0  0.30155  0.53783  0.85958  1.0000
  H   H174      1.0  0.29747  0.53452  0.91095  1.0000
  C   C112      1.0  0.21703  0.61277  0.66551  1.0000
  S   S49       1.0  0.33182  0.54034  0.81476  1.0000
  C   C113      1.0  0.33319  0.51038  0.61770  1.0000
  H   H175      1.0  0.27425  0.49233  0.82805  1.0000
  H   H176      1.0  0.29090  0.49552  0.91115  1.0000
  N   N13       1.0  0.28327  0.51223  0.87374  1.0000
  C   C114      1.0  0.28599  0.50371  0.83750  1.0000
  H   H177      1.0  0.26587  0.52386  0.89467  1.0000
  C   C115      1.0  0.26852  0.51761  0.86775  1.0000
  C   C116      1.0  0.27985  0.49967  0.90621  1.0000
  C   C117      1.0  0.26940  0.52945  0.76144  1.0000
  Fe  Fe23      1.0  0.31338  0.53244  0.76354  1.0000
  H   H178      1.0  0.26248  0.55203  0.76863  1.0000
  H   H179      1.0  0.28956  0.51313  0.81305  1.0000
  H   H180      1.0  0.21293  0.62399  0.66042  1.0000
  C   C118      1.0  0.33648  0.51304  0.54655  1.0000
  H   H181      1.0  0.19805  0.56805  0.66159  1.0000
  S   S50       1.0  0.20111  0.64905  0.61862  1.0000
  Fe  Fe24      1.0  0.19330  0.51148  0.74576  1.0000
  H   H182      1.0  0.23109  0.53485  0.76478  1.0000
  S   S51       1.0  0.32870  0.49980  0.86872  1.0000
  C   C119      1.0  0.20753  0.61542  0.79621  1.0000
  H   H183      1.0  0.27774  0.50561  0.93416  1.0000
  Fe  Fe25      1.0  0.20498  0.66039  0.68086  1.0000
  C   C120      1.0  0.29884  0.52794  0.88324  1.0000
  H   H184      1.0  0.19365  0.59599  0.71788  1.0000
  H   H185      1.0  0.22774  0.61427  0.64532  1.0000
  H   H186      1.0  0.22235  0.61429  0.69599  1.0000
  H   H187      1.0  0.18207  0.48028  0.81031  1.0000
  H   H188      1.0  0.17787  0.60120  0.88844  1.0000
  H   H189      1.0  0.33014  0.49095  0.94966  1.0000
  S   S52       1.0  0.17725  0.51540  0.79427  1.0000
  H   H190      1.0  0.18492  0.58165  0.61316  1.0000
  H   H191      1.0  0.21368  0.58166  0.69663  1.0000
  H   H192      1.0  0.19133  0.60528  0.61261  1.0000
  Fe  Fe26      1.0  0.17992  0.54036  0.76425  1.0000
  S   S53       1.0  0.33903  0.50365  0.66294  1.0000
  H   H193      1.0  0.18110  0.66104  0.86422  1.0000
  C   C121      1.0  0.19587  0.59441  0.61871  1.0000
  H   H194      1.0  0.18735  0.45320  0.79771  1.0000
  Fe  Fe27      1.0  0.17482  0.52383  0.68190  1.0000
  C   C122      1.0  0.33938  0.50617  0.58246  1.0000
  H   H195      1.0  0.17805  0.58118  0.68456  1.0000
  H   H196      1.0  0.17493  0.44336  0.83980  1.0000
  S   S54       1.0  0.23172  0.67389  0.70578  1.0000
  H   H197      1.0  0.17471  0.46559  0.74547  1.0000
  C   C123      1.0  0.17409  0.44544  0.80778  1.0000
  H   H198      1.0  0.17431  0.57902  0.87343  1.0000
  H   H199      1.0  0.27725  0.81393  0.30116  1.0000
  N   N14       1.0  0.24715  0.71454  0.47698  1.0000
  Fe  Fe28      1.0  0.22858  0.68968  0.34745  1.0000
  S   S55       1.0  0.25648  0.70705  0.33856  1.0000
  S   S56       1.0  0.20522  0.69637  0.35266  1.0000
  C   C124      1.0  0.25571  0.72906  0.50541  1.0000
  H   H200      1.0  0.28439  0.83080  0.33892  1.0000
  C   C125      1.0  0.25707  0.73912  0.36666  1.0000
  C   C126      1.0  0.26651  0.72916  0.35471  1.0000
  C   C127      1.0  0.28452  0.73677  0.35650  1.0000
  H   H201      1.0  0.24319  0.73343  0.36481  1.0000
  H   H202      1.0  0.29189  0.72914  0.34720  1.0000
  H   H203      1.0  0.30007  0.83282  0.25688  1.0000
  C   C128      1.0  0.28648  0.81925  0.32618  1.0000
  H   H204      1.0  0.26964  0.70871  0.46624  1.0000
  H   H205      1.0  0.26726  0.72515  0.43529  1.0000
  C   C129      1.0  0.26006  0.71262  0.45031  1.0000
  H   H206      1.0  0.30381  0.79775  0.32001  1.0000
  Fe  Fe29      1.0  0.19844  0.67738  0.40286  1.0000
  H   H207      1.0  0.32977  0.83454  0.33992  1.0000
  H   H208      1.0  0.22781  0.70823  0.43120  1.0000
  C   C130      1.0  0.29310  0.75411  0.37058  1.0000
  H   H209      1.0  0.22368  0.71925  0.47296  1.0000
  C   C131      1.0  0.28370  0.76405  0.38273  1.0000
  C   C132      1.0  0.23409  0.71856  0.45403  1.0000
  H   H210      1.0  0.23983  0.73131  0.43882  1.0000
  H   H211      1.0  0.25833  0.76422  0.38974  1.0000
  C   C133      1.0  0.26567  0.75654  0.38065  1.0000
  H   H212      1.0  0.30699  0.75977  0.37192  1.0000
  H   H213      1.0  0.30697  0.84975  0.29449  1.0000
  C   C134      1.0  0.30851  0.83764  0.28336  1.0000
  Fe  Fe30      1.0  0.32325  0.79614  0.40604  1.0000
  H   H214      1.0  0.23164  0.68687  0.47785  1.0000
  S   S57       1.0  0.29421  0.78589  0.40043  1.0000
  H   H215      1.0  0.31994  0.81131  0.28765  1.0000
  H   H216      1.0  0.31503  0.84309  0.36063  1.0000
  C   C135      1.0  0.31612  0.83101  0.34795  1.0000
  S   S58       1.0  0.33725  0.82217  0.43728  1.0000
  H   H217      1.0  0.29777  0.80244  0.27214  1.0000
  C   C136      1.0  0.30659  0.80821  0.29764  1.0000
  H   H218      1.0  0.28309  0.80892  0.34902  1.0000
  C   C137      1.0  0.23873  0.69799  0.49830  1.0000
  N   N15       1.0  0.30442  0.82404  0.31374  1.0000
  C   C138      1.0  0.19459  0.67589  0.50529  1.0000
  H   H219      1.0  0.32206  0.84163  0.27378  1.0000
  S   S59       1.0  0.19217  0.68639  0.46187  1.0000
  H   H220      1.0  0.31324  0.82117  0.37165  1.0000
  H   H221      1.0  0.26224  0.74174  0.49017  1.0000
  H   H222      1.0  0.25399  0.70246  0.42697  1.0000
  S   S60       1.0  0.33999  0.80267  0.35311  1.0000
  S   S61       1.0  0.33816  0.78242  0.43708  1.0000
  H   H223      1.0  0.26559  0.72642  0.52333  1.0000
  H   H224      1.0  0.22919  0.69913  0.51932  1.0000
  H   H225      1.0  0.24816  0.69420  0.51517  1.0000
  H   H226      1.0  0.24628  0.73093  0.52578  1.0000
  Fe  Fe31      1.0  0.22030  0.68868  0.74485  1.0000
  S   S62       1.0  0.23198  0.71827  0.75576  1.0000
  H   H227      1.0  0.28234  0.75110  0.65940  1.0000
  C   C139      1.0  0.28230  0.72621  0.77406  1.0000
  C   C140      1.0  0.26447  0.71805  0.76731  1.0000
  C   C141      1.0  0.25450  0.72824  0.76338  1.0000
  H   H228      1.0  0.33051  0.78751  0.91091  1.0000
  H   H229      1.0  0.28986  0.71815  0.77724  1.0000
  H   H230      1.0  0.25843  0.70384  0.76548  1.0000
  H   H231      1.0  0.30851  0.77461  0.71879  1.0000
  H   H232      1.0  0.29815  0.77509  0.61269  1.0000
  H   H233      1.0  0.32670  0.75250  0.64709  1.0000
  C   C142      1.0  0.29037  0.74461  0.77665  1.0000
  C   C143      1.0  0.26256  0.74669  0.76594  1.0000
  H   H234      1.0  0.32199  0.76003  0.87095  1.0000
  H   H235      1.0  0.29436  0.74373  0.69379  1.0000
  C   C144      1.0  0.30850  0.77903  0.68814  1.0000
  H   H236      1.0  0.31506  0.79208  0.93953  1.0000
  S   S63       1.0  0.19382  0.67662  0.71653  1.0000
  H   H237      1.0  0.29662  0.78173  0.68342  1.0000
  C   C145      1.0  0.28046  0.75488  0.77238  1.0000
  S   S64       1.0  0.31286  0.75403  0.78489  1.0000
  H   H238      1.0  0.25492  0.75465  0.76290  1.0000
  C   C146      1.0  0.31030  0.75442  0.88905  1.0000
  H   H239      1.0  0.19735  0.70082  0.79311  1.0000
  Fe  Fe32      1.0  0.32972  0.78307  0.78615  1.0000
  S   S65       1.0  0.32121  0.80580  0.78639  1.0000
  H   H240      1.0  0.32223  0.77489  0.95385  1.0000
  H   H241      1.0  0.31092  0.76294  0.59714  1.0000
  C   C147      1.0  0.30050  0.77740  0.87087  1.0000
  C   C148      1.0  0.29464  0.74917  0.66391  1.0000
  H   H242      1.0  0.28650  0.76907  0.77427  1.0000
  N   N16       1.0  0.30472  0.76832  0.90417  1.0000
  C   C149      1.0  0.31871  0.78119  0.92827  1.0000
  H   H243      1.0  0.31956  0.79176  0.68564  1.0000
  H   H244      1.0  0.31168  0.78305  0.85154  1.0000
  H   H245      1.0  0.32770  0.83052  0.60468  1.0000
  H   H246      1.0  0.32112  0.78508  0.61565  1.0000
  S   S66       1.0  0.33681  0.82811  0.68546  1.0000
  H   H247      1.0  0.28474  0.77046  0.93990  1.0000
  H   H248      1.0  0.30021  0.74473  0.86984  1.0000
  H   H249      1.0  0.32603  0.75813  0.69796  1.0000
  S   S67       1.0  0.33696  0.82596  0.89440  1.0000
  H   H250      1.0  0.18379  0.67907  0.80710  1.0000
  C   C150      1.0  0.30992  0.77247  0.61950  1.0000
  C   C151      1.0  0.28934  0.76031  0.92832  1.0000
  N   N17       1.0  0.30965  0.76583  0.65970  1.0000
  H   H251      1.0  0.29689  0.78848  0.88094  1.0000
  H   H252      1.0  0.31337  0.74706  0.91324  1.0000
  H   H253      1.0  0.29207  0.75339  0.95384  1.0000
  H   H254      1.0  0.28974  0.76821  0.85247  1.0000
  H   H255      1.0  0.29488  0.73893  0.64252  1.0000
  C   C152      1.0  0.32559  0.76270  0.66744  1.0000
  H   H256      1.0  0.19158  0.69631  0.84350  1.0000
  H   H257      1.0  0.19094  0.69533  0.54325  1.0000
  H   H258      1.0  0.19495  0.68140  0.60509  1.0000
  H   H259      1.0  0.27858  0.75050  0.91092  1.0000
  C   C153      1.0  0.19357  0.68342  0.54196  1.0000
  C   C154      1.0  0.33744  0.82489  0.60513  1.0000
  H   H260      1.0  0.33718  0.77493  0.66367  1.0000
  C   C155      1.0  0.19589  0.67559  0.57703  1.0000
  H   H261      1.0  0.33801  0.82268  0.54187  1.0000
  C   C156      1.0  0.18668  0.69327  0.81272  1.0000
  H   H262      1.0  0.18626  0.72448  0.79312  1.0000
  H   H263      1.0  0.18035  0.72041  0.84353  1.0000
  C   C157      1.0  0.17579  0.71651  0.81275  1.0000
  H   H264      1.0  0.17510  0.70017  0.74361  1.0000
  C   C158      1.0  0.50120  0.13970  0.27772  1.0000
  S   S68       1.0  0.48316  0.11318  0.17425  1.0000
  C   C159      1.0  0.45424  0.13023  0.05780  1.0000
  C   C160      1.0  0.48919  0.11631  0.44696  1.0000
  C   C161      1.0  0.49060  0.11812  0.22364  1.0000
  H   H265      1.0  0.47559  0.11166  0.45626  1.0000
  H   H266      1.0  0.48819  0.13685  0.05996  1.0000
  H   H267      1.0  0.49701  0.08931  0.47213  1.0000
  S   S69       1.0  0.50635  0.06809  0.06367  1.0000
  C   C162      1.0  0.49548  0.13544  0.23843  1.0000
  C   C163      1.0  0.44080  0.00885  0.11911  1.0000
  Fe  Fe33      1.0  0.48912  0.09316  0.13682  1.0000
  H   H268      1.0  0.50499  0.15309  0.28865  1.0000
  C   C164      1.0  0.49128  0.10503  0.24872  1.0000
  C   C165      1.0  0.47932  0.12278  0.05871  1.0000
  H   H269      1.0  0.48271  0.09344  0.50596  1.0000
  Fe  Fe34      1.0  0.48477  0.05628  0.10579  1.0000
  S   S70       1.0  0.47559  0.02610  0.10140  1.0000
  H   H270      1.0  0.44041  0.02174  0.12384  1.0000
  S   S71       1.0  0.47227  0.07528  0.08870  1.0000
  H   H271      1.0  0.50472  0.09839  0.52015  1.0000
  H   H272      1.0  0.48919  0.33284  0.10894  1.0000
  C   C166      1.0  0.49995  0.34019  0.08939  1.0000
  H   H273      1.0  0.49483  0.14563  0.21943  1.0000
  H   H274      1.0  0.45133  0.12576  0.08855  1.0000
  C   C167      1.0  0.49611  0.09861  0.49522  1.0000
  H   H275      1.0  0.48732  0.09159  0.23793  1.0000
  H   H276      1.0  0.48619  0.11524  0.04428  1.0000
  N   N18       1.0  0.50090  0.11657  0.47990  1.0000
  S   S72       1.0  0.50000  0.07339  0.15681  1.0000
  N   N19       1.0  0.46318  0.12031  0.03725  1.0000
  H   H277      1.0  0.50379  0.31214  0.12111  1.0000
  H   H278      1.0  0.50368  0.33629  0.39564  1.0000
  H   H279      1.0  0.47688  0.11816  0.08946  1.0000
  H   H280      1.0  0.49627  0.33521  0.05875  1.0000
  C   C168      1.0  0.50166  0.12654  0.30290  1.0000
  H   H281      1.0  0.49672  0.09887  0.30747  1.0000
  Fe  Fe35      1.0  0.49493  0.08798  0.04963  1.0000
  C   C169      1.0  0.49652  0.10918  0.28824  1.0000
  H   H282      1.0  0.44895  0.09601  0.06575  1.0000
  H   H283      1.0  0.46225  0.14458  0.05918  1.0000
  H   H284      1.0  0.49336  0.33726  0.34973  1.0000
  H   H285      1.0  0.44187  0.12853  0.04276  1.0000
  C   C170      1.0  0.49968  0.12853  0.51148  1.0000
  H   H286      1.0  0.48868  0.33823  0.23395  1.0000
  C   C171      1.0  0.45212  0.10138  0.03576  1.0000
  H   H287      1.0  0.48997  0.10761  0.42234  1.0000
  H   H288      1.0  0.48645  0.12421  0.52308  1.0000
  H   H289      1.0  0.50320  0.14219  0.50087  1.0000
  H   H290      1.0  0.49249  0.12964  0.43449  1.0000
  S   S73       1.0  0.49202  0.09313  0.98482  1.0000
  C   C172      1.0  0.46709  0.12680  0.99685  1.0000
  H   H291      1.0  0.47620  0.14079  0.99663  1.0000
  H   H292      1.0  0.47705  0.30543  0.87365  1.0000
  C   C173      1.0  0.47603  0.29654  0.84797  1.0000
  C   C174      1.0  0.50192  0.11289  0.95857  1.0000
  H   H293      1.0  0.49325  0.09995  0.90245  1.0000
  H   H294      1.0  0.48488  0.33058  0.82806  1.0000
  C   C175      1.0  0.48595  0.29379  0.78305  1.0000
  H   H295      1.0  0.46987  0.31645  0.79226  1.0000
  H   H296      1.0  0.45528  0.12582  0.98025  1.0000
  H   H297      1.0  0.49188  0.32828  0.77986  1.0000
  H   H298      1.0  0.47912  0.28527  0.85850  1.0000
  H   H299      1.0  0.48941  0.28248  0.79162  1.0000
  H   H300      1.0  0.45862  0.09354  0.02061  1.0000
  H   H301      1.0  0.50356  0.12755  0.86442  1.0000
  H   H302      1.0  0.50116  0.17281  0.60001  1.0000
  H   H303      1.0  0.46240  0.29124  0.83750  1.0000
  N   N20       1.0  0.48770  0.30597  0.81660  1.0000
  H   H304      1.0  0.47263  0.28843  0.77069  1.0000
  C   C176      1.0  0.49985  0.11243  0.91752  1.0000
  H   H305      1.0  0.49468  0.30048  0.75892  1.0000
  C   C177      1.0  0.48332  0.32091  0.80365  1.0000
  H   H306      1.0  0.47310  0.11899  0.98006  1.0000
  C   C178      1.0  0.50571  0.12806  0.89584  1.0000
  C   C179      1.0  0.50559  0.31266  0.83180  1.0000
  H   H307      1.0  0.43984  0.09894  0.01958  1.0000
  C   C180      1.0  0.50276  0.36381  0.21025  1.0000
  N   N21       1.0  0.35906  0.43626  0.19880  1.0000
  H   H308      1.0  0.38292  0.43222  0.19629  1.0000
  H   H309      1.0  0.46837  0.49908  0.05770  1.0000
  S   S74       1.0  0.48804  0.40713  0.12311  1.0000
  Fe  Fe36      1.0  0.49136  0.38106  0.12363  1.0000
  H   H310      1.0  0.47600  0.45036  0.11148  1.0000
  S   S75       1.0  0.40950  0.44270  0.12215  1.0000
  S   S76       1.0  0.47724  0.37175  0.06565  1.0000
  H   H311      1.0  0.48378  0.43785  0.07905  1.0000
  C   C181      1.0  0.36698  0.45332  0.22002  1.0000
  H   H312      1.0  0.48416  0.48240  0.10160  1.0000
  S   S77       1.0  0.37433  0.46139  0.07786  1.0000
  S   S78       1.0  0.35403  0.48201  0.16052  1.0000
  C   C182      1.0  0.34455  0.49906  0.26689  1.0000
  C   C183      1.0  0.43245  0.42613  0.11988  1.0000
  H   H313      1.0  0.44941  0.41180  0.11878  1.0000
  C   C184      1.0  0.35708  0.49176  0.20817  1.0000
  H   H314      1.0  0.46464  0.46076  0.05372  1.0000
  Fe  Fe37      1.0  0.37631  0.48271  0.12267  1.0000
  H   H315      1.0  0.45126  0.59729  0.20503  1.0000
  S   S79       1.0  0.34847  0.58366  0.35128  1.0000
  S   S80       1.0  0.45313  0.61909  0.40344  1.0000
  H   H316      1.0  0.36699  0.41985  0.16022  1.0000
  H   H317      1.0  0.38729  0.50918  0.28085  1.0000
  H   H318      1.0  0.49171  0.62985  0.09900  1.0000
  H   H319      1.0  0.44501  0.50012  0.09981  1.0000
  H   H320      1.0  0.39867  0.56461  0.32019  1.0000
  S   S81       1.0  0.43502  0.52909  0.11960  1.0000
  Fe  Fe38      1.0  0.40067  0.46415  0.10030  1.0000
  C   C185      1.0  0.42361  0.43454  0.09786  1.0000
  H   H321      1.0  0.42856  0.57546  0.34706  1.0000
  C   C186      1.0  0.37320  0.49817  0.22714  1.0000
  S   S82       1.0  0.48700  0.36154  0.17324  1.0000
  C   C187      1.0  0.48058  0.54349  0.06728  1.0000
  H   H322      1.0  0.48944  0.36461  0.33136  1.0000
  H   H323      1.0  0.45816  0.57085  0.21199  1.0000
  C   C188      1.0  0.36056  0.50506  0.28620  1.0000
  H   H324      1.0  0.37842  0.44299  0.15488  1.0000
  H   H325      1.0  0.41859  0.44158  0.03977  1.0000
  S   S83       1.0  0.36304  0.51261  0.33569  1.0000
  C   C189      1.0  0.50329  0.34522  0.37160  1.0000
  H   H326      1.0  0.43103  0.42535  0.15134  1.0000
  H   H327      1.0  0.44391  0.55010  0.19129  1.0000
  S   S84       1.0  0.40126  0.48357  0.14810  1.0000
  H   H328      1.0  0.38432  0.49794  0.21207  1.0000
  C   C190      1.0  0.44288  0.41842  0.10148  1.0000
  C   C191      1.0  0.48078  0.52728  0.05468  1.0000
  H   H329      1.0  0.47231  0.34604  0.38510  1.0000
  H   H330      1.0  0.47959  0.36484  0.41795  1.0000
  C   C192      1.0  0.49360  0.62003  0.11729  1.0000
  C   C193      1.0  0.37487  0.50459  0.26613  1.0000
  C   C194      1.0  0.45884  0.62164  0.48277  1.0000
  H   H331      1.0  0.43351  0.57332  0.24759  1.0000
  C   C195      1.0  0.50035  0.34990  0.23619  1.0000
  C   C196      1.0  0.48715  0.45101  0.09347  1.0000
  C   C197      1.0  0.48531  0.64017  0.51636  1.0000
  C   C198      1.0  0.45478  0.51221  0.09022  1.0000
  Fe  Fe39      1.0  0.47635  0.39900  0.06292  1.0000
  C   C199      1.0  0.42345  0.56300  0.15140  1.0000
  Fe  Fe40      1.0  0.45930  0.62809  0.34084  1.0000
  S   S85       1.0  0.44531  0.64367  0.31285  1.0000
  H   H332      1.0  0.42221  0.55837  0.38281  1.0000
  Fe  Fe41      1.0  0.47307  0.62111  0.26095  1.0000
  S   S86       1.0  0.46025  0.63623  0.22787  1.0000
  Fe  Fe42      1.0  0.46939  0.65591  0.27792  1.0000
  Fe  Fe43      1.0  0.43762  0.62253  0.26579  1.0000
  S   S87       1.0  0.41207  0.60563  0.23874  1.0000
  S   S88       1.0  0.44992  0.60622  0.29584  1.0000
  H   H333      1.0  0.37319  0.46415  0.19940  1.0000
  H   H334      1.0  0.37704  0.45326  0.24146  1.0000
  C   C200      1.0  0.39452  0.59964  0.27030  1.0000
  C   C201      1.0  0.39277  0.61177  0.29729  1.0000
  C   C202      1.0  0.37836  0.60687  0.32141  1.0000
  C   C203      1.0  0.36604  0.58964  0.31975  1.0000
  C   C204      1.0  0.36792  0.57744  0.29310  1.0000
  C   C205      1.0  0.38198  0.58252  0.26797  1.0000
  H   H335      1.0  0.40230  0.62506  0.29894  1.0000
  H   H336      1.0  0.37690  0.61638  0.34183  1.0000
  H   H337      1.0  0.35842  0.56415  0.29144  1.0000
  H   H338      1.0  0.38321  0.57312  0.24693  1.0000
  H   H339      1.0  0.43268  0.58106  0.39808  1.0000
  C   C206      1.0  0.48267  0.64029  0.44475  1.0000
  C   C207      1.0  0.46586  0.62780  0.44619  1.0000
  S   S89       1.0  0.48394  0.64155  0.30906  1.0000
  H   H340      1.0  0.41703  0.54851  0.15504  1.0000
  C   C208      1.0  0.50344  0.59614  0.12512  1.0000
  H   H341      1.0  0.43237  0.59623  0.17840  1.0000
  H   H342      1.0  0.48827  0.64500  0.41672  1.0000
  H   H343      1.0  0.45662  0.56729  0.15989  1.0000
  C   C209      1.0  0.48847  0.61858  0.15665  1.0000
  H   H344      1.0  0.40882  0.57739  0.44220  1.0000
  H   H345      1.0  0.39562  0.59338  0.37341  1.0000
  C   C210      1.0  0.39412  0.56146  0.35067  1.0000
  C   C211      1.0  0.42546  0.43533  0.05715  1.0000
  H   H346      1.0  0.38127  0.56234  0.35203  1.0000
  N   N22       1.0  0.43505  0.57135  0.18505  1.0000
  C   C212      1.0  0.42518  0.56719  0.22160  1.0000
  C   C213      1.0  0.44903  0.56460  0.18722  1.0000
  H   H347      1.0  0.41455  0.57214  0.22094  1.0000
  N   N23       1.0  0.40627  0.57353  0.37966  1.0000
  C   C214      1.0  0.42316  0.57199  0.37677  1.0000
  H   H348      1.0  0.41936  0.55273  0.22616  1.0000
  C   C215      1.0  0.37237  0.43261  0.17672  1.0000
  C   C216      1.0  0.49239  0.64636  0.47975  1.0000
  C   C217      1.0  0.44251  0.59061  0.18003  1.0000
  H   H349      1.0  0.41316  0.56833  0.14808  1.0000
  H   H350      1.0  0.35727  0.45683  0.23619  1.0000
  H   H351      1.0  0.43059  0.56508  0.12347  1.0000
  S   S90       1.0  0.35268  0.54404  0.40473  1.0000
  H   H352      1.0  0.39733  0.55493  0.42608  1.0000
  H   H353      1.0  0.41336  0.59591  0.34202  1.0000
  H   H354      1.0  0.48262  0.62719  0.16843  1.0000
  H   H355      1.0  0.49052  0.55564  0.05853  1.0000
  H   H356      1.0  0.39219  0.54746  0.35584  1.0000
  C   C218      1.0  0.39963  0.56890  0.41959  1.0000
  C   C219      1.0  0.40816  0.59182  0.37170  1.0000
  H   H357      1.0  0.38724  0.57066  0.42320  1.0000
  H   H358      1.0  0.44590  0.61191  0.48419  1.0000
  H   H359      1.0  0.41706  0.60128  0.39331  1.0000
  H   H360      1.0  0.49490  0.65958  0.21537  1.0000
  S   S91       1.0  0.48678  0.60530  0.23150  1.0000
  C   C220      1.0  0.46701  0.54406  0.08974  1.0000
  C   C221      1.0  0.49521  0.48225  0.08419  1.0000
  H   H361      1.0  0.35130  0.44696  0.14818  1.0000
  C   C222      1.0  0.46846  0.62782  0.51765  1.0000
  Fe  Fe44      1.0  0.41306  0.50403  0.10352  1.0000
  C   C223      1.0  0.48280  0.35380  0.40601  1.0000
  C   C224      1.0  0.34281  0.49228  0.22822  1.0000
  S   S92       1.0  0.38829  0.50489  0.08112  1.0000
  C   C225      1.0  0.50122  0.60892  0.10137  1.0000
  H   H362      1.0  0.45015  0.59418  0.15284  1.0000
  H   H363      1.0  0.46640  0.55662  0.09748  1.0000
  C   C226      1.0  0.49941  0.37182  0.35392  1.0000
  C   C227      1.0  0.45380  0.52839  0.09999  1.0000
  C   C228      1.0  0.49133  0.60628  0.18080  1.0000
  H   H364      1.0  0.50393  0.65802  0.16872  1.0000
  H   H365      1.0  0.50548  0.65576  0.47841  1.0000
  C   C229      1.0  0.44424  0.41867  0.06065  1.0000
  C   C230      1.0  0.46818  0.51162  0.06714  1.0000
  S   S93       1.0  0.41431  0.48495  0.05741  1.0000
  N   N24       1.0  0.49965  0.36033  0.38682  1.0000
  C   C231      1.0  0.34567  0.43700  0.17114  1.0000
  Fe  Fe45      1.0  0.38823  0.48398  0.03797  1.0000
  N   N25       1.0  0.49120  0.46504  0.06412  1.0000
  H   H366      1.0  0.49830  0.45305  0.11364  1.0000
  C   C232      1.0  0.35123  0.42217  0.22726  1.0000
  C   C233      1.0  0.49864  0.59494  0.16475  1.0000
  Fe  Fe46      1.0  0.34261  0.52082  0.36271  1.0000
  H   H367      1.0  0.36101  0.42130  0.24858  1.0000
  H   H368      1.0  0.49830  0.49315  0.06281  1.0000
  H   H369      1.0  0.50084  0.58532  0.18314  1.0000
  H   H370      1.0  0.49675  0.38344  0.36418  1.0000
  H   H371      1.0  0.50101  0.35407  0.09016  1.0000
  H   H372      1.0  0.50646  0.48543  0.10460  1.0000
  H   H373      1.0  0.34179  0.51022  0.51980  1.0000
  H   H374      1.0  0.48270  0.34506  0.43090  1.0000
  H   H375      1.0  0.34516  0.40909  0.21227  1.0000
  C   C234      1.0  0.50625  0.66577  0.19669  1.0000
  H   H376      1.0  0.34112  0.42461  0.24431  1.0000
  C   C235      1.0  0.43553  0.42722  0.03866  1.0000
  Fe  Fe47      1.0  0.50329  0.38356  0.03847  1.0000
  S   S94       1.0  0.45641  0.40830  0.03573  1.0000
  C   C236      1.0  0.50618  0.46545  0.04142  1.0000
  C   C237      1.0  0.47623  0.46141  0.03737  1.0000
  C   C238      1.0  0.35859  0.56436  0.58273  1.0000
  H   H377      1.0  0.36689  0.53828  0.61066  1.0000
  C   C239      1.0  0.45437  0.53644  0.96899  1.0000
  H   H378      1.0  0.37713  0.54916  0.65527  1.0000
  C   C240      1.0  0.36745  0.54870  0.63241  1.0000
  H   H379      1.0  0.46152  0.53426  0.94355  1.0000
  H   H380      1.0  0.49693  0.58067  0.78634  1.0000
  H   H381      1.0  0.44382  0.50247  0.94698  1.0000
  S   S95       1.0  0.38683  0.48714  0.97180  1.0000
  H   H382      1.0  0.42739  0.54001  0.00360  1.0000
  H   H383      1.0  0.39883  0.57271  0.61889  1.0000
  H   H384      1.0  0.41379  0.51446  0.93327  1.0000
  S   S96       1.0  0.49768  0.64817  0.55997  1.0000
  H   H385      1.0  0.38125  0.58091  0.66690  1.0000
  C   C241      1.0  0.50374  0.62430  0.79227  1.0000
  H   H386      1.0  0.49648  0.37593  0.93647  1.0000
  C   C242      1.0  0.50642  0.36877  0.88350  1.0000
  H   H387      1.0  0.38924  0.56190  0.57362  1.0000
  S   S97       1.0  0.49543  0.52665  0.01960  1.0000
  H   H388      1.0  0.47874  0.47182  0.01502  1.0000
  H   H389      1.0  0.38580  0.49741  0.89203  1.0000
  C   C243      1.0  0.37078  0.49152  0.94448  1.0000
  H   H390      1.0  0.46294  0.62270  0.54546  1.0000
  H   H391      1.0  0.45459  0.55005  0.96737  1.0000
  C   C244      1.0  0.38875  0.57155  0.59633  1.0000
  H   H392      1.0  0.49790  0.37223  0.86426  1.0000
  H   H393      1.0  0.49569  0.60499  0.74534  1.0000
  H   H394      1.0  0.37403  0.59217  0.63043  1.0000
  H   H395      1.0  0.44390  0.50410  0.99952  1.0000
  C   C245      1.0  0.36126  0.49940  0.88177  1.0000
  C   C246      1.0  0.37380  0.49631  0.90499  1.0000
  H   H396      1.0  0.35253  0.48614  0.99087  1.0000
  S   S98       1.0  0.35516  0.52229  0.76888  1.0000
  C   C247      1.0  0.34239  0.49263  0.93715  1.0000
  H   H397      1.0  0.36368  0.50287  0.85133  1.0000
  C   C248      1.0  0.50541  0.59666  0.83895  1.0000
  H   H398      1.0  0.35482  0.54431  0.64697  1.0000
  H   H399      1.0  0.46174  0.53587  0.99589  1.0000
  Fe  Fe48      1.0  0.46327  0.65616  0.67072  1.0000
  S   S99       1.0  0.49146  0.66214  0.66727  1.0000
  Fe  Fe49      1.0  0.45437  0.61662  0.66333  1.0000
  S   S100      1.0  0.48194  0.61957  0.65870  1.0000
  S   S101      1.0  0.43400  0.58932  0.65951  1.0000
  Fe  Fe50      1.0  0.48655  0.63930  0.70814  1.0000
  H   H400      1.0  0.43566  0.56719  0.80058  1.0000
  Fe  Fe51      1.0  0.48402  0.64179  0.61823  1.0000
  H   H401      1.0  0.39966  0.60689  0.75339  1.0000
  S   S102      1.0  0.45874  0.63498  0.71511  1.0000
  S   S103      1.0  0.45608  0.63721  0.61949  1.0000
  S   S104      1.0  0.37428  0.57484  0.77984  1.0000
  C   C249      1.0  0.42725  0.52431  0.93351  1.0000
  H   H402      1.0  0.42586  0.57828  0.83233  1.0000
  H   H403      1.0  0.47625  0.66717  0.56816  1.0000
  H   H404      1.0  0.35873  0.57495  0.65820  1.0000
  C   C250      1.0  0.34538  0.49736  0.89761  1.0000
  H   H405      1.0  0.40875  0.55722  0.68651  1.0000
  C   C251      1.0  0.42778  0.52663  0.00414  1.0000
  H   H406      1.0  0.47204  0.60790  0.83407  1.0000
  H   H407      1.0  0.46778  0.60847  0.76111  1.0000
  H   H408      1.0  0.44748  0.59529  0.73932  1.0000
  S   S105      1.0  0.49530  0.57190  0.98163  1.0000
  H   H409      1.0  0.50364  0.45257  0.02634  1.0000
  H   H410      1.0  0.46077  0.58488  0.76022  1.0000
  H   H411      1.0  0.36141  0.57698  0.56734  1.0000
  H   H412      1.0  0.42388  0.49508  0.97248  1.0000
  H   H413      1.0  0.42283  0.61283  0.70503  1.0000
  C   C252      1.0  0.39085  0.57871  0.74660  1.0000
  C   C253      1.0  0.39334  0.56471  0.72756  1.0000
  C   C254      1.0  0.40672  0.56808  0.70095  1.0000
  C   C255      1.0  0.41745  0.58542  0.69298  1.0000
  C   C256      1.0  0.41488  0.59941  0.71180  1.0000
  C   C257      1.0  0.40170  0.59605  0.73894  1.0000
  H   H414      1.0  0.38503  0.55130  0.73354  1.0000
  S   S106      1.0  0.50211  0.64183  0.76480  1.0000
  H   H415      1.0  0.45493  0.62344  0.80544  1.0000
  N   N26       1.0  0.43662  0.52321  0.96971  1.0000
  H   H416      1.0  0.45443  0.59493  0.86357  1.0000
  H   H417      1.0  0.43641  0.42740  0.00704  1.0000
  C   C258      1.0  0.44342  0.61093  0.80668  1.0000
  H   H418      1.0  0.43702  0.61088  0.83504  1.0000
  N   N27       1.0  0.37156  0.56594  0.61376  1.0000
  H   H419      1.0  0.43439  0.61127  0.78285  1.0000
  S   S107      1.0  0.50131  0.40981  0.03076  1.0000
  H   H420      1.0  0.42319  0.57865  0.78029  1.0000
  C   C259      1.0  0.46029  0.59563  0.83429  1.0000
  C   C260      1.0  0.45642  0.59601  0.76414  1.0000
  H   H421      1.0  0.46455  0.58437  0.83142  1.0000
  C   C261      1.0  0.43709  0.50543  0.97227  1.0000
  N   N28       1.0  0.44816  0.59542  0.80233  1.0000
  Fe  Fe52      1.0  0.35266  0.54853  0.77093  1.0000
  C   C262      1.0  0.43256  0.57916  0.80407  1.0000
  C   C263      1.0  0.35507  0.48990  0.96061  1.0000
  H   H422      1.0  0.35799  0.55419  0.56020  1.0000
  H   H423      1.0  0.41428  0.51700  0.00540  1.0000
  H   H424      1.0  0.42654  0.53751  0.93075  1.0000
  C   C264      1.0  0.37137  0.57909  0.64356  1.0000
  C   C265      1.0  0.49953  0.60743  0.77594  1.0000
  H   H425      1.0  0.43349  0.52171  0.90692  1.0000
  H   H426      1.0  0.43433  0.52560  0.03197  1.0000
  H   H427      1.0  0.39241  0.58461  0.58239  1.0000
  C   C266      1.0  0.50032  0.59369  0.79921  1.0000
  H   H428      1.0  0.47290  0.44854  0.02155  1.0000
  H   H429      1.0  0.34552  0.56047  0.59506  1.0000
  S   S108      1.0  0.50569  0.57874  0.86702  1.0000
  H   H430      1.0  0.34688  0.49798  0.58313  1.0000
  C   C267      1.0  0.50561  0.37093  0.92442  1.0000
  S   S109      1.0  0.48518  0.68487  0.26879  1.0000
  S   S110      1.0  0.44997  0.73918  0.22987  1.0000
  C   C268      1.0  0.47515  0.69970  0.25762  1.0000
  C   C269      1.0  0.45748  0.69389  0.25000  1.0000
  C   C270      1.0  0.44993  0.70612  0.24135  1.0000
  C   C271      1.0  0.45991  0.72424  0.24106  1.0000
  C   C272      1.0  0.47756  0.73005  0.24899  1.0000
  C   C273      1.0  0.48516  0.71781  0.25680  1.0000
  H   H431      1.0  0.40113  0.97475  0.05381  1.0000
  H   H432      1.0  0.43627  0.70151  0.23505  1.0000
  H   H433      1.0  0.39034  0.79093  0.42483  1.0000
  H   H434      1.0  0.46055  0.75454  0.35700  1.0000
  H   H435      1.0  0.49189  0.75004  0.38912  1.0000
  H   H436      1.0  0.45488  0.73756  0.31950  1.0000
  C   C274      1.0  0.47229  0.71934  0.35236  1.0000
  H   H437      1.0  0.48139  0.73349  0.42457  1.0000
  H   H438      1.0  0.47694  0.75177  0.32805  1.0000
  C   C275      1.0  0.46460  0.74450  0.34276  1.0000
  H   H439      1.0  0.44496  0.73223  0.40513  1.0000
  Fe  Fe53      1.0  0.35353  0.80882  0.46464  1.0000
  C   C276      1.0  0.47927  0.74227  0.40230  1.0000
  H   H440      1.0  0.42794  0.81146  0.49112  1.0000
  H   H441      1.0  0.42597  0.78109  0.47183  1.0000
  H   H442      1.0  0.47511  0.75195  0.41788  1.0000
  N   N29       1.0  0.46648  0.73221  0.37196  1.0000
  C   C277      1.0  0.44974  0.72284  0.39031  1.0000
  H   H443      1.0  0.48542  0.74393  0.24846  1.0000
  H   H444      1.0  0.48492  0.72601  0.33827  1.0000
  S   S111      1.0  0.36815  0.77352  0.36162  1.0000
  Fe  Fe54      1.0  0.46185  0.76765  0.25037  1.0000
  S   S112      1.0  0.48978  0.78077  0.26519  1.0000
  H   H445      1.0  0.38077  0.88566  0.31160  1.0000
  Fe  Fe55      1.0  0.45520  0.80091  0.27011  1.0000
  S   S113      1.0  0.48287  0.81639  0.28678  1.0000
  S   S114      1.0  0.43663  0.81475  0.27192  1.0000
  Fe  Fe56      1.0  0.48842  0.80388  0.23226  1.0000
  H   H446      1.0  0.47972  0.75924  0.06377  1.0000
  Fe  Fe57      1.0  0.48112  0.79170  0.31780  1.0000
  S   S115      1.0  0.49419  0.86424  0.05422  1.0000
  S   S116      1.0  0.46085  0.78991  0.21391  1.0000
  S   S117      1.0  0.45310  0.77719  0.30476  1.0000
  S   S118      1.0  0.40802  0.91095  0.16046  1.0000
  S   S119      1.0  0.36397  0.86785  0.17369  1.0000
  Fe  Fe58      1.0  0.38312  0.89004  0.13901  1.0000
  C   C278      1.0  0.48413  0.88724  0.14415  1.0000
  C   C279      1.0  0.48563  0.78704  0.45620  1.0000
  C   C280      1.0  0.49848  0.85070  0.08954  1.0000
  H   H447      1.0  0.38719  0.94259  0.05688  1.0000
  N   N30       1.0  0.41297  0.85627  0.21441  1.0000
  C   C281      1.0  0.39984  0.85535  0.18433  1.0000
  H   H448      1.0  0.44964  0.67997  0.25043  1.0000
  H   H449      1.0  0.38052  0.89132  0.24017  1.0000
  H   H450      1.0  0.44861  0.92391  0.05792  1.0000
  Fe  Fe59      1.0  0.41930  0.90185  0.10949  1.0000
  C   C282      1.0  0.41751  0.80314  0.29642  1.0000
  C   C283      1.0  0.41235  0.78508  0.30277  1.0000
  C   C284      1.0  0.39710  0.77603  0.32256  1.0000
  C   C285      1.0  0.38692  0.78498  0.33591  1.0000
  C   C286      1.0  0.39195  0.80300  0.32913  1.0000
  C   C287      1.0  0.40723  0.81206  0.30941  1.0000
  H   H451      1.0  0.41990  0.77800  0.29180  1.0000
  H   H452      1.0  0.39314  0.76205  0.32735  1.0000
  H   H453      1.0  0.38404  0.80994  0.33884  1.0000
  H   H454      1.0  0.41115  0.82602  0.30467  1.0000
  C   C288      1.0  0.46841  0.79838  0.41593  1.0000
  C   C289      1.0  0.48112  0.79136  0.41905  1.0000
  Fe  Fe60      1.0  0.35629  0.79145  0.38717  1.0000
  C   C290      1.0  0.46363  0.75677  0.13233  1.0000
  C   C291      1.0  0.42611  0.97661  0.11866  1.0000
  H   H455      1.0  0.46819  0.98910  0.09409  1.0000
  S   S120      1.0  0.45387  0.80000  0.52843  1.0000
  S   S121      1.0  0.36442  0.80840  0.52602  1.0000
  H   H456      1.0  0.48095  0.78627  0.51853  1.0000
  H   H457      1.0  0.40245  0.82846  0.22558  1.0000
  C   C292      1.0  0.50176  0.91649  0.16744  1.0000
  H   H458      1.0  0.40882  0.81637  0.48957  1.0000
  H   H459      1.0  0.49980  0.68027  0.52194  1.0000
  S   S122      1.0  0.37650  0.90830  0.09852  1.0000
  H   H460      1.0  0.49281  0.75895  0.16864  1.0000
  H   H461      1.0  0.47256  0.78474  0.08467  1.0000
  H   H462      1.0  0.48790  0.77759  0.18255  1.0000
  C   C293      1.0  0.47740  0.78963  0.49003  1.0000
  S   S123      1.0  0.37270  0.81698  0.41619  1.0000
  H   H463      1.0  0.50587  0.78073  0.15234  1.0000
  Fe  Fe61      1.0  0.35505  0.82778  0.38581  1.0000
  C   C294      1.0  0.44148  0.97516  0.10754  1.0000
  H   H464      1.0  0.45063  0.71343  0.41261  1.0000
  H   H465      1.0  0.38073  0.79289  0.47042  1.0000
  S   S124      1.0  0.44321  0.89591  0.11277  1.0000
  H   H466      1.0  0.46495  0.80190  0.38750  1.0000
  H   H467      1.0  0.49885  0.72240  0.26256  1.0000
  C   C295      1.0  0.46041  0.80125  0.44977  1.0000
  H   H468      1.0  0.35047  0.83651  0.21866  1.0000
  C   C296      1.0  0.42588  0.99355  0.12423  1.0000
  H   H469      1.0  0.48619  0.91453  0.09797  1.0000
  S   S125      1.0  0.40679  0.95774  0.12472  1.0000
  C   C297      1.0  0.35767  0.84394  0.27922  1.0000
  H   H470      1.0  0.40575  0.76504  0.45509  1.0000
  S   S126      1.0  0.36579  0.85454  0.35701  1.0000
  H   H471      1.0  0.45815  0.76208  0.15654  1.0000
  C   C298      1.0  0.45638  0.99044  0.10239  1.0000
  H   H472      1.0  0.49559  0.78178  0.45887  1.0000
  C   C299      1.0  0.35721  0.84725  0.23888  1.0000
  H   H473      1.0  0.40657  0.87387  0.25253  1.0000
  N   N31       1.0  0.40473  0.78942  0.47607  1.0000
  C   C300      1.0  0.48892  0.83255  0.14755  1.0000
  C   C301      1.0  0.49247  0.77159  0.15809  1.0000
  H   H474      1.0  0.35147  0.83072  0.28981  1.0000
  H   H475      1.0  0.47921  0.82666  0.16916  1.0000
  C   C302      1.0  0.45258  0.91413  0.04461  1.0000
  C   C303      1.0  0.41543  0.80844  0.47537  1.0000
  H   H476      1.0  0.39833  0.86821  0.18188  1.0000
  C   C304      1.0  0.48089  0.78610  0.11109  1.0000
  C   C305      1.0  0.40776  0.86082  0.25295  1.0000
  C   C306      1.0  0.45898  0.88791  0.04995  1.0000
  H   H477      1.0  0.45090  0.80709  0.44708  1.0000
  H   H478      1.0  0.42874  0.88307  0.20131  1.0000
  H   H479      1.0  0.47394  0.84469  0.11660  1.0000
  H   H480      1.0  0.41836  0.83497  0.18810  1.0000
  H   H481      1.0  0.38703  0.84533  0.19148  1.0000
  H   H482      1.0  0.42470  0.83942  0.23868  1.0000
  H   H483      1.0  0.50354  0.91153  0.19674  1.0000
  H   H484      1.0  0.43984  0.87103  0.22579  1.0000
  C   C307      1.0  0.42961  0.86991  0.20367  1.0000
  C   C308      1.0  0.36546  0.86433  0.22450  1.0000
  H   H485      1.0  0.48553  0.88105  0.17214  1.0000
  C   C309      1.0  0.41467  0.83903  0.21669  1.0000
  H   H486      1.0  0.39509  0.85095  0.26162  1.0000
  S   S127      1.0  0.49139  0.78761  0.37703  1.0000
  H   H487      1.0  0.40331  0.85196  0.15483  1.0000
  H   H488      1.0  0.41722  0.86131  0.27654  1.0000
  H   H489      1.0  0.43389  0.86686  0.17469  1.0000
  C   C310      1.0  0.37433  0.87485  0.29130  1.0000
  C   C311      1.0  0.37423  0.87809  0.25082  1.0000
  H   H490      1.0  0.44196  0.96228  0.10322  1.0000
  C   C312      1.0  0.48791  0.76139  0.09075  1.0000
  H   H491      1.0  0.48837  0.74848  0.09889  1.0000
  C   C313      1.0  0.38823  0.78611  0.45541  1.0000
  H   H492      1.0  0.46299  0.71173  0.32897  1.0000
  Fe  Fe62      1.0  0.40267  0.92862  0.11606  1.0000
  H   H493      1.0  0.47241  0.89039  0.14572  1.0000
  H   H494      1.0  0.45896  0.87674  0.06647  1.0000
  N   N32       1.0  0.48121  0.76896  0.12303  1.0000
  C   C314      1.0  0.41373  0.77938  0.45622  1.0000
  S   S128      1.0  0.39507  0.87971  0.09092  1.0000
  S   S129      1.0  0.41557  0.92064  0.06690  1.0000
  C   C315      1.0  0.36598  0.85780  0.30573  1.0000
  H   H495      1.0  0.47373  0.70971  0.37334  1.0000
  H   H496      1.0  0.41833  0.95645  0.04335  1.0000
  H   H497      1.0  0.50117  0.77030  0.08313  1.0000
  H   H498      1.0  0.41410  0.99487  0.13290  1.0000
  H   H499      1.0  0.43981  0.71522  0.36801  1.0000
  H   H500      1.0  0.49036  0.92024  0.16885  1.0000
  C   C316      1.0  0.48600  0.84285  0.11778  1.0000
  H   H501      1.0  0.41683  0.78372  0.42545  1.0000
  C   C317      1.0  0.46477  0.79678  0.48691  1.0000
  H   H502      1.0  0.38001  0.77184  0.45362  1.0000
  C   C318      1.0  0.45227  0.89962  0.06612  1.0000
  Fe  Fe63      1.0  0.39016  0.89913  0.05207  1.0000
  H   H503      1.0  0.46344  0.74381  0.14225  1.0000
  H   H504      1.0  0.45473  0.75434  0.10658  1.0000
  H   H505      1.0  0.47599  0.79225  0.13486  1.0000
  C   C319      1.0  0.49704  0.69251  0.52351  1.0000
  H   H506      1.0  0.48174  0.87714  0.12040  1.0000
  H   H507      1.0  0.48731  0.69136  0.50012  1.0000
  H   H508      1.0  0.41829  0.81311  0.44477  1.0000
  H   H509      1.0  0.49473  0.90014  0.07416  1.0000
  N   N33       1.0  0.49952  0.90310  0.13627  1.0000
  C   C320      1.0  0.45621  0.00740  0.10827  1.0000
  H   H510      1.0  0.49400  0.79569  0.10445  1.0000
  C   C321      1.0  0.50437  0.82992  0.14934  1.0000
  C   C322      1.0  0.49727  0.91026  0.09798  1.0000
  C   C323      1.0  0.40149  0.78381  0.51719  1.0000
  H   H511      1.0  0.39348  0.76953  0.51885  1.0000
  H   H512      1.0  0.50671  0.67917  0.18988  1.0000
  H   H513      1.0  0.39460  0.79112  0.53280  1.0000
  H   H514      1.0  0.41376  0.78626  0.53364  1.0000
  H   H515      1.0  0.40825  0.98520  0.00798  1.0000
  N   N34       1.0  0.43467  0.72877  0.74386  1.0000
  H   H516      1.0  0.42869  0.70138  0.75504  1.0000
  S   S130      1.0  0.34953  0.79396  0.74006  1.0000
  H   H517      1.0  0.45614  0.72172  0.72996  1.0000
  C   C324      1.0  0.46243  0.69843  0.66575  1.0000
  C   C325      1.0  0.47956  0.70635  0.67849  1.0000
  C   C326      1.0  0.48840  0.72464  0.67489  1.0000
  C   C327      1.0  0.48011  0.73508  0.65883  1.0000
  C   C328      1.0  0.46310  0.72703  0.64544  1.0000
  C   C329      1.0  0.45434  0.70878  0.64875  1.0000
  H   H518      1.0  0.48587  0.69847  0.69196  1.0000
  H   H519      1.0  0.45668  0.73481  0.63236  1.0000
  H   H520      1.0  0.44119  0.70264  0.63812  1.0000
  H   H521      1.0  0.40699  0.85434  0.99441  1.0000
  H   H522      1.0  0.43745  0.75588  0.74423  1.0000
  H   H523      1.0  0.41333  0.72333  0.70340  1.0000
  C   C330      1.0  0.42719  0.72534  0.70371  1.0000
  H   H524      1.0  0.45954  0.73609  0.77198  1.0000
  H   H525      1.0  0.35974  0.86250  0.01312  1.0000
  C   C331      1.0  0.35608  0.81351  0.56978  1.0000
  C   C332      1.0  0.39825  0.97370  0.02166  1.0000
  H   H526      1.0  0.43178  0.71507  0.79824  1.0000
  C   C333      1.0  0.43156  0.74379  0.76166  1.0000
  C   C334      1.0  0.42651  0.71294  0.76767  1.0000
  H   H527      1.0  0.42823  0.71339  0.69034  1.0000
  C   C335      1.0  0.45336  0.73296  0.74234  1.0000
  H   H528      1.0  0.41237  0.70933  0.76908  1.0000
  H   H529      1.0  0.45991  0.74452  0.72358  1.0000
  H   H530      1.0  0.43775  0.86212  0.97993  1.0000
  S   S131      1.0  0.49115  0.87055  0.94579  1.0000
  H   H531      1.0  0.43377  0.73659  0.68419  1.0000
  H   H532      1.0  0.49957  0.69717  0.62277  1.0000
  H   H533      1.0  0.40159  0.83960  0.95241  1.0000
  C   C336      1.0  0.46561  0.89054  0.01206  1.0000
  Fe  Fe64      1.0  0.34188  0.81787  0.83308  1.0000
  H   H534      1.0  0.41758  0.74118  0.76280  1.0000
  N   N35       1.0  0.39803  0.95688  0.00509  1.0000
  N   N36       1.0  0.49083  0.69487  0.56267  1.0000
  H   H535      1.0  0.43701  0.74684  0.79198  1.0000
  S   S132      1.0  0.39516  0.80981  0.79547  1.0000
  Fe  Fe65      1.0  0.46030  0.79319  0.58943  1.0000
  S   S133      1.0  0.45156  0.76527  0.60936  1.0000
  H   H536      1.0  0.34122  0.83547  0.97640  1.0000
  Fe  Fe66      1.0  0.47097  0.80862  0.67361  1.0000
  S   S134      1.0  0.46348  0.78180  0.69951  1.0000
  S   S135      1.0  0.47497  0.83376  0.70879  1.0000
  Fe  Fe67      1.0  0.47562  0.77496  0.64675  1.0000
  C   C337      1.0  0.37292  0.87487  0.92053  1.0000
  Fe  Fe68      1.0  0.44020  0.77415  0.66027  1.0000
  S   S136      1.0  0.34887  0.79409  0.83546  1.0000
  S   S137      1.0  0.48543  0.80273  0.62345  1.0000
  S   S138      1.0  0.44663  0.80110  0.63746  1.0000
  H   H537      1.0  0.42357  0.83405  0.75164  1.0000
  H   H538      1.0  0.40474  0.84463  0.71263  1.0000
  H   H539      1.0  0.44037  0.82922  0.72857  1.0000
  H   H540      1.0  0.41538  0.94339  0.99921  1.0000
  C   C338      1.0  0.36283  0.81078  0.60591  1.0000
  C   C339      1.0  0.43824  0.84372  0.65914  1.0000
  C   C340      1.0  0.41316  0.81928  0.67966  1.0000
  C   C341      1.0  0.46509  0.90457  0.98981  1.0000
  C   C342      1.0  0.47458  0.67995  0.57024  1.0000
  H   H541      1.0  0.47551  0.85915  0.76782  1.0000
  H   H542      1.0  0.40843  0.84881  0.66133  1.0000
  H   H543      1.0  0.42331  0.86290  0.69733  1.0000
  Fe  Fe69      1.0  0.36775  0.80733  0.78950  1.0000
  C   C343      1.0  0.36277  0.85937  0.89975  1.0000
  H   H544      1.0  0.36255  0.81330  0.66891  1.0000
  C   C344      1.0  0.41504  0.95588  0.01152  1.0000
  H   H545      1.0  0.44259  0.85160  0.73553  1.0000
  S   S139      1.0  0.38478  0.89606  0.98612  1.0000
  C   C345      1.0  0.49495  0.86030  0.81092  1.0000
  H   H546      1.0  0.44601  0.87113  0.93345  1.0000
  H   H547      1.0  0.40692  0.81824  0.65027  1.0000
  C   C346      1.0  0.48724  0.84071  0.75299  1.0000
  H   H548      1.0  0.44628  0.83561  0.65864  1.0000
  H   H549      1.0  0.48296  0.71348  0.59322  1.0000
  C   C347      1.0  0.40832  0.77182  0.71648  1.0000
  C   C348      1.0  0.42128  0.78534  0.73703  1.0000
  C   C349      1.0  0.41703  0.79618  0.76342  1.0000
  C   C350      1.0  0.39987  0.79399  0.76823  1.0000
  C   C351      1.0  0.38687  0.78007  0.74880  1.0000
  C   C352      1.0  0.39109  0.76889  0.72316  1.0000
  H   H550      1.0  0.43461  0.78764  0.73233  1.0000
  H   H551      1.0  0.42712  0.80665  0.77914  1.0000
  H   H552      1.0  0.37358  0.77795  0.75332  1.0000
  C   C353      1.0  0.35695  0.81509  0.64145  1.0000
  H   H553      1.0  0.46983  0.68090  0.60009  1.0000
  C   C354      1.0  0.41492  0.84901  0.69012  1.0000
  N   N37       1.0  0.41919  0.86594  0.94107  1.0000
  C   C355      1.0  0.42268  0.88405  0.95545  1.0000
  C   C356      1.0  0.40447  0.85343  0.96216  1.0000
  C   C357      1.0  0.43452  0.86163  0.94808  1.0000
  C   C358      1.0  0.41509  0.86466  0.89858  1.0000
  Fe  Fe70      1.0  0.49496  0.89897  0.94333  1.0000
  C   C359      1.0  0.36069  0.86170  0.98160  1.0000
  S   S140      1.0  0.45040  0.67587  0.67198  1.0000
  H   H554      1.0  0.42597  0.87395  0.88187  1.0000
  S   S141      1.0  0.41363  0.75903  0.68145  1.0000
  C   C360      1.0  0.49960  0.83404  0.76439  1.0000
  H   H555      1.0  0.40358  0.86786  0.89228  1.0000
  H   H556      1.0  0.43256  0.84823  0.93671  1.0000
  H   H557      1.0  0.41146  0.88782  0.95030  1.0000
  H   H558      1.0  0.40389  0.96667  0.94672  1.0000
  H   H559      1.0  0.50159  0.73078  0.68527  1.0000
  H   H560      1.0  0.42012  0.81015  0.67963  1.0000
  H   H561      1.0  0.42542  0.96701  0.99769  1.0000
  C   C361      1.0  0.37190  0.87614  0.96152  1.0000
  H   H562      1.0  0.38133  0.95660  0.95662  1.0000
  H   H563      1.0  0.43254  0.84305  0.62925  1.0000
  H   H564      1.0  0.36350  0.85867  0.86817  1.0000
  H   H565      1.0  0.45865  0.92755  0.98953  1.0000
  C   C362      1.0  0.48784  0.71149  0.56418  1.0000
  C   C363      1.0  0.39405  0.95581  0.96258  1.0000
  N   N38       1.0  0.42487  0.83755  0.68919  1.0000
  H   H566      1.0  0.39263  0.85615  0.95700  1.0000
  C   C364      1.0  0.45861  0.91640  0.00619  1.0000
  S   S142      1.0  0.47260  0.90728  0.94171  1.0000
  C   C365      1.0  0.34429  0.82228  0.64124  1.0000
  C   C366      1.0  0.35021  0.84636  0.96070  1.0000
  S   S143      1.0  0.49126  0.75803  0.65562  1.0000
  H   H567      1.0  0.43383  0.89384  0.94043  1.0000
  C   C367      1.0  0.43317  0.83816  0.72796  1.0000
  H   H568      1.0  0.42567  0.88549  0.98752  1.0000
  H   H569      1.0  0.40277  0.81435  0.70149  1.0000
  H   H570      1.0  0.38148  0.88599  0.90467  1.0000
  H   H571      1.0  0.44719  0.85753  0.66517  1.0000
  C   C368      1.0  0.35114  0.84513  0.91968  1.0000
  S   S144      1.0  0.36213  0.83197  0.78956  1.0000
  H   H572      1.0  0.38103  0.75832  0.70762  1.0000
  H   H573      1.0  0.37280  0.80548  0.60636  1.0000
  C   C369      1.0  0.48497  0.85385  0.77646  1.0000
  C   C370      1.0  0.50385  0.69551  0.59281  1.0000
  H   H574      1.0  0.41232  0.85114  0.88668  1.0000
  H   H575      1.0  0.39362  0.94311  0.94957  1.0000
  H   H576      1.0  0.47076  0.88142  0.99983  1.0000
  H   H577      1.0  0.50157  0.82402  0.74649  1.0000
  H   H578      1.0  0.38562  0.97493  0.01745  1.0000
  H   H579      1.0  0.49312  0.87047  0.82855  1.0000
  C   C371      1.0  0.34323  0.82043  0.56951  1.0000
  H   H580      1.0  0.38449  0.92913  0.01363  1.0000
  H   H581      1.0  0.49988  0.72312  0.55943  1.0000
  H   H582      1.0  0.46427  0.67930  0.54884  1.0000
  C   C372      1.0  0.38477  0.94205  0.02468  1.0000
  H   H583      1.0  0.37171  0.94218  0.02000  1.0000
  H   H584      1.0  0.47816  0.71156  0.54173  1.0000
  H   H585      1.0  0.50643  0.68316  0.59250  1.0000
  Fe  Fe71      1.0  0.34233  0.81751  0.74291  1.0000
  H   H586      1.0  0.61830  0.12631  0.21827  1.0000
  S   S145      1.0  0.61160  0.14885  0.27245  1.0000
  S   S146      1.0  0.51640  0.21557  0.42038  1.0000
  C   C373      1.0  0.53327  0.23698  0.36006  1.0000
  H   H587      1.0  0.57978  0.09206  0.09488  1.0000
  C   C374      1.0  0.58941  0.27029  0.35768  1.0000
  S   S147      1.0  0.62774  0.07363  0.06975  1.0000
  H   H588      1.0  0.58908  0.10498  0.16511  1.0000
  H   H589      1.0  0.57149  0.14801  0.22993  1.0000
  Fe  Fe72      1.0  0.52738  0.19470  0.41061  1.0000
  H   H590      1.0  0.57731  0.22949  0.39629  1.0000
  Fe  Fe73      1.0  0.55863  0.18792  0.38701  1.0000
  S   S148      1.0  0.54841  0.16049  0.40918  1.0000
  S   S149      1.0  0.58506  0.20102  0.36264  1.0000
  Fe  Fe74      1.0  0.52351  0.15826  0.37999  1.0000
  Fe  Fe75      1.0  0.53979  0.17151  0.46173  1.0000
  H   H591      1.0  0.52275  0.13646  0.45499  1.0000
  S   S150      1.0  0.53451  0.18525  0.35368  1.0000
  S   S151      1.0  0.55235  0.19932  0.44192  1.0000
  C   C375      1.0  0.53185  0.12023  0.19820  1.0000
  H   H592      1.0  0.54599  0.25412  0.31299  1.0000
  H   H593      1.0  0.61282  0.25934  0.39036  1.0000
  C   C376      1.0  0.54830  0.10014  0.04514  1.0000
  H   H594      1.0  0.53581  0.11665  0.16942  1.0000
  C   C377      1.0  0.64128  0.09273  0.13715  1.0000
  H   H595      1.0  0.53278  0.22509  0.34512  1.0000
  C   C378      1.0  0.60460  0.16340  0.29830  1.0000
  C   C379      1.0  0.61564  0.18080  0.30615  1.0000
  C   C380      1.0  0.60955  0.19234  0.32584  1.0000
  C   C381      1.0  0.59246  0.18645  0.33786  1.0000
  C   C382      1.0  0.58145  0.16904  0.32993  1.0000
  C   C383      1.0  0.58757  0.15752  0.31037  1.0000
  H   H596      1.0  0.62882  0.18543  0.29671  1.0000
  H   H597      1.0  0.61811  0.20580  0.33185  1.0000
  H   H598      1.0  0.56825  0.16444  0.33890  1.0000
  H   H599      1.0  0.57927  0.14393  0.30531  1.0000
  C   C384      1.0  0.65852  0.12428  0.09935  1.0000
  C   C385      1.0  0.64822  0.10923  0.07735  1.0000
  C   C386      1.0  0.57283  0.09475  0.07056  1.0000
  C   C387      1.0  0.54074  0.13213  0.26350  1.0000
  H   H600      1.0  0.55694  0.05631  0.03567  1.0000
  Fe  Fe76      1.0  0.52022  0.08638  0.11289  1.0000
  H   H601      1.0  0.57639  0.27073  0.35480  1.0000
  C   C388      1.0  0.52605  0.23595  0.39708  1.0000
  S   S152      1.0  0.65045  0.13523  0.27452  1.0000
  H   H602      1.0  0.65231  0.10722  0.19077  1.0000
  C   C389      1.0  0.65114  0.10790  0.15925  1.0000
  C   C390      1.0  0.65489  0.14931  0.42281  1.0000
  Fe  Fe77      1.0  0.66974  0.15215  0.31964  1.0000
  H   H603      1.0  0.52158  0.10819  0.20930  1.0000
  C   C391      1.0  0.54077  0.25338  0.34199  1.0000
  C   C392      1.0  0.55343  0.11324  0.23355  1.0000
  H   H604      1.0  0.56455  0.13931  0.18121  1.0000
  H   H605      1.0  0.58997  0.12350  0.19502  1.0000
  C   C393      1.0  0.64804  0.15127  0.45915  1.0000
  C   C394      1.0  0.60606  0.25202  0.36351  1.0000
  H   H606      1.0  0.63562  0.13094  0.18518  1.0000
  N   N39       1.0  0.54654  0.12707  0.22624  1.0000
  H   H607      1.0  0.52799  0.12320  0.48985  1.0000
  C   C395      1.0  0.56010  0.14263  0.20969  1.0000
  H   H608      1.0  0.63552  0.15210  0.45993  1.0000
  N   N40       1.0  0.61161  0.12842  0.15797  1.0000
  C   C396      1.0  0.57848  0.24342  0.39425  1.0000
  H   H609      1.0  0.56480  0.11806  0.25388  1.0000
  H   H610      1.0  0.64761  0.14859  0.39601  1.0000
  H   H611      1.0  0.52595  0.13008  0.19273  1.0000
  H   H612      1.0  0.51045  0.33877  0.16328  1.0000
  S   S153      1.0  0.65726  0.17249  0.22812  1.0000
  N   N41       1.0  0.58851  0.25198  0.35979  1.0000
  H   H613      1.0  0.58509  0.12283  0.14322  1.0000
  H   H614      1.0  0.60925  0.15202  0.13688  1.0000
  H   H615      1.0  0.56523  0.24332  0.39277  1.0000
  H   H616      1.0  0.59682  0.27718  0.33198  1.0000
  Fe  Fe78      1.0  0.64038  0.15697  0.27553  1.0000
  H   H617      1.0  0.53106  0.12055  0.27763  1.0000
  H   H618      1.0  0.55536  0.15339  0.20441  1.0000
  S   S154      1.0  0.65814  0.17256  0.32383  1.0000
  H   H619      1.0  0.55734  0.10868  0.20577  1.0000
  H   H620      1.0  0.54360  0.10146  0.24685  1.0000
  H   H621      1.0  0.53482  0.14202  0.25890  1.0000
  H   H622      1.0  0.55149  0.13798  0.28499  1.0000
  S   S155      1.0  0.54856  0.09428  0.12366  1.0000
  C   C397      1.0  0.63974  0.09330  0.09616  1.0000
  C   C398      1.0  0.65713  0.15190  0.49436  1.0000
  C   C399      1.0  0.61533  0.12297  0.11880  1.0000
  H   H623      1.0  0.59556  0.27809  0.38452  1.0000
  H   H624      1.0  0.53808  0.04358  0.06204  1.0000
  C   C400      1.0  0.59310  0.11956  0.16568  1.0000
  C   C401      1.0  0.55740  0.09699  0.07688  1.0000
  H   H625      1.0  0.61922  0.10917  0.18646  1.0000
  H   H626      1.0  0.63490  0.08042  0.15191  1.0000
  H   H627      1.0  0.61264  0.10860  0.11720  1.0000
  C   C402      1.0  0.52623  0.25138  0.41564  1.0000
  H   H628      1.0  0.60747  0.12584  0.09535  1.0000
  H   H629      1.0  0.62905  0.13002  0.11156  1.0000
  H   H630      1.0  0.63045  0.15476  0.15392  1.0000
  C   C403      1.0  0.61647  0.14772  0.15933  1.0000
  H   H631      1.0  0.61398  0.15232  0.18860  1.0000
  C   C404      1.0  0.62160  0.12345  0.18821  1.0000
  C   C405      1.0  0.54151  0.26887  0.36116  1.0000
  S   S156      1.0  0.51361  0.32409  0.47168  1.0000
  H   H632      1.0  0.58456  0.25030  0.42207  1.0000
  H   H633      1.0  0.51076  0.31424  0.07119  1.0000
  C   C406      1.0  0.54266  0.05103  0.03468  1.0000
  H   H634      1.0  0.57957  0.22839  0.32389  1.0000
  S   S157      1.0  0.54524  0.16225  0.52122  1.0000
  H   H635      1.0  0.66945  0.09307  0.04252  1.0000
  H   H636      1.0  0.52620  0.31850  0.11084  1.0000
  C   C407      1.0  0.53409  0.26783  0.39794  1.0000
  H   H637      1.0  0.52015  0.11451  0.44132  1.0000
  H   H638      1.0  0.61394  0.25822  0.33781  1.0000
  H   H639      1.0  0.60578  0.23837  0.36536  1.0000
  H   H640      1.0  0.58708  0.24846  0.29702  1.0000
  C   C408      1.0  0.52287  0.33380  0.51720  1.0000
  N   N42       1.0  0.51623  0.33877  0.10215  1.0000
  H   H641      1.0  0.64709  0.10988  0.04585  1.0000
  Fe  Fe79      1.0  0.53310  0.32929  0.42402  1.0000
  S   S158      1.0  0.55508  0.32044  0.43142  1.0000
  Fe  Fe80      1.0  0.55089  0.31371  0.36708  1.0000
  S   S159      1.0  0.55265  0.28932  0.33919  1.0000
  H   H642      1.0  0.56667  0.24129  0.32058  1.0000
  S   S160      1.0  0.52736  0.32031  0.36076  1.0000
  S   S161      1.0  0.56908  0.34039  0.34793  1.0000
  H   H643      1.0  0.52044  0.25063  0.44404  1.0000
  C   C409      1.0  0.58011  0.24214  0.32370  1.0000
  H   H644      1.0  0.53443  0.27967  0.41282  1.0000
  H   H645      1.0  0.66530  0.13649  0.08457  1.0000
  C   C410      1.0  0.51872  0.12286  0.46593  1.0000
  S   S162      1.0  0.51414  0.16746  0.43444  1.0000
  C   C411      1.0  0.65984  0.12376  0.14046  1.0000
  Fe  Fe81      1.0  0.66834  0.15147  0.22888  1.0000
  S   S163      1.0  0.67269  0.14312  0.16697  1.0000
  S   S164      1.0  0.51050  0.10715  0.09595  1.0000
  S   S165      1.0  0.50888  0.13108  0.35250  1.0000
  H   H646      1.0  0.64699  0.11411  0.53094  1.0000
  H   H647      1.0  0.53647  0.10204  0.04971  1.0000
  H   H648      1.0  0.51123  0.33986  0.28352  1.0000
  C   C412      1.0  0.67075  0.14752  0.42135  1.0000
  C   C413      1.0  0.67327  0.15071  0.49292  1.0000
  C   C414      1.0  0.51416  0.32007  0.10126  1.0000
  H   H649      1.0  0.53872  0.06252  0.03547  1.0000
  H   H650      1.0  0.67367  0.20166  0.39654  1.0000
  H   H651      1.0  0.56699  0.14529  0.94528  1.0000
  S   S166      1.0  0.64337  0.19916  0.68917  1.0000
  Fe  Fe82      1.0  0.62435  0.07715  0.91918  1.0000
  S   S167      1.0  0.64736  0.09157  0.88106  1.0000
  H   H652      1.0  0.67114  0.12038  0.83837  1.0000
  S   S168      1.0  0.59630  0.06513  0.90265  1.0000
  Fe  Fe83      1.0  0.54832  0.20407  0.78113  1.0000
  H   H653      1.0  0.50741  0.32171  0.85753  1.0000
  S   S169      1.0  0.56164  0.23378  0.77662  1.0000
  Fe  Fe84      1.0  0.55572  0.17026  0.77602  1.0000
  S   S170      1.0  0.52791  0.15260  0.77893  1.0000
  S   S171      1.0  0.57443  0.15672  0.77516  1.0000
  Fe  Fe85      1.0  0.52391  0.17184  0.73704  1.0000
  S   S172      1.0  0.51824  0.16452  0.89035  1.0000
  Fe  Fe86      1.0  0.52710  0.17110  0.82735  1.0000
  H   H654      1.0  0.58527  0.15222  0.91383  1.0000
  S   S173      1.0  0.55185  0.18795  0.73069  1.0000
  S   S174      1.0  0.55527  0.18791  0.82600  1.0000
  H   H655      1.0  0.53854  0.06213  0.96320  1.0000
  H   H656      1.0  0.59762  0.18307  0.53956  1.0000
  H   H657      1.0  0.65698  0.10237  0.96351  1.0000
  C   C415      1.0  0.60093  0.16383  0.62542  1.0000
  H   H658      1.0  0.51447  0.20704  0.62350  1.0000
  C   C416      1.0  0.51883  0.16596  0.63618  1.0000
  S   S175      1.0  0.64505  0.11841  0.70682  1.0000
  H   H659      1.0  0.57485  0.11776  0.86638  1.0000
  C   C417      1.0  0.52496  0.25503  0.77289  1.0000
  H   H660      1.0  0.56834  0.16002  0.86244  1.0000
  H   H661      1.0  0.55008  0.15331  0.89398  1.0000
  H   H662      1.0  0.53934  0.12314  0.92167  1.0000
  C   C418      1.0  0.51044  0.12913  0.97766  1.0000
  H   H663      1.0  0.56268  0.12369  0.82917  1.0000
  H   H664      1.0  0.54823  0.14403  0.84544  1.0000
  H   H665      1.0  0.61999  0.09196  0.75221  1.0000
  H   H666      1.0  0.57430  0.27087  0.76355  1.0000
  C   C419      1.0  0.64572  0.10015  0.83412  1.0000
  S   S176      1.0  0.64718  0.15295  0.53923  1.0000
  C   C420      1.0  0.54211  0.05038  0.96387  1.0000
  C   C421      1.0  0.59404  0.16906  0.75357  1.0000
  C   C422      1.0  0.60613  0.16139  0.74754  1.0000
  C   C423      1.0  0.62163  0.17085  0.72910  1.0000
  C   C424      1.0  0.62506  0.18798  0.71658  1.0000
  C   C425      1.0  0.61314  0.19580  0.72346  1.0000
  C   C426      1.0  0.59762  0.18634  0.74185  1.0000
  H   H667      1.0  0.60348  0.14808  0.75686  1.0000
  H   H668      1.0  0.63088  0.16481  0.72445  1.0000
  H   H669      1.0  0.61583  0.20913  0.71423  1.0000
  H   H670      1.0  0.58848  0.19244  0.74709  1.0000
  H   H671      1.0  0.54676  0.10211  0.98249  1.0000
  C   C427      1.0  0.53314  0.24306  0.77813  1.0000
  C   C428      1.0  0.55094  0.24865  0.77435  1.0000
  H   H672      1.0  0.53496  0.25001  0.67839  1.0000
  H   H673      1.0  0.60100  0.15131  0.61274  1.0000
  H   H674      1.0  0.55243  0.15704  0.60131  1.0000
  H   H675      1.0  0.57744  0.13045  0.93346  1.0000
  N   N43       1.0  0.56188  0.13431  0.88679  1.0000
  C   C429      1.0  0.54633  0.11929  0.89810  1.0000
  C   C430      1.0  0.55691  0.14854  0.87164  1.0000
  C   C431      1.0  0.57091  0.12853  0.85600  1.0000
  C   C432      1.0  0.57341  0.14088  0.92141  1.0000
  H   H676      1.0  0.54965  0.10822  0.90913  1.0000
  C   C433      1.0  0.63121  0.09242  0.80973  1.0000
  H   H677      1.0  0.52566  0.22949  0.78495  1.0000
  C   C434      1.0  0.65981  0.11434  0.81992  1.0000
  S   S177      1.0  0.56060  0.33023  0.70841  1.0000
  H   H678      1.0  0.50860  0.12928  0.53651  1.0000
  C   C435      1.0  0.63106  0.09842  0.77118  1.0000
  H   H679      1.0  0.59404  0.16043  0.54791  1.0000
  Fe  Fe87      1.0  0.65720  0.18167  0.67139  1.0000
  H   H680      1.0  0.59266  0.19217  0.62589  1.0000
  C   C436      1.0  0.51331  0.14437  0.91518  1.0000
  N   N44       1.0  0.53412  0.22421  0.66242  1.0000
  C   C437      1.0  0.52180  0.22136  0.62929  1.0000
  S   S178      1.0  0.64157  0.15494  0.64755  1.0000
  C   C438      1.0  0.65426  0.09847  0.61864  1.0000
  C   C439      1.0  0.55420  0.10030  0.00696  1.0000
  H   H681      1.0  0.53839  0.15884  0.66367  1.0000
  H   H682      1.0  0.58271  0.13958  0.84671  1.0000
  H   H683      1.0  0.55348  0.24574  0.69331  1.0000
  H   H684      1.0  0.62034  0.08139  0.82006  1.0000
  C   C440      1.0  0.54122  0.02479  0.99939  1.0000
  H   H685      1.0  0.52172  0.15735  0.97130  1.0000
  S   S179      1.0  0.55075  0.33393  0.80133  1.0000
  S   S180      1.0  0.62287  0.05468  0.95906  1.0000
  S   S181      1.0  0.50821  0.16666  0.68022  1.0000
  C   C441      1.0  0.54365  0.24328  0.66938  1.0000
  N   N45       1.0  0.53568  0.03988  0.99930  1.0000
  S   S182      1.0  0.57228  0.01701  0.93526  1.0000
  H   H686      1.0  0.58786  0.16126  0.63671  1.0000
  C   C442      1.0  0.53348  0.16182  0.63632  1.0000
  S   S183      1.0  0.62105  0.09421  0.96812  1.0000
  H   H687      1.0  0.55336  0.22092  0.62578  1.0000
  C   C443      1.0  0.54146  0.16086  0.60088  1.0000
  C   C444      1.0  0.64517  0.11257  0.75690  1.0000
  S   S184      1.0  0.57504  0.09486  0.95239  1.0000
  H   H688      1.0  0.53722  0.11419  0.87277  1.0000
  C   C445      1.0  0.51581  0.14478  0.95612  1.0000
  C   C446      1.0  0.57875  0.09491  0.03228  1.0000
  C   C447      1.0  0.51671  0.03334  0.99928  1.0000
  Fe  Fe88      1.0  0.59308  0.08057  0.95428  1.0000
  S   S185      1.0  0.52331  0.33206  0.72928  1.0000
  H   H689      1.0  0.52845  0.22707  0.60179  1.0000
  H   H690      1.0  0.60992  0.16734  0.65115  1.0000
  Fe  Fe89      1.0  0.59419  0.04390  0.94642  1.0000
  C   C448      1.0  0.60561  0.19428  0.61451  1.0000
  H   H691      1.0  0.58065  0.17027  0.57081  1.0000
  H   H692      1.0  0.63309  0.18545  0.60846  1.0000
  H   H693      1.0  0.62804  0.19184  0.56133  1.0000
  H   H694      1.0  0.52278  0.32443  0.61478  1.0000
  H   H695      1.0  0.60439  0.33733  0.55122  1.0000
  S   S186      1.0  0.52002  0.18879  0.78583  1.0000
  H   H696      1.0  0.53362  0.21712  0.72282  1.0000
  C   C449      1.0  0.51847  0.32421  0.55193  1.0000
  H   H697      1.0  0.60911  0.20519  0.59327  1.0000
  H   H698      1.0  0.51241  0.12973  0.00909  1.0000
  N   N46       1.0  0.60606  0.17802  0.59635  1.0000
  C   C450      1.0  0.52594  0.33198  0.58824  1.0000
  H   H699      1.0  0.62544  0.11388  0.57923  1.0000
  H   H700      1.0  0.55049  0.24981  0.64275  1.0000
  C   C451      1.0  0.52081  0.16917  0.56497  1.0000
  C   C452      1.0  0.56919  0.09725  0.00043  1.0000
  C   C453      1.0  0.65467  0.11156  0.55528  1.0000
  H   H701      1.0  0.55614  0.21813  0.67728  1.0000
  H   H702      1.0  0.62348  0.08581  0.54656  1.0000
  S   S187      1.0  0.58932  0.05904  0.99697  1.0000
  H   H703      1.0  0.67274  0.11745  0.99622  1.0000
  H   H704      1.0  0.55988  0.29204  0.75514  1.0000
  S   S188      1.0  0.67387  0.17237  0.70981  1.0000
  Fe  Fe90      1.0  0.66045  0.16083  0.59890  1.0000
  H   H705      1.0  0.62321  0.07607  0.59362  1.0000
  C   C454      1.0  0.65946  0.12070  0.78176  1.0000
  H   H706      1.0  0.62459  0.16923  0.56999  1.0000
  C   C455      1.0  0.59407  0.17271  0.56220  1.0000
  Fe  Fe91      1.0  0.65940  0.14567  0.68195  1.0000
  H   H707      1.0  0.63902  0.07637  0.55839  1.0000
  N   N47       1.0  0.64355  0.10129  0.58672  1.0000
  C   C456      1.0  0.55236  0.27842  0.76146  1.0000
  H   H708      1.0  0.53970  0.20126  0.64943  1.0000
  H   H709      1.0  0.58517  0.33114  0.60895  1.0000
  H   H710      1.0  0.51654  0.20220  0.69323  1.0000
  C   C457      1.0  0.63341  0.11107  0.60248  1.0000
  H   H711      1.0  0.61489  0.19887  0.63970  1.0000
  H   H712      1.0  0.64198  0.12389  0.61534  1.0000
  C   C458      1.0  0.56051  0.26641  0.76634  1.0000
  C   C459      1.0  0.62369  0.18127  0.58340  1.0000
  H   H713      1.0  0.51458  0.32024  0.80915  1.0000
  C   C460      1.0  0.52466  0.21634  0.69800  1.0000
  S   S189      1.0  0.52373  0.28725  0.75705  1.0000
  H   H714      1.0  0.62487  0.10381  0.62640  1.0000
  H   H715      1.0  0.51607  0.22307  0.70743  1.0000
  C   C461      1.0  0.53521  0.16454  0.56508  1.0000
  C   C462      1.0  0.53453  0.27274  0.76447  1.0000
  C   C463      1.0  0.54638  0.21577  0.65322  1.0000
  Fe  Fe92      1.0  0.61783  0.07140  0.00670  1.0000
  C   C464      1.0  0.63178  0.08410  0.57059  1.0000
  Fe  Fe93      1.0  0.53888  0.31643  0.74895  1.0000
  C   C465      1.0  0.51251  0.16961  0.60036  1.0000
  H   H716      1.0  0.51590  0.17212  0.53762  1.0000
  H   H717      1.0  0.51233  0.22749  0.63546  1.0000
  H   H718      1.0  0.64625  0.09106  0.64321  1.0000
  H   H719      1.0  0.55547  0.02923  0.00022  1.0000
  H   H720      1.0  0.66003  0.07481  0.94104  1.0000
  H   H721      1.0  0.51118  0.25056  0.77552  1.0000
  H   H722      1.0  0.56066  0.33794  0.55215  1.0000
  C   C466      1.0  0.66733  0.08423  0.01633  1.0000
  H   H723      1.0  0.51097  0.02451  0.97353  1.0000
  H   H724      1.0  0.51212  0.04440  0.99823  1.0000
  H   H725      1.0  0.55635  0.05531  0.96256  1.0000
  H   H726      1.0  0.53698  0.04245  0.93657  1.0000
  H   H727      1.0  0.66258  0.10467  0.54259  1.0000
  H   H728      1.0  0.50948  0.31067  0.55068  1.0000
  H   H729      1.0  0.65326  0.07854  0.01007  1.0000
  H   H730      1.0  0.53669  0.01638  0.97246  1.0000
  H   H731      1.0  0.66361  0.12467  0.56635  1.0000
  H   H732      1.0  0.67047  0.13147  0.77111  1.0000
  H   H733      1.0  0.66210  0.09108  0.60811  1.0000
  H   H734      1.0  0.66323  0.11118  0.63168  1.0000
  H   H735      1.0  0.50968  0.30177  0.84044  1.0000
  C   C467      1.0  0.67086  0.10786  0.97156  1.0000
  H   H736      1.0  0.59052  0.09285  0.02738  1.0000
  H   H737      1.0  0.67118  0.07316  0.02466  1.0000
  H   H738      1.0  0.53631  0.01632  0.02522  1.0000
  H   H739      1.0  0.57308  0.32512  0.54033  1.0000
  H   H740      1.0  0.51141  0.02581  0.02623  1.0000
  C   C468      1.0  0.57326  0.33873  0.54096  1.0000
  H   H741      1.0  0.63919  0.40973  0.49923  1.0000
  H   H742      1.0  0.51589  0.34975  0.35682  1.0000
  C   C469      1.0  0.66124  0.48790  0.21433  1.0000
  H   H743      1.0  0.65015  0.46492  0.52105  1.0000
  C   C470      1.0  0.53056  0.37976  0.24167  1.0000
  H   H744      1.0  0.53238  0.64843  0.24198  1.0000
  S   S190      1.0  0.66037  0.39682  0.34288  1.0000
  S   S191      1.0  0.65147  0.43898  0.34631  1.0000
  C   C471      1.0  0.52074  0.64844  0.22616  1.0000
  Fe  Fe94      1.0  0.57114  0.34756  0.41189  1.0000
  H   H745      1.0  0.52598  0.37594  0.40189  1.0000
  S   S192      1.0  0.59434  0.36539  0.44610  1.0000
  S   S193      1.0  0.54946  0.35691  0.40919  1.0000
  H   H746      1.0  0.51057  0.38154  0.42896  1.0000
  C   C472      1.0  0.61020  0.54659  0.14919  1.0000
  C   C473      1.0  0.64040  0.46588  0.17252  1.0000
  S   S194      1.0  0.64661  0.45411  0.24366  1.0000
  H   H747      1.0  0.58608  0.52654  0.09690  1.0000
  H   H748      1.0  0.63507  0.47469  0.11617  1.0000
  Fe  Fe95      1.0  0.54580  0.34759  0.34634  1.0000
  C   C474      1.0  0.55109  0.44475  0.07592  1.0000
  C   C475      1.0  0.62009  0.53950  0.08777  1.0000
  H   H749      1.0  0.54904  0.41932  0.09613  1.0000
  H   H750      1.0  0.51372  0.67101  0.27378  1.0000
  C   C476      1.0  0.65378  0.49587  0.14964  1.0000
  H   H751      1.0  0.50926  0.58748  0.11324  1.0000
  H   H752      1.0  0.63148  0.45248  0.16742  1.0000
  C   C477      1.0  0.51310  0.35081  0.26437  1.0000
  S   S195      1.0  0.51724  0.39153  0.09661  1.0000
  C   C478      1.0  0.64210  0.38806  0.37183  1.0000
  C   C479      1.0  0.63116  0.37038  0.36687  1.0000
  C   C480      1.0  0.61627  0.36336  0.38920  1.0000
  C   C481      1.0  0.61252  0.37397  0.41702  1.0000
  C   C482      1.0  0.62347  0.39162  0.42204  1.0000
  C   C483      1.0  0.63816  0.39870  0.39925  1.0000
  H   H753      1.0  0.63415  0.36213  0.34557  1.0000
  H   H754      1.0  0.62063  0.52892  0.06797  1.0000
  H   H755      1.0  0.62037  0.39992  0.44298  1.0000
  H   H756      1.0  0.64651  0.41236  0.40319  1.0000
  C   C484      1.0  0.53008  0.34886  0.07554  1.0000
  H   H757      1.0  0.52228  0.36008  0.14409  1.0000
  C   C485      1.0  0.66320  0.50054  0.18521  1.0000
  Fe  Fe96      1.0  0.51283  0.41659  0.09097  1.0000
  C   C486      1.0  0.64242  0.47846  0.14339  1.0000
  N   N48       1.0  0.60409  0.40258  0.29946  1.0000
  C   C487      1.0  0.59496  0.38455  0.31370  1.0000
  C   C488      1.0  0.62100  0.40422  0.28428  1.0000
  C   C489      1.0  0.60659  0.41534  0.33217  1.0000
  C   C490      1.0  0.59382  0.40625  0.26778  1.0000
  H   H758      1.0  0.58216  0.38286  0.32548  1.0000
  H   H759      1.0  0.60237  0.38138  0.33762  1.0000
  H   H760      1.0  0.59278  0.37452  0.28986  1.0000
  H   H761      1.0  0.62824  0.41769  0.27318  1.0000
  H   H762      1.0  0.62917  0.40167  0.30747  1.0000
  H   H763      1.0  0.61968  0.39472  0.25976  1.0000
  H   H764      1.0  0.61426  0.41290  0.35666  1.0000
  H   H765      1.0  0.59410  0.41449  0.34431  1.0000
  H   H766      1.0  0.61354  0.42912  0.32250  1.0000
  H   H767      1.0  0.60034  0.41983  0.25654  1.0000
  H   H768      1.0  0.58090  0.40495  0.27816  1.0000
  H   H769      1.0  0.59177  0.39691  0.24254  1.0000
  C   C491      1.0  0.53440  0.35131  0.51907  1.0000
  S   S196      1.0  0.65996  0.46363  0.44173  1.0000
  H   H770      1.0  0.62067  0.51140  0.12723  1.0000
  S   S197      1.0  0.50852  0.61214  0.05249  1.0000
  S   S198      1.0  0.53219  0.44404  0.09801  1.0000
  H   H771      1.0  0.60338  0.55405  0.13392  1.0000
  C   C492      1.0  0.52827  0.36579  0.26728  1.0000
  H   H772      1.0  0.60785  0.34969  0.38528  1.0000
  S   S199      1.0  0.54463  0.36792  0.30261  1.0000
  C   C493      1.0  0.66394  0.46865  0.52109  1.0000
  C   C494      1.0  0.64981  0.47050  0.20803  1.0000
  H   H773      1.0  0.60332  0.54151  0.17681  1.0000
  H   H774      1.0  0.54222  0.39144  0.24375  1.0000
  H   H775      1.0  0.51997  0.38956  0.19345  1.0000
  H   H776      1.0  0.61352  0.54676  0.07089  1.0000
  H   H777      1.0  0.50955  0.64169  0.24503  1.0000
  C   C495      1.0  0.62008  0.52256  0.14518  1.0000
  H   H778      1.0  0.59325  0.50870  0.09496  1.0000
  H   H779      1.0  0.61369  0.51698  0.17297  1.0000
  H   H780      1.0  0.65009  0.43236  0.51335  1.0000
  H   H781      1.0  0.65332  0.38868  0.50706  1.0000
  N   N49       1.0  0.66509  0.41640  0.52038  1.0000
  S   S200      1.0  0.65620  0.51208  0.11396  1.0000
  N   N50       1.0  0.61090  0.53211  0.12401  1.0000
  H   H782      1.0  0.58831  0.37332  0.53316  1.0000
  Fe  Fe97      1.0  0.67052  0.42632  0.34117  1.0000
  H   H783      1.0  0.66465  0.41182  0.45806  1.0000
  H   H784      1.0  0.58579  0.51413  0.14035  1.0000
  C   C496      1.0  0.66224  0.39791  0.52905  1.0000
  N   N51       1.0  0.52215  0.66649  0.21692  1.0000
  Fe  Fe98      1.0  0.67131  0.45878  0.38516  1.0000
  C   C497      1.0  0.59323  0.51986  0.11381  1.0000
  H   H785      1.0  0.63357  0.54860  0.09409  1.0000
  Fe  Fe99      1.0  0.64201  0.50366  0.05537  1.0000
  H   H786      1.0  0.62334  0.55608  0.15732  1.0000
  H   H787      1.0  0.63363  0.53125  0.15236  1.0000
  H   H788      1.0  0.60602  0.35527  0.51980  1.0000
  H   H789      1.0  0.51198  0.37682  0.33877  1.0000
  H   H790      1.0  0.53772  0.35890  0.49266  1.0000
  H   H791      1.0  0.51900  0.64015  0.19913  1.0000
  Fe  Fe100     1.0  0.66434  0.45527  0.29530  1.0000
  H   H792      1.0  0.51772  0.46820  0.06080  1.0000
  H   H793      1.0  0.53193  0.36303  0.07553  1.0000
  H   H794      1.0  0.66828  0.49168  0.24189  1.0000
  C   C498      1.0  0.64849  0.41868  0.52089  1.0000
  C   C499      1.0  0.51317  0.37036  0.41574  1.0000
  C   C500      1.0  0.51794  0.37875  0.21316  1.0000
  H   H795      1.0  0.51416  0.36183  0.44014  1.0000
  H   H796      1.0  0.67191  0.51402  0.19037  1.0000
  C   C501      1.0  0.67233  0.46942  0.48549  1.0000
  H   H797      1.0  0.55680  0.47042  0.05165  1.0000
  S   S201      1.0  0.61346  0.49163  0.05411  1.0000
  C   C502      1.0  0.56071  0.45933  0.05399  1.0000
  C   C503      1.0  0.53692  0.67473  0.19113  1.0000
  H   H798      1.0  0.53536  0.66706  0.16316  1.0000
  C   C504      1.0  0.55611  0.43037  0.07833  1.0000
  C   C505      1.0  0.57069  0.43050  0.05876  1.0000
  H   H799      1.0  0.57465  0.41945  0.06110  1.0000
  C   C506      1.0  0.67278  0.42089  0.48129  1.0000
  S   S202      1.0  0.52882  0.57449  0.03863  1.0000
  C   C507      1.0  0.58031  0.44507  0.03681  1.0000
  C   C508      1.0  0.52070  0.34599  0.14248  1.0000
  H   H800      1.0  0.57407  0.34324  0.51012  1.0000
  H   H801      1.0  0.54258  0.34811  0.08423  1.0000
  H   H802      1.0  0.52707  0.34392  0.04468  1.0000
  H   H803      1.0  0.53290  0.34518  0.15335  1.0000
  C   C509      1.0  0.52831  0.35995  0.93335  1.0000
  S   S203      1.0  0.66403  0.45162  0.66274  1.0000
  S   S204      1.0  0.64741  0.40295  0.63882  1.0000
  H   H804      1.0  0.59899  0.37835  0.58041  1.0000
  H   H805      1.0  0.59612  0.35347  0.62597  1.0000
  S   S205      1.0  0.55784  0.36719  0.74232  1.0000
  S   S206      1.0  0.59942  0.36014  0.77376  1.0000
  Fe  Fe101     1.0  0.61595  0.47344  0.00775  1.0000
  S   S207      1.0  0.61461  0.49030  0.95778  1.0000
  H   H806      1.0  0.63267  0.48655  0.87519  1.0000
  N   N52       1.0  0.55265  0.42019  0.93712  1.0000
  C   C510      1.0  0.62635  0.41603  0.77818  1.0000
  H   H807      1.0  0.61731  0.40363  0.76412  1.0000
  C   C511      1.0  0.54439  0.41218  0.89936  1.0000
  S   S208      1.0  0.64466  0.48378  0.01292  1.0000
  C   C512      1.0  0.65575  0.47471  0.80647  1.0000
  H   H808      1.0  0.54523  0.42623  0.99387  1.0000
  C   C513      1.0  0.60405  0.35074  0.55067  1.0000
  H   H809      1.0  0.57099  0.44502  0.95847  1.0000
  C   C514      1.0  0.63391  0.39011  0.67503  1.0000
  C   C515      1.0  0.64096  0.38544  0.70831  1.0000
  C   C516      1.0  0.63021  0.37542  0.73748  1.0000
  C   C517      1.0  0.61237  0.37047  0.73417  1.0000
  C   C518      1.0  0.60526  0.37494  0.70061  1.0000
  C   C519      1.0  0.61604  0.38468  0.67098  1.0000
  H   H810      1.0  0.65474  0.38935  0.71133  1.0000
  H   H811      1.0  0.63577  0.37156  0.76274  1.0000
  C   C520      1.0  0.54130  0.35925  0.55536  1.0000
  H   H812      1.0  0.61055  0.38855  0.64567  1.0000
  H   H813      1.0  0.56859  0.41553  0.98181  1.0000
  C   C521      1.0  0.56465  0.43847  0.93063  1.0000
  H   H814      1.0  0.60372  0.57870  0.96700  1.0000
  H   H815      1.0  0.54989  0.37294  0.55652  1.0000
  C   C522      1.0  0.65811  0.49805  0.69323  1.0000
  H   H816      1.0  0.55232  0.54974  0.00452  1.0000
  H   H817      1.0  0.65336  0.43598  0.82243  1.0000
  C   C523      1.0  0.64368  0.48563  0.86082  1.0000
  S   S209      1.0  0.65215  0.46227  0.76226  1.0000
  C   C524      1.0  0.67220  0.48342  0.82273  1.0000
  S   S210      1.0  0.64273  0.52333  0.00913  1.0000
  H   H818      1.0  0.55342  0.39600  0.95886  1.0000
  H   H819      1.0  0.60403  0.39423  0.82762  1.0000
  Fe  Fe102     1.0  0.51357  0.57959  0.93153  1.0000
  Fe  Fe103     1.0  0.54420  0.58115  0.98343  1.0000
  H   H820      1.0  0.56009  0.52407  0.01795  1.0000
  H   H821      1.0  0.53562  0.39828  0.90299  1.0000
  H   H822      1.0  0.53684  0.35650  0.95254  1.0000
  C   C525      1.0  0.51660  0.36656  0.94953  1.0000
  N   N53       1.0  0.58764  0.35074  0.56556  1.0000
  H   H823      1.0  0.53668  0.41931  0.88667  1.0000
  C   C526      1.0  0.58634  0.53662  0.99992  1.0000
  C   C527      1.0  0.56216  0.40983  0.95337  1.0000
  H   H824      1.0  0.59151  0.37129  0.69790  1.0000
  H   H825      1.0  0.53187  0.42788  0.95393  1.0000
  C   C528      1.0  0.64154  0.47591  0.82556  1.0000
  C   C529      1.0  0.53939  0.42024  0.96506  1.0000
  H   H826      1.0  0.62083  0.42628  0.77431  1.0000
  C   C530      1.0  0.64090  0.43054  0.83785  1.0000
  Fe  Fe104     1.0  0.64338  0.50237  0.96609  1.0000
  H   H827      1.0  0.55792  0.44662  0.91811  1.0000
  H   H828      1.0  0.64951  0.40433  0.80605  1.0000
  H   H829      1.0  0.53844  0.35307  0.88039  1.0000
  C   C531      1.0  0.63767  0.40059  0.82374  1.0000
  Fe  Fe105     1.0  0.53633  0.35031  0.77994  1.0000
  H   H830      1.0  0.58218  0.47045  0.01602  1.0000
  H   H831      1.0  0.62878  0.46929  0.81308  1.0000
  S   S211      1.0  0.57203  0.58449  0.97494  1.0000
  H   H832      1.0  0.64378  0.42924  0.86933  1.0000
  Fe  Fe106     1.0  0.51618  0.59260  0.01713  1.0000
  N   N54       1.0  0.62947  0.41357  0.82007  1.0000
  C   C532      1.0  0.57744  0.56601  0.98475  1.0000
  H   H833      1.0  0.57508  0.43893  0.91045  1.0000
  H   H834      1.0  0.61516  0.35965  0.56867  1.0000
  H   H835      1.0  0.60636  0.41655  0.83823  1.0000
  Fe  Fe107     1.0  0.67175  0.45592  0.72654  1.0000
  H   H836      1.0  0.55404  0.41216  0.87738  1.0000
  H   H837      1.0  0.63497  0.44053  0.83619  1.0000
  S   S212      1.0  0.54785  0.35997  0.63394  1.0000
  C   C533      1.0  0.58777  0.36878  0.56395  1.0000
  H   H838      1.0  0.61475  0.40504  0.87218  1.0000
  H   H839      1.0  0.61151  0.55281  0.98019  1.0000
  Fe  Fe108     1.0  0.57111  0.34920  0.75903  1.0000
  H   H840      1.0  0.67109  0.42562  0.58009  1.0000
  S   S213      1.0  0.51643  0.36918  0.00115  1.0000
  H   H841      1.0  0.62881  0.38729  0.81358  1.0000
  C   C534      1.0  0.61291  0.40708  0.84052  1.0000
  H   H842      1.0  0.53017  0.40662  0.97075  1.0000
  H   H843      1.0  0.57233  0.40950  0.93327  1.0000
  Fe  Fe109     1.0  0.50901  0.55441  0.00008  1.0000
  H   H844      1.0  0.64128  0.39933  0.85472  1.0000
  C   C535      1.0  0.51832  0.36242  0.86731  1.0000
  S   S214      1.0  0.59093  0.51777  0.01097  1.0000
  H   H845      1.0  0.66662  0.47171  0.58405  1.0000
  H   H846      1.0  0.63845  0.42034  0.76139  1.0000
  Fe  Fe110     1.0  0.54607  0.34742  0.69345  1.0000
  Fe  Fe111     1.0  0.66816  0.42639  0.66769  1.0000
  Fe  Fe112     1.0  0.61389  0.50962  0.00463  1.0000
  H   H847      1.0  0.54201  0.60022  0.88215  1.0000
  S   S215      1.0  0.53369  0.60158  0.96532  1.0000
  H   H848      1.0  0.58149  0.58656  0.83140  1.0000
  H   H849      1.0  0.53902  0.59000  0.81342  1.0000
  C   C536      1.0  0.59863  0.55211  0.98553  1.0000
  H   H850      1.0  0.53663  0.56903  0.86609  1.0000
  H   H851      1.0  0.56065  0.60184  0.91096  1.0000
  H   H852      1.0  0.55525  0.57076  0.89516  1.0000
  H   H853      1.0  0.58538  0.60922  0.84303  1.0000
  S   S216      1.0  0.52506  0.55977  0.94684  1.0000
  H   H854      1.0  0.56244  0.61711  0.87245  1.0000
  C   C537      1.0  0.55080  0.57273  0.86529  1.0000
  C   C538      1.0  0.55315  0.59318  0.81338  1.0000
  N   N55       1.0  0.55958  0.59111  0.85281  1.0000
  S   S217      1.0  0.51911  0.36047  0.81565  1.0000
  C   C539      1.0  0.59417  0.56676  0.97804  1.0000
  H   H855      1.0  0.55326  0.56328  0.84501  1.0000
  C   C540      1.0  0.55602  0.60311  0.88082  1.0000
  H   H856      1.0  0.55554  0.58429  0.79138  1.0000
  C   C541      1.0  0.57829  0.59541  0.85207  1.0000
  H   H857      1.0  0.55939  0.60693  0.80311  1.0000
  H   H858      1.0  0.58335  0.59391  0.88171  1.0000
  C   C542      1.0  0.52923  0.35797  0.89245  1.0000
  C   C543      1.0  0.56522  0.55052  0.99913  1.0000
  C   C544      1.0  0.66015  0.49473  0.87662  1.0000
  C   C545      1.0  0.56968  0.53597  0.00677  1.0000
  S   S218      1.0  0.59835  0.44514  0.01162  1.0000
  S   S219      1.0  0.66342  0.50846  0.91872  1.0000
  H   H859      1.0  0.50958  0.47582  0.01880  1.0000
  H   H860      1.0  0.64261  0.41594  0.55038  1.0000
  C   C546      1.0  0.53737  0.34958  0.58998  1.0000
  C   C547      1.0  0.50919  0.62734  0.83181  1.0000
  H   H861      1.0  0.65230  0.50006  0.66513  1.0000
  H   H862      1.0  0.57607  0.36951  0.57726  1.0000
  H   H863      1.0  0.65659  0.39425  0.55858  1.0000
  H   H864      1.0  0.51394  0.61607  0.88565  1.0000
  C   C548      1.0  0.50996  0.61358  0.85513  1.0000
  C   C549      1.0  0.58549  0.34475  0.60657  1.0000
  H   H865      1.0  0.65637  0.48391  0.69400  1.0000
  H   H866      1.0  0.51260  0.64038  0.84462  1.0000
  H   H867      1.0  0.57328  0.34478  0.61878  1.0000
  H   H868      1.0  0.65056  0.50032  0.71779  1.0000
  H   H869      1.0  0.67114  0.53181  0.71802  1.0000
  C   C550      1.0  0.67324  0.47249  0.55679  1.0000
  H   H870      1.0  0.67326  0.53084  0.66571  1.0000
  C   C551      1.0  0.57520  0.45940  0.03412  1.0000
  H   H871      1.0  0.52672  0.91010  0.12997  1.0000
  H   H872      1.0  0.52367  0.85405  0.06968  1.0000
  H   H873      1.0  0.50889  0.92177  0.08995  1.0000
  H   H874      1.0  0.51669  0.89248  0.16342  1.0000
  H   H875      1.0  0.53835  0.68835  0.18351  1.0000
  C   C552      1.0  0.51394  0.84804  0.09117  1.0000
  H   H876      1.0  0.51369  0.88861  0.11161  1.0000
  H   H877      1.0  0.51318  0.92870  0.16216  1.0000
  C   C553      1.0  0.51483  0.89840  0.13540  1.0000
  C   C554      1.0  0.51684  0.83764  0.12094  1.0000
  H   H878      1.0  0.52883  0.83565  0.12209  1.0000
  H   H879      1.0  0.52536  0.69057  0.24789  1.0000
  C   C555      1.0  0.52464  0.67699  0.25366  1.0000
  H   H880      1.0  0.50912  0.70367  0.51650  1.0000
  H   H881      1.0  0.53658  0.67798  0.26970  1.0000
  S   S220      1.0  0.50826  0.81663  0.18586  1.0000
  H   H882      1.0  0.54915  0.67545  0.20543  1.0000
  H   H883      1.0  0.59456  0.99942  0.96600  1.0000
  Fe  Fe113     1.0  0.51544  0.87862  0.91171  1.0000
  Fe  Fe114     1.0  0.50790  0.87874  0.00018  1.0000
  S   S221      1.0  0.52140  0.86270  0.86316  1.0000
  H   H884      1.0  0.55121  0.90362  0.90391  1.0000
  H   H885      1.0  0.58244  0.90483  0.82739  1.0000
  H   H886      1.0  0.55067  0.89099  0.81913  1.0000
  H   H887      1.0  0.55071  0.91078  0.79678  1.0000
  H   H888      1.0  0.58886  0.96778  0.97692  1.0000
  S   S222      1.0  0.51756  0.90654  0.90372  1.0000
  H   H889      1.0  0.57395  0.91314  0.91026  1.0000
  H   H890      1.0  0.57378  0.94041  0.88068  1.0000
  H   H891      1.0  0.53678  0.95362  0.93618  1.0000
  N   N56       1.0  0.56456  0.91490  0.85200  1.0000
  S   S223      1.0  0.55902  0.93584  0.96473  1.0000
  C   C556      1.0  0.58197  0.98952  0.95948  1.0000
  H   H892      1.0  0.55105  0.93062  0.87415  1.0000
  C   C557      1.0  0.56343  0.90555  0.88921  1.0000
  H   H893      1.0  0.54255  0.98518  0.92469  1.0000
  C   C558      1.0  0.55032  0.90422  0.82528  1.0000
  C   C559      1.0  0.56338  0.93216  0.86004  1.0000
  C   C560      1.0  0.56238  0.95840  0.95739  1.0000
  H   H894      1.0  0.59214  0.92560  0.85313  1.0000
  C   C561      1.0  0.55270  0.98146  0.93632  1.0000
  C   C562      1.0  0.58115  0.91761  0.83363  1.0000
  H   H895      1.0  0.56424  0.93969  0.83275  1.0000
  H   H896      1.0  0.53759  0.90180  0.83827  1.0000
  H   H897      1.0  0.56381  0.89226  0.88445  1.0000
  S   S224      1.0  0.53225  0.88454  0.96647  1.0000
  C   C563      1.0  0.56899  0.99461  0.94462  1.0000
  C   C564      1.0  0.54938  0.96350  0.94276  1.0000
  Fe  Fe115     1.0  0.53333  0.91238  0.95955  1.0000
  H   H898      1.0  0.58245  0.92463  0.80541  1.0000
  C   C565      1.0  0.57869  0.97153  0.96560  1.0000
  H   H899      1.0  0.51960  0.83578  0.80653  1.0000
  S   S225      1.0  0.51079  0.90713  0.99850  1.0000
  H   H900      1.0  0.51628  0.70662  0.58812  1.0000
  C   C566      1.0  0.50983  0.84077  0.79842  1.0000
  C   C567      1.0  0.50757  0.85392  0.82185  1.0000
  H   H901      1.0  0.83290  0.26446  0.36734  1.0000
  S   S226      1.0  0.68898  0.16630  0.27385  1.0000
  S   S227      1.0  0.69090  0.21566  0.28241  1.0000
  H   H902      1.0  0.71967  0.22493  0.37443  1.0000
  C   C568      1.0  0.68681  0.21211  0.39633  1.0000
  H   H903      1.0  0.70020  0.19568  0.34672  1.0000
  H   H904      1.0  0.80619  0.24724  0.32989  1.0000
  H   H905      1.0  0.68866  0.21788  0.36652  1.0000
  H   H906      1.0  0.70668  0.19152  0.45344  1.0000
  H   H907      1.0  0.69224  0.14697  0.45565  1.0000
  H   H908      1.0  0.68723  0.22265  0.41757  1.0000
  C   C569      1.0  0.69875  0.19083  0.37724  1.0000
  C   C570      1.0  0.80793  0.32886  0.52746  1.0000
  C   C571      1.0  0.80372  0.23671  0.35199  1.0000
  H   H909      1.0  0.78853  0.25022  0.40386  1.0000
  H   H910      1.0  0.69831  0.20777  0.46837  1.0000
  C   C572      1.0  0.71345  0.22568  0.29034  1.0000
  C   C573      1.0  0.72376  0.21574  0.29213  1.0000
  C   C574      1.0  0.74146  0.22401  0.30065  1.0000
  C   C575      1.0  0.74914  0.24233  0.30677  1.0000
  H   H911      1.0  0.83519  0.25988  0.41773  1.0000
  C   C576      1.0  0.72112  0.24401  0.29654  1.0000
  H   H912      1.0  0.71812  0.20168  0.28689  1.0000
  H   H913      1.0  0.81205  0.23520  0.44948  1.0000
  H   H914      1.0  0.78952  0.22955  0.35247  1.0000
  H   H915      1.0  0.79628  0.33536  0.45736  1.0000
  H   H916      1.0  0.71875  0.22990  0.42550  1.0000
  C   C577      1.0  0.82954  0.25364  0.38894  1.0000
  Fe  Fe116     1.0  0.67651  0.18601  0.27629  1.0000
  C   C578      1.0  0.80685  0.22990  0.41973  1.0000
  H   H917      1.0  0.70863  0.18512  0.38282  1.0000
  C   C579      1.0  0.71727  0.21906  0.40410  1.0000
  N   N57       1.0  0.70003  0.20490  0.40590  1.0000
  C   C580      1.0  0.83695  0.29494  0.45963  1.0000
  C   C581      1.0  0.69721  0.19751  0.44571  1.0000
  H   H918      1.0  0.74928  0.21617  0.30208  1.0000
  S   S228      1.0  0.82759  0.32695  0.22359  1.0000
  H   H919      1.0  0.74465  0.26644  0.30926  1.0000
  C   C582      1.0  0.80280  0.25659  0.40369  1.0000
  S   S229      1.0  0.67921  0.14403  0.37615  1.0000
  H   H920      1.0  0.80948  0.22739  0.34116  1.0000
  Fe  Fe117     1.0  0.81628  0.31134  0.27863  1.0000
  H   H921      1.0  0.68605  0.17988  0.37855  1.0000
  N   N58       1.0  0.81073  0.24418  0.39108  1.0000
  H   H922      1.0  0.81258  0.22022  0.41109  1.0000
  C   C583      1.0  0.82876  0.34018  0.47658  1.0000
  H   H923      1.0  0.80612  0.26781  0.38346  1.0000
  S   S230      1.0  0.78796  0.34032  0.37034  1.0000
  H   H924      1.0  0.80740  0.26218  0.43352  1.0000
  Fe  Fe118     1.0  0.79690  0.31956  0.34625  1.0000
  H   H925      1.0  0.82222  0.32872  0.45650  1.0000
  C   C584      1.0  0.82074  0.29166  0.51998  1.0000
  S   S231      1.0  0.77138  0.25188  0.31861  1.0000
  C   C585      1.0  0.73890  0.25233  0.30456  1.0000
  H   H926      1.0  0.71328  0.25183  0.29512  1.0000
  S   S232      1.0  0.81561  0.28646  0.30706  1.0000
  H   H927      1.0  0.79275  0.22264  0.42227  1.0000
  S   S233      1.0  0.82483  0.32690  0.33498  1.0000
  Fe  Fe119     1.0  0.78794  0.28118  0.32089  1.0000
  S   S234      1.0  0.79382  0.29522  0.37959  1.0000
  S   S235      1.0  0.78808  0.30506  0.28854  1.0000
  Fe  Fe120     1.0  0.82119  0.30155  0.36448  1.0000
  H   H928      1.0  0.81199  0.29652  0.46274  1.0000
  C   C586      1.0  0.82224  0.29464  0.47911  1.0000
  H   H929      1.0  0.72756  0.21401  0.41047  1.0000
  C   C587      1.0  0.67994  0.14831  0.45654  1.0000
  S   S236      1.0  0.84006  0.29852  0.40870  1.0000
  H   H930      1.0  0.80068  0.31665  0.51015  1.0000
  H   H931      1.0  0.68419  0.18694  0.44800  1.0000
  H   H932      1.0  0.83841  0.33705  0.49437  1.0000
  H   H933      1.0  0.83607  0.24471  0.38004  1.0000
  H   H934      1.0  0.68042  0.15122  0.51981  1.0000
  Fe  Fe121     1.0  0.69048  0.17750  0.65628  1.0000
  S   S237      1.0  0.83281  0.31924  0.67028  1.0000
  S   S238      1.0  0.71953  0.19007  0.65671  1.0000
  H   H935      1.0  0.79544  0.27385  0.82170  1.0000
  C   C588      1.0  0.74581  0.25024  0.66804  1.0000
  H   H936      1.0  0.77971  0.28189  0.74657  1.0000
  H   H937      1.0  0.70618  0.21721  0.67411  1.0000
  C   C589      1.0  0.74712  0.22162  0.65457  1.0000
  C   C590      1.0  0.72807  0.24189  0.67358  1.0000
  H   H938      1.0  0.83124  0.27611  0.95028  1.0000
  C   C591      1.0  0.71985  0.22350  0.66953  1.0000
  C   C592      1.0  0.72936  0.21327  0.66028  1.0000
  S   S239      1.0  0.67745  0.14989  0.63137  1.0000
  H   H939      1.0  0.76551  0.23442  0.76637  1.0000
  C   C593      1.0  0.78997  0.26342  0.79861  1.0000
  C   C594      1.0  0.75531  0.24006  0.65809  1.0000
  H   H940      1.0  0.75454  0.21378  0.64730  1.0000
  H   H941      1.0  0.75864  0.27665  0.76483  1.0000
  H   H942      1.0  0.74763  0.25383  0.81504  1.0000
  H   H943      1.0  0.72064  0.24967  0.68133  1.0000
  H   H944      1.0  0.77728  0.28872  0.79526  1.0000
  H   H945      1.0  0.76898  0.24636  0.65358  1.0000
  H   H946      1.0  0.81749  0.32613  0.54645  1.0000
  H   H947      1.0  0.83009  0.29752  0.00151  1.0000
  N   N59       1.0  0.67690  0.09373  0.98218  1.0000
  H   H948      1.0  0.82900  0.31886  0.86814  1.0000
  H   H949      1.0  0.79076  0.25104  0.80951  1.0000
  S   S240      1.0  0.75572  0.27321  0.67664  1.0000
  N   N60       1.0  0.77214  0.26105  0.78781  1.0000
  H   H950      1.0  0.77349  0.25105  0.73000  1.0000
  H   H951      1.0  0.75215  0.24531  0.74758  1.0000
  S   S241      1.0  0.79691  0.30153  0.61558  1.0000
  S   S242      1.0  0.79532  0.31368  0.70651  1.0000
  Fe  Fe122     1.0  0.78430  0.28863  0.67070  1.0000
  Fe  Fe123     1.0  0.81002  0.32567  0.65317  1.0000
  Fe  Fe124     1.0  0.81872  0.29424  0.63540  1.0000
  H   H952      1.0  0.76574  0.26587  0.84638  1.0000
  C   C595      1.0  0.76116  0.25571  0.82250  1.0000
  H   H953      1.0  0.79858  0.26764  0.77303  1.0000
  H   H954      1.0  0.68032  0.08814  0.92171  1.0000
  H   H955      1.0  0.76102  0.24307  0.83424  1.0000
  S   S243      1.0  0.80518  0.27934  0.68836  1.0000
  C   C596      1.0  0.77188  0.27782  0.77322  1.0000
  Fe  Fe125     1.0  0.81718  0.30523  0.72171  1.0000
  S   S244      1.0  0.82212  0.30630  0.78833  1.0000
  C   C597      1.0  0.76554  0.24732  0.75671  1.0000
  S   S245      1.0  0.67468  0.18865  0.61990  1.0000
  H   H956      1.0  0.70041  0.09128  0.00060  1.0000
  H   H957      1.0  0.83819  0.27267  0.02055  1.0000
  H   H958      1.0  0.70301  0.10877  0.96696  1.0000
  H   H959      1.0  0.67878  0.07071  0.95498  1.0000
  H   H960      1.0  0.79877  0.33144  0.54756  1.0000
  C   C598      1.0  0.83380  0.28864  0.54113  1.0000
  C   C599      1.0  0.69544  0.10156  0.99221  1.0000
  H   H961      1.0  0.80931  0.29112  0.53494  1.0000
  S   S246      1.0  0.83242  0.28353  0.59160  1.0000
  H   H962      1.0  0.67764  0.11519  0.94557  1.0000
  H   H963      1.0  0.69807  0.11107  0.01735  1.0000
  C   C600      1.0  0.67396  0.08130  0.94861  1.0000
  H   H964      1.0  0.73067  0.47591  0.22429  1.0000
  Fe  Fe126     1.0  0.69975  0.46127  0.32946  1.0000
  S   S247      1.0  0.72760  0.47608  0.31426  1.0000
  Fe  Fe127     1.0  0.80717  0.44731  0.31263  1.0000
  S   S248      1.0  0.82438  0.47588  0.31139  1.0000
  S   S249      1.0  0.77807  0.43483  0.31098  1.0000
  H   H965      1.0  0.79083  0.49538  0.44660  1.0000
  H   H966      1.0  0.78669  0.47831  0.48215  1.0000
  H   H967      1.0  0.83582  0.35156  0.45788  1.0000
  S   S250      1.0  0.81885  0.44217  0.36821  1.0000
  S   S251      1.0  0.82404  0.43846  0.27416  1.0000
  H   H968      1.0  0.83228  0.37148  0.50813  1.0000
  H   H969      1.0  0.80553  0.34343  0.25514  1.0000
  C   C601      1.0  0.80400  0.36162  0.37024  1.0000
  H   H970      1.0  0.78447  0.44852  0.46099  1.0000
  H   H971      1.0  0.71052  0.49920  0.15932  1.0000
  H   H972      1.0  0.71875  0.49724  0.24729  1.0000
  H   H973      1.0  0.71921  0.48349  0.14276  1.0000
  H   H974      1.0  0.80915  0.40362  0.34734  1.0000
  C   C602      1.0  0.69018  0.47441  0.48568  1.0000
  H   H975      1.0  0.76354  0.48741  0.29791  1.0000
  C   C603      1.0  0.74147  0.46447  0.31266  1.0000
  C   C604      1.0  0.73547  0.44644  0.31990  1.0000
  C   C605      1.0  0.74681  0.43751  0.31853  1.0000
  C   C606      1.0  0.76423  0.44653  0.31016  1.0000
  C   C607      1.0  0.77019  0.46454  0.30245  1.0000
  C   C608      1.0  0.75884  0.47348  0.30383  1.0000
  H   H976      1.0  0.72210  0.43935  0.32655  1.0000
  H   H977      1.0  0.74208  0.42356  0.32430  1.0000
  H   H978      1.0  0.78350  0.47155  0.29521  1.0000
  N   N61       1.0  0.70804  0.47856  0.19985  1.0000
  H   H979      1.0  0.69676  0.47516  0.45833  1.0000
  H   H980      1.0  0.80261  0.35820  0.29058  1.0000
  C   C609      1.0  0.80323  0.34696  0.47684  1.0000
  C   C610      1.0  0.82125  0.36416  0.37620  1.0000
  C   C611      1.0  0.80308  0.35578  0.25862  1.0000
  Fe  Fe128     1.0  0.83717  0.47002  0.36508  1.0000
  H   H981      1.0  0.69182  0.45867  0.15939  1.0000
  H   H982      1.0  0.79312  0.46694  0.36243  1.0000
  H   H983      1.0  0.76357  0.45437  0.39223  1.0000
  H   H984      1.0  0.76120  0.45927  0.44274  1.0000
  C   C612      1.0  0.79084  0.45429  0.43329  1.0000
  C   C613      1.0  0.83343  0.37345  0.25768  1.0000
  H   H985      1.0  0.82468  0.35333  0.38490  1.0000
  C   C614      1.0  0.82988  0.39491  0.35916  1.0000
  N   N62       1.0  0.81650  0.37074  0.23976  1.0000
  H   H986      1.0  0.68569  0.42011  0.48033  1.0000
  H   H987      1.0  0.71102  0.45834  0.23526  1.0000
  N   N63       1.0  0.78717  0.46989  0.42233  1.0000
  C   C615      1.0  0.71750  0.49077  0.16907  1.0000
  C   C616      1.0  0.82546  0.35983  0.52630  1.0000
  C   C617      1.0  0.79323  0.48335  0.45413  1.0000
  C   C618      1.0  0.76847  0.46468  0.41576  1.0000
  H   H988      1.0  0.71958  0.45976  0.18693  1.0000
  H   H989      1.0  0.73048  0.49965  0.17985  1.0000
  N   N64       1.0  0.81635  0.34395  0.50176  1.0000
  H   H990      1.0  0.67436  0.43452  0.47309  1.0000
  H   H991      1.0  0.71339  0.48290  0.52137  1.0000
  H   H992      1.0  0.80733  0.48743  0.45974  1.0000
  H   H993      1.0  0.81038  0.48252  0.39053  1.0000
  C   C619      1.0  0.81285  0.38686  0.24535  1.0000
  C   C620      1.0  0.69956  0.47880  0.52135  1.0000
  C   C621      1.0  0.81259  0.39272  0.35591  1.0000
  C   C622      1.0  0.79965  0.37607  0.36151  1.0000
  H   H994      1.0  0.78630  0.37423  0.35728  1.0000
  H   H995      1.0  0.82689  0.37762  0.18230  1.0000
  H   H996      1.0  0.79270  0.48811  0.37476  1.0000
  S   S252      1.0  0.68982  0.44502  0.38309  1.0000
  H   H997      1.0  0.68348  0.47494  0.17363  1.0000
  H   H998      1.0  0.80488  0.45775  0.43768  1.0000
  C   C623      1.0  0.70607  0.48879  0.23408  1.0000
  C   C624      1.0  0.71774  0.46766  0.21193  1.0000
  C   C625      1.0  0.79621  0.47722  0.38593  1.0000
  H   H999      1.0  0.79010  0.35327  0.24595  1.0000
  H   H1000     1.0  0.68303  0.45821  0.20726  1.0000
  H   H1001     1.0  0.80413  0.36496  0.18288  1.0000
  H   H1002     1.0  0.78632  0.44381  0.40996  1.0000
  C   C626      1.0  0.69088  0.46708  0.18435  1.0000
  H   H1003     1.0  0.76521  0.47602  0.40646  1.0000
  H   H1004     1.0  0.80006  0.38526  0.23274  1.0000
  H   H1005     1.0  0.69910  0.49743  0.22602  1.0000
  H   H1006     1.0  0.83425  0.43624  0.50926  1.0000
  H   H1007     1.0  0.82270  0.39841  0.23140  1.0000
  H   H1008     1.0  0.69876  0.47997  0.25755  1.0000
  S   S253      1.0  0.68220  0.44105  0.28730  1.0000
  S   S254      1.0  0.68252  0.47668  0.33450  1.0000
  H   H1009     1.0  0.81283  0.39027  0.27696  1.0000
  H   H1010     1.0  0.83368  0.37622  0.28970  1.0000
  H   H1011     1.0  0.80910  0.35844  0.45750  1.0000
  Fe  Fe129     1.0  0.83734  0.43627  0.33001  1.0000
  C   C627      1.0  0.83708  0.45021  0.50765  1.0000
  H   H1012     1.0  0.83238  0.44932  0.44545  1.0000
  H   H1013     1.0  0.79348  0.34955  0.49484  1.0000
  C   C628      1.0  0.83612  0.45767  0.47128  1.0000
  C   C629      1.0  0.83417  0.38074  0.37057  1.0000
  C   C630      1.0  0.81664  0.36684  0.19738  1.0000
  H   H1014     1.0  0.81899  0.35452  0.19223  1.0000
  H   H1015     1.0  0.83667  0.36158  0.25394  1.0000
  H   H1016     1.0  0.67449  0.39570  0.52878  1.0000
  Fe  Fe130     1.0  0.70159  0.44395  0.71427  1.0000
  S   S255      1.0  0.72322  0.43874  0.74466  1.0000
  H   H1017     1.0  0.68717  0.50068  0.86944  1.0000
  Fe  Fe131     1.0  0.81998  0.47160  0.70116  1.0000
  H   H1018     1.0  0.74099  0.39897  0.72575  1.0000
  S   S256      1.0  0.79983  0.48347  0.69532  1.0000
  Fe  Fe132     1.0  0.82520  0.43825  0.72006  1.0000
  S   S257      1.0  0.81463  0.41155  0.74686  1.0000
  H   H1019     1.0  0.75775  0.41595  0.64789  1.0000
  H   H1020     1.0  0.68134  0.50751  0.63548  1.0000
  H   H1021     1.0  0.67655  0.51006  0.76009  1.0000
  S   S258      1.0  0.81409  0.44635  0.66749  1.0000
  H   H1022     1.0  0.75088  0.38302  0.72750  1.0000
  C   C631      1.0  0.77497  0.41537  0.73839  1.0000
  H   H1023     1.0  0.77575  0.43254  0.67249  1.0000
  S   S259      1.0  0.69976  0.47059  0.71379  1.0000
  C   C632      1.0  0.76347  0.42119  0.67719  1.0000
  H   H1024     1.0  0.83925  0.43133  0.82217  1.0000
  Fe  Fe133     1.0  0.69202  0.46374  0.65037  1.0000
  C   C633      1.0  0.81511  0.39517  0.71384  1.0000
  C   C634      1.0  0.81077  0.37791  0.72660  1.0000
  C   C635      1.0  0.81058  0.36460  0.70017  1.0000
  C   C636      1.0  0.81445  0.36844  0.66076  1.0000
  C   C637      1.0  0.81931  0.39913  0.67463  1.0000
  H   H1025     1.0  0.80754  0.37479  0.75692  1.0000
  H   H1026     1.0  0.80731  0.35134  0.71028  1.0000
  H   H1027     1.0  0.77914  0.38943  0.69660  1.0000
  H   H1028     1.0  0.75466  0.42653  0.69170  1.0000
  C   C638      1.0  0.74443  0.45189  0.73172  1.0000
  C   C639      1.0  0.74774  0.46338  0.70021  1.0000
  C   C640      1.0  0.76478  0.47306  0.68945  1.0000
  C   C641      1.0  0.77860  0.47102  0.70944  1.0000
  C   C642      1.0  0.77527  0.45954  0.74097  1.0000
  C   C643      1.0  0.75825  0.45024  0.75246  1.0000
  H   H1029     1.0  0.73720  0.46483  0.68415  1.0000
  H   H1030     1.0  0.76728  0.48207  0.66532  1.0000
  H   H1031     1.0  0.78586  0.45824  0.75719  1.0000
  H   H1032     1.0  0.75574  0.44177  0.77753  1.0000
  C   C644      1.0  0.77679  0.39976  0.67933  1.0000
  S   S260      1.0  0.81357  0.35184  0.62671  1.0000
  H   H1033     1.0  0.77063  0.39366  0.65092  1.0000
  S   S261      1.0  0.82872  0.46237  0.75629  1.0000
  H   H1034     1.0  0.78960  0.40991  0.67286  1.0000
  S   S262      1.0  0.69574  0.43810  0.65003  1.0000
  H   H1035     1.0  0.76703  0.42061  0.75641  1.0000
  C   C645      1.0  0.68339  0.50688  0.73521  1.0000
  C   C646      1.0  0.67682  0.42811  0.55046  1.0000
  H   H1036     1.0  0.82277  0.41244  0.66453  1.0000
  N   N65       1.0  0.76615  0.40747  0.70103  1.0000
  H   H1037     1.0  0.77789  0.40556  0.75634  1.0000
  H   H1038     1.0  0.74232  0.38726  0.68186  1.0000
  C   C647      1.0  0.81882  0.38574  0.64807  1.0000
  S   S263      1.0  0.70296  0.48271  0.60145  1.0000
  H   H1039     1.0  0.78741  0.42644  0.73328  1.0000
  C   C648      1.0  0.74933  0.39354  0.70938  1.0000
  H   H1040     1.0  0.81640  0.36318  0.54522  1.0000
  C   C649      1.0  0.68606  0.50546  0.66494  1.0000
  H   H1041     1.0  0.67974  0.44214  0.54397  1.0000
  H   H1042     1.0  0.69200  0.53732  0.69718  1.0000
  H   H1043     1.0  0.68187  0.49293  0.73845  1.0000
  H   H1044     1.0  0.82192  0.38883  0.61769  1.0000
  H   H1045     1.0  0.68324  0.48244  0.80860  1.0000
  C   C650      1.0  0.69110  0.47767  0.55699  1.0000
  H   H1046     1.0  0.68476  0.49149  0.66570  1.0000
  H   H1047     1.0  0.83507  0.35779  0.54642  1.0000
  H   H1048     1.0  0.70006  0.51365  0.66701  1.0000
  H   H1049     1.0  0.69731  0.51511  0.73885  1.0000
  C   C651      1.0  0.67829  0.52824  0.69433  1.0000
  H   H1050     1.0  0.68928  0.42635  0.55211  1.0000
  C   C652      1.0  0.67439  0.49365  0.85732  1.0000
  N   N66       1.0  0.67647  0.50967  0.69691  1.0000
  S   S264      1.0  0.67411  0.42972  0.73222  1.0000
  H   H1051     1.0  0.86045  0.29891  0.14736  1.0000
  S   S265      1.0  0.87589  0.32230  0.08422  1.0000
  C   C653      1.0  0.84985  0.29194  0.48099  1.0000
  C   C654      1.0  0.84758  0.33919  0.15916  1.0000
  H   H1052     1.0  0.85759  0.28808  0.04281  1.0000
  C   C655      1.0  0.86295  0.32399  0.12368  1.0000
  C   C656      1.0  0.85689  0.31021  0.15057  1.0000
  C   C657      1.0  0.84628  0.31093  0.18174  1.0000
  H   H1053     1.0  0.86123  0.29208  0.46634  1.0000
  C   C658      1.0  0.84149  0.32542  0.18609  1.0000
  C   C659      1.0  0.85828  0.33852  0.12824  1.0000
  C   C660      1.0  0.84821  0.28864  0.52121  1.0000
  H   H1054     1.0  0.84169  0.30024  0.20214  1.0000
  H   H1055     1.0  0.87845  0.29663  0.96678  1.0000
  C   C661      1.0  0.85768  0.31811  0.79983  1.0000
  H   H1056     1.0  0.85826  0.28616  0.53711  1.0000
  C   C662      1.0  0.87217  0.32894  0.86339  1.0000
  C   C663      1.0  0.84121  0.32044  0.85553  1.0000
  H   H1057     1.0  0.87259  0.31473  0.95411  1.0000
  H   H1058     1.0  0.85568  0.33079  0.90936  1.0000
  H   H1059     1.0  0.87762  0.31179  0.00418  1.0000
  H   H1060     1.0  0.85834  0.31457  0.76942  1.0000
  C   C664      1.0  0.84507  0.28433  0.94664  1.0000
  H   H1061     1.0  0.84966  0.31290  0.02298  1.0000
  C   C665      1.0  0.87273  0.32438  0.82365  1.0000
  C   C666      1.0  0.87119  0.30471  0.97683  1.0000
  C   C667      1.0  0.85632  0.32716  0.87906  1.0000
  C   C668      1.0  0.84177  0.31592  0.81574  1.0000
  C   C669      1.0  0.84384  0.30530  0.99561  1.0000
  H   H1062     1.0  0.85162  0.27555  0.93667  1.0000
  N   N67       1.0  0.85294  0.29385  0.98343  1.0000
  C   C670      1.0  0.85177  0.28114  0.01468  1.0000
  H   H1063     1.0  0.85870  0.27244  0.00680  1.0000
  H   H1064     1.0  0.88488  0.32565  0.81118  1.0000
  H   H1065     1.0  0.84604  0.29367  0.92246  1.0000
  S   S266      1.0  0.89138  0.33583  0.89273  1.0000
  H   H1066     1.0  0.84435  0.31498  0.97264  1.0000
  H   H1067     1.0  0.91696  0.44961  0.05601  1.0000
  H   H1068     1.0  0.89796  0.47008  0.09256  1.0000
  S   S267      1.0  0.85246  0.47916  0.21689  1.0000
  C   C671      1.0  0.91797  0.45164  0.08831  1.0000
  C   C672      1.0  0.00264  0.41596  0.03591  1.0000
  H   H1069     1.0  0.89004  0.44601  0.16267  1.0000
  H   H1070     1.0  0.88661  0.48135  0.24406  1.0000
  C   C673      1.0  0.90271  0.44927  0.14861  1.0000
  H   H1071     1.0  0.92562  0.44424  0.10000  1.0000
  H   H1072     1.0  0.86288  0.49043  0.13887  1.0000
  H   H1073     1.0  0.88729  0.44207  0.47733  1.0000
  H   H1074     1.0  0.98064  0.42076  0.05662  1.0000
  N   N68       1.0  0.90079  0.44582  0.10583  1.0000
  S   S268      1.0  0.95866  0.50886  0.05125  1.0000
  C   C674      1.0  0.89397  0.45106  0.45336  1.0000
  Fe  Fe134     1.0  0.93199  0.50707  0.06712  1.0000
  H   H1075     1.0  0.99754  0.55184  0.06788  1.0000
  H   H1076     1.0  0.92544  0.46593  0.09420  1.0000
  C   C675      1.0  0.89149  0.42678  0.09798  1.0000
  C   C676      1.0  0.90328  0.49049  0.19435  1.0000
  C   C677      1.0  0.87274  0.48515  0.19389  1.0000
  S   S269      1.0  0.92487  0.50147  0.13158  1.0000
  H   H1077     1.0  0.90690  0.45972  0.46483  1.0000
  H   H1078     1.0  0.90611  0.48261  0.41864  1.0000
  C   C678      1.0  0.89322  0.47332  0.40837  1.0000
  C   C679      1.0  0.88163  0.47200  0.47313  1.0000
  H   H1079     1.0  0.89414  0.48090  0.48619  1.0000
  S   S270      1.0  0.84259  0.48603  0.42212  1.0000
  H   H1080     1.0  0.88897  0.45300  0.05614  1.0000
  H   H1081     1.0  0.89073  0.49940  0.10471  1.0000
  C   C680      1.0  0.84515  0.48634  0.50272  1.0000
  H   H1082     1.0  0.84752  0.38243  0.37370  1.0000
  H   H1083     1.0  0.89580  0.44277  0.42907  1.0000
  H   H1084     1.0  0.90941  0.44150  0.16297  1.0000
  Fe  Fe135     1.0  0.84235  0.46691  0.27605  1.0000
  H   H1085     1.0  0.89872  0.41891  0.10953  1.0000
  H   H1086     1.0  0.87819  0.45212  0.10176  1.0000
  C   C681      1.0  0.87413  0.49030  0.15444  1.0000
  H   H1087     1.0  0.85957  0.44025  0.44753  1.0000
  S   S271      1.0  0.85683  0.46400  0.32983  1.0000
  N   N69       1.0  0.88399  0.46144  0.43990  1.0000
  H   H1088     1.0  0.87463  0.48043  0.46366  1.0000
  H   H1089     1.0  0.87411  0.46348  0.49695  1.0000
  C   C682      1.0  0.90465  0.49562  0.15487  1.0000
  H   H1090     1.0  0.91041  0.46341  0.15530  1.0000
  C   C683      1.0  0.88742  0.48516  0.21369  1.0000
  S   S272      1.0  0.84632  0.41465  0.34593  1.0000
  C   C684      1.0  0.88993  0.49543  0.13498  1.0000
  C   C685      1.0  0.89101  0.45565  0.08831  1.0000
  H   H1091     1.0  0.91458  0.49064  0.21013  1.0000
  H   H1092     1.0  0.86836  0.44113  0.39961  1.0000
  C   C686      1.0  0.86706  0.44936  0.42461  1.0000
  H   H1093     1.0  0.88595  0.48136  0.39782  1.0000
  H   H1094     1.0  0.85928  0.45678  0.41383  1.0000
  H   H1095     1.0  0.89500  0.46578  0.38256  1.0000
  H   H1096     1.0  0.87860  0.42187  0.11144  1.0000
  H   H1097     1.0  0.88948  0.42384  0.06594  1.0000
  S   S273      1.0  0.90380  0.37283  0.05561  1.0000
  C   C687      1.0  0.98493  0.41158  0.04135  1.0000
  H   H1098     1.0  0.84404  0.35047  0.16217  1.0000
  H   H1099     1.0  0.86283  0.34921  0.10780  1.0000
  H   H1100     1.0  0.84389  0.38472  0.24452  1.0000
  H   H1101     1.0  0.84871  0.50042  0.50090  1.0000
  Fe  Fe136     1.0  0.88885  0.34432  0.04126  1.0000
  C   C688      1.0  0.84073  0.47586  0.46835  1.0000
  C   C689      1.0  0.90341  0.43524  0.97595  1.0000
  H   H1102     1.0  0.85793  0.45106  0.83257  1.0000
  H   H1103     1.0  0.94661  0.40863  0.96129  1.0000
  C   C690      1.0  0.91879  0.41867  0.00528  1.0000
  C   C691      1.0  0.00137  0.49304  0.99156  1.0000
  Fe  Fe137     1.0  0.89101  0.37793  0.00185  1.0000
  S   S274      1.0  0.91134  0.37769  0.96076  1.0000
  S   S275      1.0  0.87400  0.34963  0.99081  1.0000
  H   H1104     1.0  0.88662  0.45255  0.81244  1.0000
  S   S276      1.0  0.88067  0.48313  0.76485  1.0000
  H   H1105     1.0  0.00050  0.37874  0.98765  1.0000
  H   H1106     1.0  0.99959  0.53093  0.95670  1.0000
  C   C692      1.0  0.91891  0.44979  0.97285  1.0000
  C   C693      1.0  0.95277  0.40496  0.93577  1.0000
  S   S277      1.0  0.94740  0.51076  0.95870  1.0000
  C   C694      1.0  0.90333  0.41965  0.99217  1.0000
  C   C695      1.0  0.88502  0.48920  0.81524  1.0000
  C   C696      1.0  0.90136  0.49181  0.83112  1.0000
  C   C697      1.0  0.00438  0.56114  0.00943  1.0000
  S   S278      1.0  0.85174  0.44823  0.69707  1.0000
  H   H1107     1.0  0.95486  0.43851  0.93418  1.0000
  S   S279      1.0  0.91880  0.48653  0.02103  1.0000
  C   C698      1.0  0.97462  0.41491  0.88685  1.0000
  C   C699      1.0  0.97842  0.38384  0.00694  1.0000
  H   H1108     1.0  0.94258  0.39890  0.91296  1.0000
  H   H1109     1.0  0.96919  0.37145  0.99563  1.0000
  H   H1110     1.0  0.97469  0.43108  0.97909  1.0000
  H   H1111     1.0  0.96498  0.40935  0.86266  1.0000
  H   H1112     1.0  0.99267  0.49127  0.01687  1.0000
  H   H1113     1.0  0.91823  0.49907  0.88234  1.0000
  H   H1114     1.0  0.98556  0.42619  0.87509  1.0000
  H   H1115     1.0  0.99085  0.43990  0.94267  1.0000
  H   H1116     1.0  0.86028  0.48986  0.82775  1.0000
  H   H1117     1.0  0.98610  0.51684  0.99257  1.0000
  N   N70       1.0  0.86340  0.42937  0.80866  1.0000
  S   S280      1.0  0.89873  0.50809  0.94378  1.0000
  H   H1118     1.0  0.98609  0.41815  0.96045  1.0000
  H   H1119     1.0  0.91894  0.46175  0.95988  1.0000
  H   H1120     1.0  0.85295  0.41844  0.75194  1.0000
  Fe  Fe138     1.0  0.94533  0.49010  0.00233  1.0000
  H   H1121     1.0  0.97960  0.40459  0.89508  1.0000
  C   C700      1.0  0.93429  0.44887  0.98667  1.0000
  C   C701      1.0  0.87720  0.49724  0.87897  1.0000
  N   N71       1.0  0.96701  0.42039  0.92086  1.0000
  H   H1122     1.0  0.86318  0.40612  0.77824  1.0000
  C   C702      1.0  0.87287  0.49174  0.83954  1.0000
  Fe  Fe139     1.0  0.85509  0.47316  0.73046  1.0000
  C   C703      1.0  0.99454  0.51720  0.96753  1.0000
  Fe  Fe140     1.0  0.92391  0.37147  0.01398  1.0000
  H   H1123     1.0  0.98630  0.50854  0.94384  1.0000
  H   H1124     1.0  0.84978  0.48708  0.56550  1.0000
  H   H1125     1.0  0.95731  0.39459  0.94589  1.0000
  H   H1126     1.0  0.89150  0.43604  0.96568  1.0000
  H   H1127     1.0  0.97065  0.44565  0.89684  1.0000
  H   H1128     1.0  0.87414  0.41520  0.84644  1.0000
  C   C704      1.0  0.85518  0.41414  0.78168  1.0000
  H   H1129     1.0  0.94995  0.42864  0.88615  1.0000
  H   H1130     1.0  0.85065  0.44494  0.78316  1.0000
  H   H1131     1.0  0.91086  0.48992  0.81254  1.0000
  H   H1132     1.0  0.99365  0.48420  0.96747  1.0000
  H   H1133     1.0  0.86781  0.49953  0.89727  1.0000
  C   C705      1.0  0.96035  0.43390  0.90886  1.0000
  H   H1134     1.0  0.87212  0.43426  0.86882  1.0000
  H   H1135     1.0  0.87874  0.44575  0.76360  1.0000
  C   C706      1.0  0.98024  0.42775  0.95210  1.0000
  S   S281      1.0  0.93357  0.52977  0.02827  1.0000
  C   C707      1.0  0.90558  0.49702  0.87071  1.0000
  C   C708      1.0  0.93425  0.43324  0.00251  1.0000
  Fe  Fe141     1.0  0.89549  0.34884  0.95367  1.0000
  S   S282      1.0  0.88396  0.40152  0.99685  1.0000
  Fe  Fe142     1.0  0.92183  0.50892  0.98086  1.0000
  C   C709      1.0  0.89355  0.49993  0.89478  1.0000
  S   S283      1.0  0.95325  0.46766  0.98746  1.0000
  C   C710      1.0  0.88021  0.44076  0.79314  1.0000
  C   C711      1.0  0.99619  0.38804  0.00240  1.0000
  H   H1136     1.0  0.94690  0.57703  0.87810  1.0000
  H   H1137     1.0  0.91468  0.54430  0.96503  1.0000
  H   H1138     1.0  0.90813  0.56100  0.88970  1.0000
  H   H1139     1.0  0.90633  0.53870  0.89509  1.0000
  C   C712      1.0  0.91551  0.55226  0.88876  1.0000
  H   H1140     1.0  0.95041  0.54996  0.93629  1.0000
  C   C713      1.0  0.93958  0.54625  0.91446  1.0000
  H   H1141     1.0  0.93424  0.56202  0.97960  1.0000
  N   N72       1.0  0.93011  0.55814  0.91718  1.0000
  H   H1142     1.0  0.91634  0.56658  0.96050  1.0000
  C   C714      1.0  0.92358  0.55779  0.95732  1.0000
  H   H1143     1.0  0.93516  0.58565  0.91041  1.0000
  H   H1144     1.0  0.95304  0.58095  0.92905  1.0000
  H   H1145     1.0  0.91989  0.55198  0.85820  1.0000
  C   C715      1.0  0.94181  0.57626  0.90827  1.0000
  H   H1146     1.0  0.93099  0.53242  0.91997  1.0000
  H   H1147     1.0  0.94499  0.54642  0.88483  1.0000
  Fe  Fe143     1.0  0.95927  0.52981  0.00899  1.0000
  S   S284      1.0  0.98296  0.55313  0.98956  1.0000
  H   H1148     1.0  0.88901  0.43357  0.79034  1.0000
  H   H1149     1.0  0.94604  0.43253  0.01391  1.0000
  H   H1150     1.0  0.85341  0.41454  0.86038  1.0000
  S   S285      1.0  0.84679  0.48471  0.67753  1.0000
  S   S286      1.0  0.84617  0.45120  0.58506  1.0000
  Fe  Fe144     1.0  0.84113  0.45866  0.64676  1.0000
  C   C716      1.0  0.86589  0.42307  0.84780  1.0000
  C   C717      1.0  0.85230  0.43960  0.81197  1.0000
  C   C718      1.0  0.97269  0.39557  0.02669  1.0000
  H   H1151     1.0  0.91885  0.40683  0.01858  1.0000
  S   S287      1.0  0.90994  0.34217  0.00351  1.0000
  C   C719      1.0  0.84574  0.47880  0.53940  1.0000
  C   C720      1.0  0.84211  0.46074  0.54180  1.0000
  H   H1152     1.0  0.84240  0.40530  0.79234  1.0000
  S   S288      1.0  0.95056  0.39141  0.03294  1.0000
