data_image0
_chemical_formula_structural       S2H3C2HCSNFeC3NHCH2CH2CHCFeSH2C3H2S2FeHSC2H4CSFeCHCH2S2CH5CH5C2H3NH4CHC2H2CHC2HSCHCSH2CSH2SHFeCFe2SCH3FeSCH3FeC2HFeSFeSNFeS2C2HCHCHCH2CH4SCH2CHCH6SC2H4CNCH4C2HCH3SC2HSHCSH2CFeS3C2HNCH2C2H2CH5CHFeHFeHSH5C2FeHSHNHCH2SC3HCHCFeHSHCFeSCHSCFe2C2SHSH2CH2CSFeSFeSCHC3H2C2H3SCNC4NH6CHCH2CH7CH2CH6CH4C3HCSHCHSC3H3Fe2SH2SHSHC4SC2H2CNHCH3CH2CHNHCH3CHC3H2SH2C3SFeH2CH3CH2FeH3CHCH2FeCH4NCH4SH4CHC2HSCSFeSFeS2FeHC3H2FeS2H2CHCH2NCH5SC2H2NH2CHCHFeS2FeS2Fe2S2CHCHCH2C2HCH4CNC2SHCH4CH6CH3FeCH5SCSC3SHCNHSH2SH3C4NC2HSCHCH3CHCHNH3C4H3CSCSC4HSFeHCSCHCH2CH8NC2HCH4CH3SCHCH3CH3CH2NCH3CHCH5CSHFeC5H3C2HSNCSFeSH2CSFeC2H2CFeH3CHSC3HS2CH5S2CNH2CHCFeH2FeC2HS3FeSFeSHCNC3H2C2HC2H2CH3CHCH9C2SH5SH2C2H2CFeHSH2SH2C2H6NCHC3HC2HCHFeSFeSHC2FeS2FeSHCH2CHC2H2C2H2NH5C2SH3CH3C3HNC2H3CHSCH3CHNH3CHCHSH3FeHCH2C2S2CSH4FeNHCHSH2C4H2CH2FeSFeSFeS3C2H2CH2SFeCHCH3CNH3CHCHCHSH3CH2CHCHSCH2NHC2H2C3FeSFeSHSFe2S2CHC3H3SCHC2H9NH2CHSHCHCHC2HSH2CH4C2SCFeS2H2C3H2SCFeC4H2CH3CHNCH4CH2CH4C2H2SH10CH2CSC2SFeH2NFeSCHCNC2HCHSCHSCH3CHCHCSFeSFeSFeSFeS2HCH2C3H3CH4SHCHNH2CH4NHCH3C2H2CHFeSCH2CHFeHCSFeH3NHSFeSCHSHCH2CH2CHCH2C2SCHC2HC2H2NSH2SHCH3Fe2S2H3C3H7C2SC2HCSHSH2Fe2C4H2CHSHCS2CHCHC3H4CHC2SCFeS3Fe2SFeSHC2HCH2SHNH4CHSCH3C2H2CH2CHSNH2CH3C4H2FeHC2FeH2FeCH3SH2FeHS2H2NH2CHC3H3CNC3HS2CHCH5FeHFeSCHCH3FeCHSHCNCH4CH5CH3CHCSCHC2H3CHC2HCHSCH2SHSC2NC2HCHFeCSCH3CH5CH2CHCH2NCH2SH2FeS2FeS2Fe2S3HC3HCSNCHCH3C2HCH6C2H3C4H4CHCH2CH4CNH2CSH2SCHCHCH2SHCHC2H2FeCH2SFeH3CH2NHC3H2CSHSFeC3FeCH2C2H3S
_chemical_formula_sum              "S192 H768 C480 N48 Fe96"
_cell_length_a       49.9457
_cell_length_b       50.5772
_cell_length_c       32.813
_cell_angle_alpha    89.8337
_cell_angle_beta     89.9169
_cell_angle_gamma    86.2462

_space_group_name_H-M_alt    "P 1"
_space_group_IT_number       1

loop_
  _space_group_symop_operation_xyz
  'x, y, z'

loop_
  _atom_site_type_symbol
  _atom_site_label
  _atom_site_symmetry_multiplicity
  _atom_site_fract_x
  _atom_site_fract_y
  _atom_site_fract_z
  _atom_site_occupancy
  S   S1        1.0  0.10414  0.30031  0.11141  1.0000
  S   S2        1.0  0.16744  0.32024  0.17431  1.0000
  H   H1        1.0  0.23025  0.23042  0.08166  1.0000
  H   H2        1.0  0.21348  0.27554  0.10371  1.0000
  H   H3        1.0  0.09072  0.30367  0.24459  1.0000
  C   C1        1.0  0.23478  0.27096  0.09952  1.0000
  C   C2        1.0  0.09182  0.32276  0.22798  1.0000
  H   H4        1.0  0.09922  0.31816  0.19660  1.0000
  C   C3        1.0  0.08830  0.30548  0.06397  1.0000
  S   S3        1.0  0.45861  0.14504  0.31852  1.0000
  N   N1        1.0  0.40716  0.09087  0.25319  1.0000
  Fe  Fe1       1.0  0.38499  0.18336  0.06193  1.0000
  C   C4        1.0  0.33136  0.08929  0.07554  1.0000
  C   C5        1.0  0.28045  0.28410  0.10152  1.0000
  C   C6        1.0  0.25293  0.29022  0.10730  1.0000
  N   N2        1.0  0.30033  0.24897  0.21577  1.0000
  H   H5        1.0  0.33817  0.26593  0.20529  1.0000
  C   C7        1.0  0.28921  0.27078  0.24194  1.0000
  H   H6        1.0  0.31229  0.27609  0.16967  1.0000
  H   H7        1.0  0.26772  0.25431  0.17322  1.0000
  C   C8        1.0  0.32071  0.25908  0.18810  1.0000
  H   H8        1.0  0.30519  0.27924  0.26053  1.0000
  H   H9        1.0  0.32868  0.24348  0.16659  1.0000
  C   C9        1.0  0.31297  0.22760  0.24144  1.0000
  H   H10       1.0  0.32996  0.23467  0.25952  1.0000
  C   C10       1.0  0.27847  0.23843  0.19156  1.0000
  Fe  Fe2       1.0  0.36929  0.19923  0.14836  1.0000
  S   S4        1.0  0.38298  0.22267  0.20141  1.0000
  H   H11       1.0  0.26330  0.22961  0.21135  1.0000
  H   H12       1.0  0.28625  0.22282  0.16986  1.0000
  C   C11       1.0  0.38414  0.20448  0.24697  1.0000
  C   C12       1.0  0.36974  0.18182  0.25129  1.0000
  C   C13       1.0  0.37057  0.16773  0.28818  1.0000
  H   H13       1.0  0.35777  0.17521  0.22647  1.0000
  H   H14       1.0  0.32128  0.21084  0.22242  1.0000
  S   S5        1.0  0.33282  0.17584  0.14847  1.0000
  S   S6        1.0  0.36345  0.10193  0.13947  1.0000
  Fe  Fe3       1.0  0.35913  0.14429  0.11771  1.0000
  H   H15       1.0  0.29838  0.21961  0.26316  1.0000
  S   S7        1.0  0.39626  0.16641  0.12317  1.0000
  C   C14       1.0  0.35010  0.08001  0.10470  1.0000
  C   C15       1.0  0.39987  0.21265  0.27922  1.0000
  H   H16       1.0  0.29454  0.29908  0.10687  1.0000
  H   H17       1.0  0.27948  0.28723  0.22336  1.0000
  H   H18       1.0  0.27376  0.26387  0.26326  1.0000
  H   H19       1.0  0.32413  0.10990  0.07531  1.0000
  C   C16       1.0  0.27196  0.23898  0.08295  1.0000
  S   S8        1.0  0.36101  0.21858  0.08786  1.0000
  Fe  Fe4       1.0  0.32626  0.19259  0.08557  1.0000
  C   C17       1.0  0.24431  0.24541  0.08716  1.0000
  H   H20       1.0  0.31125  0.25391  0.08580  1.0000
  C   C18       1.0  0.28998  0.25851  0.08975  1.0000
  H   H21       1.0  0.38329  0.12362  0.22727  1.0000
  H   H22       1.0  0.37002  0.07786  0.22976  1.0000
  S   S9        1.0  0.28343  0.20630  0.07039  1.0000
  S   S10       1.0  0.24232  0.32176  0.12602  1.0000
  C   C19       1.0  0.40467  0.11615  0.23031  1.0000
  H   H23       1.0  0.41094  0.23023  0.27627  1.0000
  H   H24       1.0  0.41271  0.11375  0.19876  1.0000
  H   H25       1.0  0.41554  0.13183  0.24577  1.0000
  H   H26       1.0  0.35911  0.15047  0.29174  1.0000
  H   H27       1.0  0.37515  0.10252  0.29470  1.0000
  C   C20       1.0  0.39662  0.09511  0.29496  1.0000
  H   H28       1.0  0.44805  0.09563  0.27079  1.0000
  H   H29       1.0  0.44435  0.07746  0.22441  1.0000
  H   H30       1.0  0.46499  0.16843  0.19848  1.0000
  H   H31       1.0  0.50420  0.18866  0.17011  1.0000
  H   H32       1.0  0.50787  0.20790  0.21540  1.0000
  C   C21       1.0  0.53171  0.16107  0.25913  1.0000
  C   C22       1.0  0.45509  0.21115  0.14979  1.0000
  H   H33       1.0  0.51201  0.15363  0.25604  1.0000
  H   H34       1.0  0.43833  0.23809  0.21602  1.0000
  H   H35       1.0  0.46796  0.18675  0.24494  1.0000
  N   N3        1.0  0.46806  0.21032  0.19033  1.0000
  H   H36       1.0  0.46136  0.22812  0.13119  1.0000
  H   H37       1.0  0.46020  0.19272  0.13216  1.0000
  H   H38       1.0  0.46938  0.23472  0.24380  1.0000
  H   H39       1.0  0.46750  0.25269  0.19637  1.0000
  C   C23       1.0  0.49754  0.20759  0.18537  1.0000
  H   H40       1.0  0.43281  0.21337  0.15247  1.0000
  C   C24       1.0  0.45909  0.18751  0.21378  1.0000
  C   C25       1.0  0.46049  0.23507  0.21259  1.0000
  H   H41       1.0  0.43689  0.18878  0.21741  1.0000
  H   H42       1.0  0.50494  0.22409  0.16687  1.0000
  C   C26       1.0  0.53511  0.18371  0.28257  1.0000
  H   H43       1.0  0.55106  0.13124  0.22021  1.0000
  C   C27       1.0  0.55376  0.14843  0.23892  1.0000
  C   C28       1.0  0.56062  0.19324  0.28660  1.0000
  H   H44       1.0  0.54934  0.10846  0.30190  1.0000
  S   S11       1.0  0.50466  0.14246  0.49087  1.0000
  C   C29       1.0  0.43570  0.08114  0.25530  1.0000
  H   H45       1.0  0.41467  0.20370  0.33970  1.0000
  C   C30       1.0  0.38698  0.17547  0.31991  1.0000
  S   S12       1.0  0.39094  0.15597  0.36380  1.0000
  H   H46       1.0  0.40786  0.11001  0.31166  1.0000
  H   H47       1.0  0.39824  0.07646  0.31316  1.0000
  C   C31       1.0  0.40186  0.19775  0.31524  1.0000
  S   S13       1.0  0.51165  0.13901  0.37699  1.0000
  H   H48       1.0  0.43845  0.07673  0.36597  1.0000
  H   H49       1.0  0.44730  0.15142  0.50618  1.0000
  S   S14       1.0  0.50737  0.20050  0.30585  1.0000
  H   H50       1.0  0.56331  0.21068  0.30484  1.0000
  Fe  Fe5       1.0  0.48739  0.17181  0.34588  1.0000
  C   C32       1.0  0.56629  0.10197  0.32238  1.0000
  Fe  Fe6       1.0  0.48408  0.14741  0.43009  1.0000
  Fe  Fe7       1.0  0.48020  0.11320  0.35501  1.0000
  S   S15       1.0  0.46212  0.18289  0.40070  1.0000
  C   C33       1.0  0.45730  0.14566  0.53439  1.0000
  H   H51       1.0  0.45803  0.08840  0.55034  1.0000
  H   H52       1.0  0.48200  0.08811  0.48339  1.0000
  H   H53       1.0  0.55786  0.10050  0.35364  1.0000
  Fe  Fe8       1.0  0.43504  0.15300  0.37573  1.0000
  S   S16       1.0  0.45441  0.11882  0.41044  1.0000
  C   C34       1.0  0.48507  0.13992  0.53486  1.0000
  H   H54       1.0  0.37859  0.08439  0.74578  1.0000
  H   H55       1.0  0.39689  0.08469  0.67576  1.0000
  H   H56       1.0  0.41167  0.08365  0.76675  1.0000
  Fe  Fe9       1.0  0.45589  0.13735  0.80446  1.0000
  C   C35       1.0  0.55912  0.23530  0.74063  1.0000
  C   C36       1.0  0.56492  0.18757  0.73478  1.0000
  H   H57       1.0  0.43038  0.08387  0.69490  1.0000
  Fe  Fe10      1.0  0.49794  0.17014  0.76645  1.0000
  S   S17       1.0  0.45310  0.17096  0.75950  1.0000
  Fe  Fe11      1.0  0.50503  0.11109  0.76160  1.0000
  S   S18       1.0  0.46107  0.10683  0.75548  1.0000
  N   N4        1.0  0.50196  0.20991  0.63395  1.0000
  Fe  Fe12      1.0  0.46180  0.14030  0.71126  1.0000
  S   S19       1.0  0.43729  0.13867  0.65355  1.0000
  S   S20       1.0  0.50637  0.14276  0.71405  1.0000
  C   C37       1.0  0.49239  0.21069  0.59131  1.0000
  C   C38       1.0  0.48315  0.13136  0.60765  1.0000
  H   H58       1.0  0.49835  0.09192  0.68594  1.0000
  C   C39       1.0  0.45557  0.13795  0.60769  1.0000
  H   H59       1.0  0.49324  0.12551  0.63553  1.0000
  C   C40       1.0  0.48006  0.20246  0.66118  1.0000
  H   H60       1.0  0.47339  0.18251  0.65367  1.0000
  C   C41       1.0  0.52500  0.19019  0.63765  1.0000
  H   H61       1.0  0.48650  0.20200  0.69367  1.0000
  H   H62       1.0  0.46219  0.21671  0.65887  1.0000
  C   C42       1.0  0.54943  0.21033  0.74702  1.0000
  H   H63       1.0  0.49367  0.25173  0.64323  1.0000
  H   H64       1.0  0.51952  0.17012  0.62848  1.0000
  H   H65       1.0  0.53230  0.18874  0.66956  1.0000
  H   H66       1.0  0.48556  0.19112  0.58173  1.0000
  S   S21       1.0  0.51727  0.20888  0.76832  1.0000
  C   C43       1.0  0.51046  0.23625  0.64585  1.0000
  H   H67       1.0  0.47514  0.22552  0.58722  1.0000
  H   H68       1.0  0.50853  0.21583  0.56981  1.0000
  C   C44       1.0  0.49788  0.13245  0.57141  1.0000
  H   H69       1.0  0.42116  0.14972  0.57070  1.0000
  C   C45       1.0  0.44256  0.14468  0.57087  1.0000
  H   H70       1.0  0.54217  0.19548  0.61824  1.0000
  H   H71       1.0  0.52732  0.24239  0.62651  1.0000
  H   H72       1.0  0.51747  0.23620  0.67812  1.0000
  H   H73       1.0  0.51934  0.12774  0.57177  1.0000
  H   H74       1.0  0.55767  0.16818  0.74017  1.0000
  H   H75       1.0  0.54732  0.25291  0.75023  1.0000
  S   S22       1.0  0.42210  0.13033  0.84849  1.0000
  C   C46       1.0  0.08941  0.31747  0.99221  1.0000
  C   C47       1.0  0.10250  0.31368  0.02989  1.0000
  H   H76       1.0  0.12369  0.31651  0.03229  1.0000
  H   H77       1.0  0.10057  0.32342  0.96579  1.0000
  H   H78       1.0  0.22788  0.32316  0.03707  1.0000
  H   H79       1.0  0.37008  0.09995  0.01631  1.0000
  C   C48       1.0  0.44455  0.15849  0.91009  1.0000
  N   N5        1.0  0.39532  0.07861  0.97280  1.0000
  C   C49       1.0  0.41945  0.09179  0.98582  1.0000
  H   H80       1.0  0.35243  0.08589  0.97477  1.0000
  H   H81       1.0  0.23879  0.31921  0.98521  1.0000
  H   H82       1.0  0.37828  0.16536  0.97248  1.0000
  H   H83       1.0  0.37932  0.14353  0.90460  1.0000
  C   C50       1.0  0.39681  0.16323  0.95540  1.0000
  C   C51       1.0  0.39743  0.15093  0.91699  1.0000
  H   H84       1.0  0.37066  0.11488  0.96685  1.0000
  C   C52       1.0  0.37105  0.09557  0.98310  1.0000
  H   H85       1.0  0.39734  0.09321  0.91124  1.0000
  H   H86       1.0  0.30742  0.07919  0.02395  1.0000
  H   H87       1.0  0.41905  0.09597  0.01913  1.0000
  S   S23       1.0  0.34960  0.15862  0.05416  1.0000
  C   C53       1.0  0.42137  0.14823  0.89449  1.0000
  C   C54       1.0  0.44393  0.17078  0.94849  1.0000
  H   H88       1.0  0.43815  0.07942  0.97898  1.0000
  S   S24       1.0  0.50034  0.13861  0.81521  1.0000
  H   H89       1.0  0.46201  0.17843  0.96060  1.0000
  C   C55       1.0  0.42017  0.17290  0.97145  1.0000
  S   S25       1.0  0.42051  0.18715  0.02037  1.0000
  H   H90       1.0  0.46307  0.15658  0.89290  1.0000
  H   H91       1.0  0.42105  0.11108  0.96985  1.0000
  C   C56       1.0  0.39640  0.07419  0.92828  1.0000
  Fe  Fe13      1.0  0.15681  0.36342  0.18572  1.0000
  S   S26       1.0  0.14053  0.37783  0.24654  1.0000
  S   S27       1.0  0.18958  0.37777  0.14627  1.0000
  S   S28       1.0  0.12647  0.36720  0.13563  1.0000
  C   C57       1.0  0.16110  0.39376  0.28108  1.0000
  C   C58       1.0  0.18620  0.40187  0.26931  1.0000
  H   H92       1.0  0.21985  0.42418  0.28625  1.0000
  N   N6        1.0  0.12603  0.46666  0.23937  1.0000
  C   C59       1.0  0.20073  0.41737  0.29582  1.0000
  H   H93       1.0  0.19413  0.39679  0.23946  1.0000
  H   H94       1.0  0.16391  0.48373  0.24900  1.0000
  C   C60       1.0  0.11213  0.49186  0.22578  1.0000
  C   C61       1.0  0.13586  0.45124  0.20351  1.0000
  H   H95       1.0  0.15005  0.46235  0.18494  1.0000
  H   H96       1.0  0.11902  0.44617  0.18342  1.0000
  C   C62       1.0  0.14894  0.47239  0.26562  1.0000
  H   H97       1.0  0.12564  0.50400  0.20765  1.0000
  H   H98       1.0  0.14666  0.43221  0.21287  1.0000
  H   H99       1.0  0.14233  0.48398  0.29303  1.0000
  H   H100      1.0  0.15953  0.45383  0.27679  1.0000
  H   H101      1.0  0.10463  0.50397  0.25222  1.0000
  C   C63       1.0  0.10714  0.45112  0.26265  1.0000
  H   H102      1.0  0.11623  0.43120  0.27096  1.0000
  Fe  Fe14      1.0  0.16005  0.37737  0.09492  1.0000
  H   H103      1.0  0.09431  0.48831  0.20667  1.0000
  Fe  Fe15      1.0  0.19818  0.33465  0.13063  1.0000
  H   H104      1.0  0.08873  0.44811  0.24472  1.0000
  S   S29       1.0  0.17089  0.33546  0.07622  1.0000
  H   H105      1.0  0.10077  0.46117  0.29151  1.0000
  H   H106      1.0  0.09439  0.39913  0.07470  1.0000
  H   H107      1.0  0.08331  0.37496  0.21727  1.0000
  H   H108      1.0  0.23118  0.36625  0.07199  1.0000
  H   H109      1.0  0.10728  0.33404  0.24345  1.0000
  C   C64       1.0  0.15103  0.40044  0.31995  1.0000
  C   C65       1.0  0.17957  0.55415  0.42975  1.0000
  Fe  Fe16      1.0  0.13920  0.32521  0.12113  1.0000
  H   H110      1.0  0.08772  0.34396  0.44113  1.0000
  S   S30       1.0  0.19820  0.42485  0.47871  1.0000
  H   H111      1.0  0.10354  0.51211  0.43976  1.0000
  N   N7        1.0  0.09027  0.54483  0.40124  1.0000
  H   H112      1.0  0.10746  0.50597  0.38606  1.0000
  C   C66       1.0  0.10521  0.37394  0.47725  1.0000
  H   H113      1.0  0.09737  0.54258  0.33665  1.0000
  H   H114      1.0  0.13165  0.39411  0.32935  1.0000
  S   S31       1.0  0.17163  0.47095  0.54037  1.0000
  C   C67       1.0  0.10852  0.52135  0.41009  1.0000
  C   C68       1.0  0.09137  0.36476  0.44354  1.0000
  C   C69       1.0  0.16437  0.56196  0.46403  1.0000
  H   H115      1.0  0.18329  0.53336  0.42274  1.0000
  C   C70       1.0  0.19026  0.42478  0.33418  1.0000
  H   H116      1.0  0.10413  0.43924  0.45209  1.0000
  C   C71       1.0  0.16556  0.41591  0.34647  1.0000
  Fe  Fe17      1.0  0.16864  0.49735  0.48550  1.0000
  H   H117      1.0  0.08034  0.42290  0.39211  1.0000
  S   S32       1.0  0.20722  0.44717  0.36415  1.0000
  H   H118      1.0  0.12974  0.52674  0.41210  1.0000
  C   C72       1.0  0.08699  0.40928  0.41597  1.0000
  Fe  Fe18      1.0  0.19287  0.45497  0.42857  1.0000
  S   S33       1.0  0.21074  0.48722  0.46470  1.0000
  C   C73       1.0  0.10093  0.41843  0.44956  1.0000
  H   H119      1.0  0.11241  0.36020  0.50071  1.0000
  S   S34       1.0  0.15051  0.53853  0.49593  1.0000
  C   C74       1.0  0.09823  0.55684  0.36230  1.0000
  Fe  Fe19      1.0  0.15712  0.44029  0.49835  1.0000
  Fe  Fe20      1.0  0.21229  0.45812  0.51641  1.0000
  C   C75       1.0  0.08223  0.38243  0.41294  1.0000
  C   C76       1.0  0.11021  0.40074  0.48003  1.0000
  S   S35       1.0  0.15037  0.46782  0.44505  1.0000
  H   H120      1.0  0.15737  0.42142  0.37602  1.0000
  S   S36       1.0  0.12786  0.41213  0.52179  1.0000
  H   H121      1.0  0.08840  0.55535  0.46481  1.0000
  H   H122      1.0  0.20169  0.56727  0.37767  1.0000
  C   C77       1.0  0.09200  0.56434  0.43447  1.0000
  H   H123      1.0  0.11210  0.57250  0.43544  1.0000
  H   H124      1.0  0.11902  0.56355  0.36384  1.0000
  C   C78       1.0  0.18982  0.57335  0.40406  1.0000
  S   S37       1.0  0.24949  0.45291  0.55471  1.0000
  Fe  Fe21      1.0  0.21605  0.46543  0.77548  1.0000
  S   S38       1.0  0.17793  0.48906  0.76291  1.0000
  Fe  Fe22      1.0  0.16004  0.44999  0.75775  1.0000
  S   S39       1.0  0.13451  0.44613  0.70215  1.0000
  C   C79       1.0  0.10124  0.48009  0.74583  1.0000
  H   H125      1.0  0.11368  0.47455  0.77151  1.0000
  C   C80       1.0  0.10691  0.46896  0.70768  1.0000
  C   C81       1.0  0.13268  0.53661  0.79110  1.0000
  C   C82       1.0  0.12927  0.55307  0.75689  1.0000
  H   H126      1.0  0.12670  0.51658  0.79011  1.0000
  H   H127      1.0  0.12040  0.54563  0.72951  1.0000
  C   C83       1.0  0.22603  0.46748  0.67163  1.0000
  C   C84       1.0  0.22529  0.46232  0.62951  1.0000
  H   H128      1.0  0.20789  0.46739  0.68957  1.0000
  H   H129      1.0  0.20664  0.45848  0.61485  1.0000
  H   H130      1.0  0.09543  0.46839  0.64445  1.0000
  S   S40       1.0  0.19903  0.42616  0.76523  1.0000
  C   C85       1.0  0.09081  0.47654  0.67429  1.0000
  N   N8        1.0  0.16882  0.53131  0.63661  1.0000
  C   C86       1.0  0.18798  0.52922  0.60219  1.0000
  C   C87       1.0  0.14806  0.55281  0.62819  1.0000
  C   C88       1.0  0.18333  0.53723  0.67440  1.0000
  C   C89       1.0  0.15582  0.50605  0.64163  1.0000
  N   N9        1.0  0.17919  0.39176  0.62429  1.0000
  H   H131      1.0  0.14439  0.50108  0.61389  1.0000
  H   H132      1.0  0.14152  0.50692  0.66775  1.0000
  H   H133      1.0  0.17076  0.48926  0.64772  1.0000
  H   H134      1.0  0.21169  0.40541  0.66010  1.0000
  H   H135      1.0  0.19949  0.52161  0.68117  1.0000
  H   H136      1.0  0.14328  0.41717  0.61649  1.0000
  C   C90       1.0  0.18936  0.40706  0.65861  1.0000
  H   H137      1.0  0.18286  0.42843  0.65590  1.0000
  C   C91       1.0  0.14963  0.39598  0.62251  1.0000
  H   H138      1.0  0.20384  0.51303  0.60709  1.0000
  H   H139      1.0  0.18147  0.40022  0.68830  1.0000
  C   C92       1.0  0.07904  0.49801  0.75126  1.0000
  H   H140      1.0  0.13279  0.55443  0.65296  1.0000
  H   H141      1.0  0.16955  0.53850  0.70106  1.0000
  H   H142      1.0  0.13745  0.54942  0.59900  1.0000
  H   H143      1.0  0.19269  0.55657  0.67216  1.0000
  H   H144      1.0  0.14010  0.39051  0.65178  1.0000
  H   H145      1.0  0.19815  0.54795  0.59779  1.0000
  H   H146      1.0  0.17807  0.35585  0.65921  1.0000
  C   C93       1.0  0.18677  0.36330  0.63044  1.0000
  H   H147      1.0  0.20896  0.35956  0.63221  1.0000
  H   H148      1.0  0.17951  0.35122  0.60489  1.0000
  C   C94       1.0  0.19094  0.40072  0.58567  1.0000
  H   H149      1.0  0.15694  0.57240  0.62588  1.0000
  H   H150      1.0  0.19737  0.53899  0.79876  1.0000
  H   H151      1.0  0.21328  0.39816  0.58585  1.0000
  H   H152      1.0  0.18553  0.42202  0.58010  1.0000
  H   H153      1.0  0.17769  0.52511  0.57305  1.0000
  H   H154      1.0  0.14108  0.38416  0.59771  1.0000
  C   C95       1.0  0.21383  0.54790  0.78178  1.0000
  H   H155      1.0  0.22178  0.53289  0.75930  1.0000
  H   H156      1.0  0.18350  0.38973  0.55903  1.0000
  H   H157      1.0  0.20480  0.56531  0.76467  1.0000
  H   H158      1.0  0.26586  0.55161  0.76402  1.0000
  C   C96       1.0  0.24897  0.46148  0.60657  1.0000
  C   C97       1.0  0.25033  0.47268  0.69044  1.0000
  C   C98       1.0  0.27316  0.46655  0.62554  1.0000
  H   H159      1.0  0.29261  0.47643  0.68152  1.0000
  C   C99       1.0  0.27378  0.47254  0.66717  1.0000
  S   S41       1.0  0.25186  0.47935  0.74292  1.0000
  H   H160      1.0  0.29156  0.46579  0.60795  1.0000
  C   C100      1.0  0.25699  0.56645  0.78610  1.0000
  H   H161      1.0  0.27344  0.57238  0.80629  1.0000
  S   S42       1.0  0.14840  0.44843  0.82395  1.0000
  C   C101      1.0  0.14500  0.54556  0.82614  1.0000
  C   C102      1.0  0.23285  0.37568  0.04148  1.0000
  C   C103      1.0  0.15229  0.57173  0.82810  1.0000
  H   H162      1.0  0.09456  0.42845  0.04416  1.0000
  H   H163      1.0  0.21221  0.38258  0.03186  1.0000
  H   H164      1.0  0.22751  0.37769  0.96023  1.0000
  Fe  Fe23      1.0  0.18920  0.42791  0.83218  1.0000
  Fe  Fe24      1.0  0.17021  0.48559  0.82980  1.0000
  S   S43       1.0  0.21036  0.46509  0.84330  1.0000
  H   H165      1.0  0.10512  0.40058  0.98309  1.0000
  H   H166      1.0  0.10499  0.37167  0.01463  1.0000
  S   S44       1.0  0.15297  0.41199  0.05227  1.0000
  H   H167      1.0  0.17608  0.35612  0.93365  1.0000
  S   S45       1.0  0.19292  0.39157  0.87184  1.0000
  H   H168      1.0  0.16008  0.36385  0.00439  1.0000
  C   C104      1.0  0.16470  0.38044  0.98559  1.0000
  C   C105      1.0  0.17348  0.37610  0.94540  1.0000
  C   C106      1.0  0.17923  0.39752  0.92046  1.0000
  C   C107      1.0  0.16187  0.40620  0.00109  1.0000
  S   S46       1.0  0.15635  0.52264  0.86327  1.0000
  C   C108      1.0  0.17521  0.42337  0.93533  1.0000
  C   C109      1.0  0.16654  0.42768  0.97562  1.0000
  H   H169      1.0  0.16409  0.44769  0.98729  1.0000
  H   H170      1.0  0.17945  0.44002  0.91615  1.0000
  C   C110      1.0  0.09195  0.38573  0.99605  1.0000
  N   N10       1.0  0.24576  0.35706  0.01161  1.0000
  H   H171      1.0  0.20895  0.33953  0.99675  1.0000
  C   C111      1.0  0.22963  0.33373  0.00744  1.0000
  H   H172      1.0  0.20801  0.56772  0.85827  1.0000
  H   H173      1.0  0.22942  0.52314  0.85089  1.0000
  H   H174      1.0  0.08392  0.37439  0.97023  1.0000
  C   C112      1.0  0.08161  0.41279  0.05520  1.0000
  H   H175      1.0  0.25412  0.51614  0.81198  1.0000
  H   H176      1.0  0.28323  0.33406  0.00432  1.0000
  C   C113      1.0  0.24763  0.37046  0.97167  1.0000
  H   H177      1.0  0.24440  0.39357  0.04537  1.0000
  N   N11       1.0  0.23507  0.55555  0.80986  1.0000
  H   H178      1.0  0.27225  0.33825  0.05608  1.0000
  C   C114      1.0  0.24558  0.53190  0.83282  1.0000
  H   H179      1.0  0.25678  0.35688  0.94810  1.0000
  H   H180      1.0  0.26166  0.53682  0.85439  1.0000
  H   H181      1.0  0.25992  0.38799  0.97355  1.0000
  C   C115      1.0  0.27298  0.34834  0.02592  1.0000
  H   H182      1.0  0.28576  0.36539  0.02946  1.0000
  C   C116      1.0  0.16229  0.71131  0.22315  1.0000
  C   C117      1.0  0.15632  0.73103  0.19381  1.0000
  C   C118      1.0  0.16735  0.71826  0.26374  1.0000
  H   H183      1.0  0.17271  0.70303  0.28607  1.0000
  H   H184      1.0  0.16374  0.69066  0.21426  1.0000
  S   S47       1.0  0.15219  0.72222  0.14258  1.0000
  H   H185      1.0  0.15816  0.78524  0.25465  1.0000
  H   H186      1.0  0.14887  0.77289  0.18339  1.0000
  C   C119      1.0  0.15431  0.75762  0.20546  1.0000
  C   C120      1.0  0.15931  0.76456  0.24590  1.0000
  C   C121      1.0  0.16619  0.74496  0.27496  1.0000
  S   S48       1.0  0.17340  0.79389  0.11367  1.0000
  Fe  Fe25      1.0  0.16000  0.75404  0.09660  1.0000
  H   H187      1.0  0.21549  0.74516  0.23112  1.0000
  H   H188      1.0  0.20503  0.74433  0.15729  1.0000
  C   C122      1.0  0.10185  0.72516  0.30829  1.0000
  H   H189      1.0  0.09114  0.73792  0.12237  1.0000
  H   H190      1.0  0.10158  0.74718  0.30760  1.0000
  H   H191      1.0  0.09650  0.73668  0.17624  1.0000
  C   C123      1.0  0.22567  0.78809  0.18630  1.0000
  H   H192      1.0  0.20402  0.78712  0.19383  1.0000
  H   H193      1.0  0.08643  0.78653  0.12527  1.0000
  Fe  Fe26      1.0  0.14318  0.80945  0.06782  1.0000
  H   H194      1.0  0.09101  0.78619  0.17931  1.0000
  H   H195      1.0  0.10217  0.71793  0.27629  1.0000
  H   H196      1.0  0.22707  0.79904  0.15690  1.0000
  C   C124      1.0  0.22677  0.74604  0.15137  1.0000
  H   H197      1.0  0.22861  0.75564  0.12102  1.0000
  C   C125      1.0  0.08067  0.73739  0.15235  1.0000
  H   H198      1.0  0.08474  0.57450  0.35444  1.0000
  H   H199      1.0  0.08038  0.67822  0.30033  1.0000
  Fe  Fe27      1.0  0.20136  0.78892  0.06050  1.0000
  C   C126      1.0  0.23688  0.74752  0.22321  1.0000
  H   H200      1.0  0.24715  0.72732  0.22259  1.0000
  H   H201      1.0  0.23620  0.72556  0.14900  1.0000
  H   H202      1.0  0.24566  0.75868  0.24857  1.0000
  H   H203      1.0  0.27889  0.74383  0.17126  1.0000
  N   N12       1.0  0.23932  0.76131  0.18371  1.0000
  C   C127      1.0  0.26796  0.76365  0.17383  1.0000
  H   H204      1.0  0.27033  0.77412  0.14419  1.0000
  H   H205      1.0  0.27812  0.77505  0.19758  1.0000
  H   H206      1.0  0.23470  0.80020  0.21030  1.0000
  H   H207      1.0  0.29389  0.82384  0.07640  1.0000
  S   S49       1.0  0.24486  0.79768  0.06822  1.0000
  H   H208      1.0  0.09852  0.67812  0.34763  1.0000
  H   H209      1.0  0.07706  0.58141  0.43052  1.0000
  H   H210      1.0  0.23550  0.59321  0.48113  1.0000
  H   H211      1.0  0.12123  0.71805  0.32239  1.0000
  C   C128      1.0  0.22236  0.69946  0.55705  1.0000
  H   H212      1.0  0.20352  0.70466  0.54196  1.0000
  C   C129      1.0  0.09583  0.68092  0.45941  1.0000
  C   C130      1.0  0.09878  0.64046  0.41989  1.0000
  H   H213      1.0  0.11095  0.62475  0.40518  1.0000
  S   S50       1.0  0.17411  0.75478  0.32442  1.0000
  C   C131      1.0  0.11107  0.65963  0.44244  1.0000
  S   S51       1.0  0.15376  0.69118  0.38276  1.0000
  Fe  Fe28      1.0  0.15234  0.70443  0.44797  1.0000
  S   S52       1.0  0.18693  0.67713  0.46803  1.0000
  Fe  Fe29      1.0  0.19054  0.66657  0.40190  1.0000
  S   S53       1.0  0.19901  0.62428  0.38157  1.0000
  S   S54       1.0  0.21846  0.69827  0.38661  1.0000
  Fe  Fe30      1.0  0.21183  0.71078  0.45166  1.0000
  H   H214      1.0  0.13253  0.65859  0.44540  1.0000
  C   C132      1.0  0.15938  0.58890  0.47245  1.0000
  C   C133      1.0  0.16972  0.60797  0.44690  1.0000
  C   C134      1.0  0.18491  0.60036  0.41262  1.0000
  H   H215      1.0  0.14751  0.59509  0.49877  1.0000
  H   H216      1.0  0.16614  0.62856  0.45405  1.0000
  Fe  Fe31      1.0  0.18103  0.72401  0.37378  1.0000
  S   S55       1.0  0.17680  0.73927  0.43783  1.0000
  S   S56       1.0  0.11237  0.70737  0.47923  1.0000
  H   H217      1.0  0.23128  0.64451  0.53257  1.0000
  H   H218      1.0  0.22073  0.62496  0.46596  1.0000
  C   C135      1.0  0.23994  0.61261  0.46745  1.0000
  H   H219      1.0  0.09801  0.71822  0.38971  1.0000
  C   C136      1.0  0.08020  0.68651  0.33170  1.0000
  H   H220      1.0  0.08227  0.69051  0.54502  1.0000
  H   H221      1.0  0.10302  0.73502  0.55328  1.0000
  N   N13       1.0  0.07879  0.71581  0.33129  1.0000
  C   C137      1.0  0.07942  0.72572  0.37360  1.0000
  H   H222      1.0  0.07874  0.74774  0.37458  1.0000
  H   H223      1.0  0.24659  0.60891  0.43542  1.0000
  H   H224      1.0  0.29345  0.60472  0.46193  1.0000
  H   H225      1.0  0.28946  0.70492  0.54544  1.0000
  H   H226      1.0  0.24513  0.61251  0.54860  1.0000
  S   S57       1.0  0.24724  0.71978  0.48990  1.0000
  C   C138      1.0  0.24652  0.70587  0.53894  1.0000
  C   C139      1.0  0.24990  0.63113  0.53286  1.0000
  H   H227      1.0  0.26485  0.64078  0.55192  1.0000
  H   H228      1.0  0.24659  0.66457  0.46873  1.0000
  N   N14       1.0  0.26015  0.62604  0.49114  1.0000
  H   H229      1.0  0.27320  0.64849  0.43970  1.0000
  H   H230      1.0  0.30101  0.61875  0.51056  1.0000
  C   C140      1.0  0.28532  0.60904  0.49300  1.0000
  H   H231      1.0  0.27992  0.66265  0.48868  1.0000
  C   C141      1.0  0.26529  0.65147  0.47119  1.0000
  H   H232      1.0  0.28213  0.58973  0.50804  1.0000
  Fe  Fe32      1.0  0.15983  0.69127  0.72423  1.0000
  S   S58       1.0  0.20256  0.69481  0.74342  1.0000
  S   S59       1.0  0.12610  0.72250  0.71919  1.0000
  Fe  Fe33      1.0  0.16418  0.63174  0.72351  1.0000
  S   S60       1.0  0.20727  0.62898  0.74267  1.0000
  S   S61       1.0  0.14012  0.59660  0.71217  1.0000
  Fe  Fe34      1.0  0.19514  0.66153  0.78651  1.0000
  Fe  Fe35      1.0  0.21148  0.66218  0.69791  1.0000
  S   S62       1.0  0.15172  0.66102  0.77175  1.0000
  S   S63       1.0  0.16936  0.66179  0.67449  1.0000
  C   C142      1.0  0.09889  0.67767  0.71901  1.0000
  H   H233      1.0  0.11625  0.66827  0.70419  1.0000
  C   C143      1.0  0.09775  0.70475  0.72770  1.0000
  H   H234      1.0  0.20395  0.68117  0.60860  1.0000
  C   C144      1.0  0.22258  0.68640  0.59498  1.0000
  H   H235      1.0  0.15745  0.60738  0.79421  1.0000
  H   H236      1.0  0.12132  0.69431  0.58752  1.0000
  C   C145      1.0  0.08949  0.73888  0.57988  1.0000
  C   C146      1.0  0.10749  0.69918  0.61351  1.0000
  H   H237      1.0  0.11863  0.71103  0.63554  1.0000
  C   C147      1.0  0.14992  0.58791  0.79338  1.0000
  H   H238      1.0  0.10314  0.68031  0.62883  1.0000
  H   H239      1.0  0.09999  0.75165  0.60142  1.0000
  H   H240      1.0  0.07968  0.59210  0.69986  1.0000
  H   H241      1.0  0.07955  0.64130  0.72444  1.0000
  C   C148      1.0  0.13902  0.57833  0.75745  1.0000
  N   N15       1.0  0.08260  0.71389  0.59959  1.0000
  C   C149      1.0  0.07786  0.66232  0.73018  1.0000
  C   C150      1.0  0.24700  0.67944  0.61440  1.0000
  S   S64       1.0  0.24847  0.65999  0.65882  1.0000
  H   H242      1.0  0.28992  0.68114  0.61159  1.0000
  C   C151      1.0  0.27103  0.68638  0.59658  1.0000
  H   H243      1.0  0.24969  0.58434  0.76847  1.0000
  H   H244      1.0  0.28654  0.81738  0.95353  1.0000
  H   H245      1.0  0.47373  0.81747  0.60251  1.0000
  H   H246      1.0  0.50055  0.82032  0.66633  1.0000
  C   C152      1.0  0.08140  0.78404  0.90775  1.0000
  H   H247      1.0  0.23949  0.58283  0.85936  1.0000
  H   H248      1.0  0.09270  0.66092  0.81933  1.0000
  H   H249      1.0  0.07894  0.71907  0.83410  1.0000
  H   H250      1.0  0.08503  0.70887  0.92636  1.0000
  H   H251      1.0  0.16136  0.57891  0.85548  1.0000
  H   H252      1.0  0.10381  0.79499  0.97876  1.0000
  C   C153      1.0  0.19094  0.68774  0.87789  1.0000
  H   H253      1.0  0.08272  0.76679  0.92900  1.0000
  H   H254      1.0  0.21457  0.59352  0.82255  1.0000
  H   H255      1.0  0.15201  0.74410  0.85828  1.0000
  Fe  Fe36      1.0  0.15870  0.76721  0.00607  1.0000
  C   C154      1.0  0.16464  0.73106  0.91824  1.0000
  H   H256      1.0  0.11650  0.65628  0.90553  1.0000
  H   H257      1.0  0.10020  0.78296  0.88935  1.0000
  H   H258      1.0  0.12027  0.81235  0.93965  1.0000
  H   H259      1.0  0.08437  0.80843  0.04347  1.0000
  H   H260      1.0  0.07704  0.64825  0.86397  1.0000
  S   S65       1.0  0.12729  0.76999  0.05510  1.0000
  C   C155      1.0  0.16323  0.72899  0.87577  1.0000
  S   S66       1.0  0.17225  0.80823  0.01580  1.0000
  C   C156      1.0  0.17627  0.70738  0.85566  1.0000
  C   C157      1.0  0.10124  0.81201  0.95732  1.0000
  C   C158      1.0  0.09803  0.70992  0.84679  1.0000
  S   S67       1.0  0.14571  0.75694  0.94259  1.0000
  H   H261      1.0  0.17489  0.70593  0.82291  1.0000
  C   C159      1.0  0.19273  0.69000  0.92035  1.0000
  N   N16       1.0  0.09329  0.68631  0.87177  1.0000
  H   H262      1.0  0.18060  0.71299  0.97337  1.0000
  S   S68       1.0  0.19038  0.74746  0.04642  1.0000
  H   H263      1.0  0.20403  0.67484  0.93767  1.0000
  H   H264      1.0  0.12932  0.68855  0.90709  1.0000
  S   S69       1.0  0.20599  0.65988  0.85283  1.0000
  H   H265      1.0  0.11165  0.70485  0.82058  1.0000
  H   H266      1.0  0.13329  0.66888  0.86187  1.0000
  H   H267      1.0  0.10743  0.72529  0.86509  1.0000
  C   C160      1.0  0.11919  0.67448  0.88724  1.0000
  C   C161      1.0  0.17960  0.71166  0.94055  1.0000
  C   C162      1.0  0.08028  0.66667  0.84653  1.0000
  C   C163      1.0  0.22381  0.57578  0.83872  1.0000
  N   N17       1.0  0.07792  0.80932  0.93029  1.0000
  C   C164      1.0  0.27077  0.69981  0.55918  1.0000
  C   C165      1.0  0.23560  0.87796  0.06755  1.0000
  H   H268      1.0  0.23745  0.96802  0.10522  1.0000
  S   S70       1.0  0.11729  0.84586  0.08303  1.0000
  C   C166      1.0  0.08272  0.84189  0.08383  1.0000
  H   H269      1.0  0.21923  0.02718  0.11129  1.0000
  C   C167      1.0  0.22494  0.01841  0.08118  1.0000
  H   H270      1.0  0.20936  0.00464  0.07265  1.0000
  H   H271      1.0  0.21924  0.89302  0.06523  1.0000
  H   H272      1.0  0.20962  0.84554  0.06469  1.0000
  C   C168      1.0  0.23012  0.85107  0.06724  1.0000
  H   H273      1.0  0.22415  0.03479  0.05836  1.0000
  C   C169      1.0  0.25210  0.98291  0.11309  1.0000
  H   H274      1.0  0.24714  0.99058  0.14411  1.0000
  N   N18       1.0  0.25188  0.00450  0.08256  1.0000
  H   H275      1.0  0.29253  0.01359  0.09512  1.0000
  H   H276      1.0  0.26760  0.03255  0.12408  1.0000
  H   H277      1.0  0.27211  0.97190  0.11479  1.0000
  C   C170      1.0  0.39313  0.91396  0.24299  1.0000
  C   C171      1.0  0.39615  0.93399  0.16331  1.0000
  C   C172      1.0  0.37969  0.91330  0.17167  1.0000
  C   C173      1.0  0.37824  0.90324  0.21157  1.0000
  H   H278      1.0  0.36888  0.90445  0.14723  1.0000
  H   H279      1.0  0.36616  0.88671  0.21787  1.0000
  H   H280      1.0  0.37317  0.04578  0.12811  1.0000
  C   C174      1.0  0.35873  0.05309  0.10553  1.0000
  S   S71       1.0  0.32799  0.96414  0.08327  1.0000
  C   C175      1.0  0.40853  0.93542  0.23467  1.0000
  S   S72       1.0  0.40189  0.94442  0.11335  1.0000
  C   C176      1.0  0.41007  0.94537  0.19497  1.0000
  C   C177      1.0  0.34922  0.03565  0.07652  1.0000
  C   C178      1.0  0.26208  0.88542  0.07034  1.0000
  C   C179      1.0  0.28308  0.86585  0.07367  1.0000
  H   H281      1.0  0.30350  0.87148  0.07671  1.0000
  S   S73       1.0  0.26828  0.91929  0.06911  1.0000
  Fe  Fe37      1.0  0.36738  0.94212  0.07016  1.0000
  H   H282      1.0  0.35646  0.01501  0.07677  1.0000
  C   C180      1.0  0.27196  0.02344  0.09378  1.0000
  S   S74       1.0  0.39358  0.89938  0.29170  1.0000
  C   C181      1.0  0.27759  0.83893  0.07378  1.0000
  H   H283      1.0  0.39303  0.05168  0.24841  1.0000
  C   C182      1.0  0.25112  0.83149  0.07015  1.0000
  H   H284      1.0  0.27265  0.03974  0.07095  1.0000
  H   H285      1.0  0.39897  0.06759  0.20039  1.0000
  C   C183      1.0  0.39164  0.07107  0.23215  1.0000
  H   H286      1.0  0.41949  0.94425  0.25860  1.0000
  H   H287      1.0  0.44168  0.89460  0.19262  1.0000
  H   H288      1.0  0.43836  0.06225  0.27286  1.0000
  H   H289      1.0  0.42229  0.96179  0.18864  1.0000
  H   H290      1.0  0.47609  0.90428  0.14234  1.0000
  H   H291      1.0  0.45960  0.86417  0.20726  1.0000
  H   H292      1.0  0.46572  0.93738  0.19483  1.0000
  H   H293      1.0  0.49883  0.88779  0.26569  1.0000
  N   N19       1.0  0.48340  0.89818  0.20634  1.0000
  C   C184      1.0  0.45770  0.88586  0.21308  1.0000
  C   C185      1.0  0.49155  0.89486  0.16324  1.0000
  H   H294      1.0  0.45042  0.88874  0.24499  1.0000
  C   C186      1.0  0.50430  0.88536  0.23300  1.0000
  H   H295      1.0  0.52394  0.89429  0.22890  1.0000
  H   H296      1.0  0.49947  0.93635  0.21387  1.0000
  H   H297      1.0  0.50739  0.86375  0.22687  1.0000
  H   H298      1.0  0.47241  0.93006  0.24756  1.0000
  C   C187      1.0  0.48008  0.92674  0.21598  1.0000
  H   H299      1.0  0.49434  0.87354  0.15490  1.0000
  H   H300      1.0  0.51077  0.90412  0.15707  1.0000
  H   H301      1.0  0.57126  0.94369  0.27442  1.0000
  S   S75       1.0  0.51795  0.93835  0.30265  1.0000
  C   C188      1.0  0.57056  0.92443  0.28872  1.0000
  H   H302      1.0  0.54329  0.06205  0.28458  1.0000
  C   C189      1.0  0.54658  0.91665  0.30554  1.0000
  H   H303      1.0  0.56872  0.03661  0.29745  1.0000
  H   H304      1.0  0.35072  0.96882  0.52732  1.0000
  H   H305      1.0  0.33109  0.91252  0.51967  1.0000
  C   C190      1.0  0.34639  0.96071  0.49666  1.0000
  H   H306      1.0  0.39706  0.95247  0.47126  1.0000
  H   H307      1.0  0.35231  0.97547  0.47358  1.0000
  H   H308      1.0  0.36140  0.93824  0.42490  1.0000
  C   C191      1.0  0.35496  0.92464  0.44929  1.0000
  H   H309      1.0  0.36555  0.90489  0.44372  1.0000
  H   H310      1.0  0.33311  0.92235  0.44537  1.0000
  N   N20       1.0  0.36106  0.93471  0.49029  1.0000
  C   C192      1.0  0.39017  0.93779  0.49366  1.0000
  H   H311      1.0  0.40183  0.91870  0.48774  1.0000
  H   H312      1.0  0.32432  0.95920  0.49438  1.0000
  H   H313      1.0  0.39569  0.94454  0.52463  1.0000
  C   C193      1.0  0.41331  0.86641  0.54700  1.0000
  H   H314      1.0  0.36409  0.89608  0.51818  1.0000
  C   C194      1.0  0.35287  0.91573  0.52156  1.0000
  H   H315      1.0  0.45580  0.07022  0.46096  1.0000
  H   H316      1.0  0.35699  0.92282  0.55292  1.0000
  H   H317      1.0  0.43183  0.07147  0.52628  1.0000
  H   H318      1.0  0.48991  0.05717  0.45777  1.0000
  H   H319      1.0  0.44277  0.02812  0.49233  1.0000
  C   C195      1.0  0.49750  0.05110  0.53875  1.0000
  S   S76       1.0  0.41916  0.91432  0.40105  1.0000
  H   H320      1.0  0.42424  0.83852  0.49920  1.0000
  Fe  Fe38      1.0  0.42614  0.91168  0.33369  1.0000
  C   C196      1.0  0.42827  0.85723  0.51314  1.0000
  C   C197      1.0  0.45302  0.89681  0.51447  1.0000
  C   C198      1.0  0.44529  0.01305  0.39949  1.0000
  C   C199      1.0  0.56894  0.87453  0.32518  1.0000
  C   C200      1.0  0.43408  0.03889  0.39440  1.0000
  H   H321      1.0  0.51324  0.04000  0.52042  1.0000
  H   H322      1.0  0.46806  0.90881  0.50146  1.0000
  H   H323      1.0  0.47691  0.01527  0.48828  1.0000
  C   C201      1.0  0.55943  0.05627  0.30689  1.0000
  C   C202      1.0  0.54569  0.89167  0.32376  1.0000
  H   H324      1.0  0.46016  0.01533  0.53681  1.0000
  S   S77       1.0  0.44510  0.95043  0.33036  1.0000
  N   N21       1.0  0.47162  0.05358  0.51684  1.0000
  C   C203      1.0  0.47281  0.04986  0.35432  1.0000
  S   S78       1.0  0.46518  0.88732  0.33910  1.0000
  Fe  Fe39      1.0  0.45999  0.89349  0.40642  1.0000
  S   S79       1.0  0.48221  0.93051  0.40908  1.0000
  H   H325      1.0  0.52715  0.88556  0.33669  1.0000
  H   H326      1.0  0.41466  0.04459  0.40746  1.0000
  C   C204      1.0  0.44768  0.05717  0.37129  1.0000
  S   S80       1.0  0.46583  0.86155  0.45344  1.0000
  Fe  Fe40      1.0  0.48366  0.92654  0.34108  1.0000
  C   C205      1.0  0.47005  0.00557  0.38150  1.0000
  C   C206      1.0  0.44803  0.87249  0.49675  1.0000
  H   H327      1.0  0.47881  0.98563  0.38506  1.0000
  H   H328      1.0  0.57551  0.91619  0.42451  1.0000
  C   C207      1.0  0.48380  0.02394  0.35895  1.0000
  Fe  Fe41      1.0  0.44176  0.95101  0.39816  1.0000
  H   H329      1.0  0.57580  0.86867  0.43957  1.0000
  H   H330      1.0  0.50306  0.01804  0.34547  1.0000
  H   H331      1.0  0.54944  0.05365  0.33687  1.0000
  C   C208      1.0  0.46249  0.02692  0.50824  1.0000
  H   H332      1.0  0.56827  0.85519  0.33920  1.0000
  S   S81       1.0  0.42805  0.98965  0.42679  1.0000
  C   C209      1.0  0.43848  0.90568  0.54896  1.0000
  C   C210      1.0  0.47502  0.06791  0.47807  1.0000
  C   C211      1.0  0.45142  0.06848  0.54230  1.0000
  H   H333      1.0  0.50481  0.07093  0.54584  1.0000
  S   S82       1.0  0.49101  0.07324  0.32863  1.0000
  S   S83       1.0  0.39929  0.90177  0.60701  1.0000
  C   C212      1.0  0.38492  0.03737  0.70708  1.0000
  H   H334      1.0  0.36665  0.04946  0.69728  1.0000
  H   H335      1.0  0.39180  0.02470  0.68096  1.0000
  H   H336      1.0  0.37892  0.02391  0.73194  1.0000
  H   H337      1.0  0.38973  0.05861  0.78100  1.0000
  H   H338      1.0  0.40019  0.92018  0.79298  1.0000
  S   S84       1.0  0.40742  0.96884  0.66493  1.0000
  S   S85       1.0  0.39189  0.97686  0.77889  1.0000
  C   C213      1.0  0.39609  0.07096  0.75499  1.0000
  N   N22       1.0  0.40623  0.05427  0.72065  1.0000
  H   H339      1.0  0.56651  0.06578  0.67643  1.0000
  H   H340      1.0  0.47167  0.06895  0.63586  1.0000
  C   C214      1.0  0.41847  0.89057  0.56504  1.0000
  H   H341      1.0  0.57494  0.02904  0.72628  1.0000
  C   C215      1.0  0.50915  0.83827  0.65334  1.0000
  Fe  Fe42      1.0  0.41762  0.95752  0.72950  1.0000
  H   H342      1.0  0.45512  0.84354  0.66063  1.0000
  H   H343      1.0  0.46878  0.84604  0.57031  1.0000
  Fe  Fe43      1.0  0.42146  0.92713  0.64980  1.0000
  C   C216      1.0  0.42981  0.03731  0.73412  1.0000
  C   C217      1.0  0.51444  0.05630  0.71522  1.0000
  H   H344      1.0  0.45050  0.87254  0.62927  1.0000
  S   S86       1.0  0.42791  0.91460  0.71491  1.0000
  S   S87       1.0  0.46400  0.93646  0.63869  1.0000
  S   S88       1.0  0.46007  0.96909  0.72542  1.0000
  Fe  Fe44      1.0  0.45072  0.97715  0.65961  1.0000
  S   S89       1.0  0.46184  0.01396  0.62713  1.0000
  Fe  Fe45      1.0  0.46964  0.92732  0.70501  1.0000
  S   S90       1.0  0.50680  0.90171  0.71960  1.0000
  H   H345      1.0  0.51652  0.95382  0.74922  1.0000
  C   C218      1.0  0.55799  0.91046  0.69599  1.0000
  N   N23       1.0  0.48992  0.85281  0.62581  1.0000
  C   C219      1.0  0.48437  0.02992  0.65792  1.0000
  C   C220      1.0  0.50081  0.01543  0.68565  1.0000
  C   C221      1.0  0.51574  0.02865  0.71448  1.0000
  H   H346      1.0  0.50177  0.99403  0.68536  1.0000
  H   H347      1.0  0.52725  0.01749  0.73729  1.0000
  C   C222      1.0  0.53485  0.92066  0.71610  1.0000
  C   C223      1.0  0.55686  0.96088  0.73081  1.0000
  H   H348      1.0  0.55662  0.98007  0.74521  1.0000
  C   C224      1.0  0.53422  0.94598  0.73320  1.0000
  C   C225      1.0  0.50212  0.87655  0.60962  1.0000
  H   H349      1.0  0.50752  0.89007  0.63459  1.0000
  H   H350      1.0  0.55850  0.89094  0.68253  1.0000
  C   C226      1.0  0.46522  0.86093  0.64869  1.0000
  H   H351      1.0  0.46959  0.87359  0.67520  1.0000
  H   H352      1.0  0.48810  0.88807  0.58889  1.0000
  H   H353      1.0  0.43772  0.02430  0.70903  1.0000
  C   C227      1.0  0.48423  0.05753  0.65722  1.0000
  H   H354      1.0  0.52076  0.87116  0.59213  1.0000
  C   C228      1.0  0.48318  0.83552  0.59159  1.0000
  H   H355      1.0  0.42473  0.02418  0.75996  1.0000
  H   H356      1.0  0.51462  0.85089  0.67947  1.0000
  H   H357      1.0  0.44652  0.04929  0.74416  1.0000
  H   H358      1.0  0.44784  0.05786  0.57136  1.0000
  H   H359      1.0  0.50128  0.82904  0.57348  1.0000
  H   H360      1.0  0.52807  0.83187  0.63720  1.0000
  H   H361      1.0  0.44197  0.92476  0.56188  1.0000
  H   H362      1.0  0.49564  0.04034  0.56818  1.0000
  H   H363      1.0  0.42142  0.05904  0.65987  1.0000
  C   C229      1.0  0.49920  0.07063  0.68591  1.0000
  C   C230      1.0  0.41398  0.07119  0.68631  1.0000
  S   S91       1.0  0.53023  0.07316  0.75414  1.0000
  H   H364      1.0  0.09911  0.83049  0.97580  1.0000
  H   H365      1.0  0.09432  0.83199  0.88190  1.0000
  H   H366      1.0  0.41223  0.03941  0.98705  1.0000
  H   H367      1.0  0.39780  0.85469  0.55932  1.0000
  H   H368      1.0  0.41446  0.06143  0.91942  1.0000
  S   S92       1.0  0.31934  0.02386  0.00952  1.0000
  H   H369      1.0  0.39344  0.05553  0.02778  1.0000
  H   H370      1.0  0.33270  0.82749  0.97227  1.0000
  C   C231      1.0  0.29306  0.88385  0.95686  1.0000
  C   C232      1.0  0.25852  0.99321  0.04204  1.0000
  H   H371      1.0  0.24418  0.97839  0.03276  1.0000
  H   H372      1.0  0.25870  0.00886  0.01809  1.0000
  C   C233      1.0  0.37210  0.96798  0.85518  1.0000
  Fe  Fe46      1.0  0.30967  0.93053  0.05144  1.0000
  H   H373      1.0  0.27878  0.98287  0.04207  1.0000
  S   S93       1.0  0.34880  0.90636  0.04454  1.0000
  H   H374      1.0  0.37841  0.06441  0.91737  1.0000
  H   H375      1.0  0.31842  0.83196  0.90005  1.0000
  S   S94       1.0  0.37333  0.96183  0.00973  1.0000
  H   H376      1.0  0.32829  0.86546  0.89995  1.0000
  H   H377      1.0  0.29489  0.85867  0.88505  1.0000
  C   C234      1.0  0.31133  0.85282  0.90675  1.0000
  C   C235      1.0  0.39432  0.05288  0.99411  1.0000
  H   H378      1.0  0.37623  0.04245  0.98516  1.0000
  H   H379      1.0  0.36724  0.98913  0.85609  1.0000
  H   H380      1.0  0.26288  0.84342  0.93659  1.0000
  H   H381      1.0  0.27556  0.89009  0.93738  1.0000
  H   H382      1.0  0.30919  0.89735  0.94996  1.0000
  H   H383      1.0  0.27232  0.84120  0.98912  1.0000
  N   N24       1.0  0.30236  0.85592  0.94955  1.0000
  C   C236      1.0  0.28008  0.83871  0.95747  1.0000
  H   H384      1.0  0.28696  0.88720  0.98919  1.0000
  C   C237      1.0  0.37205  0.92477  0.88759  1.0000
  C   C238      1.0  0.39068  0.92917  0.81952  1.0000
  C   C239      1.0  0.38428  0.91329  0.85288  1.0000
  H   H385      1.0  0.38902  0.89213  0.85188  1.0000
  C   C240      1.0  0.32503  0.84839  0.97706  1.0000
  C   C241      1.0  0.38454  0.95654  0.82055  1.0000
  H   H386      1.0  0.34211  0.86114  0.97199  1.0000
  C   C242      1.0  0.36600  0.95216  0.88876  1.0000
  H   H387      1.0  0.31906  0.85051  0.00959  1.0000
  Fe  Fe47      1.0  0.33241  0.98112  0.02088  1.0000
  S   S95       1.0  0.36412  0.90455  0.92899  1.0000
  Fe  Fe48      1.0  0.35180  0.92790  0.98483  1.0000
  S   S96       1.0  0.31129  0.94920  0.98959  1.0000
  H   H388      1.0  0.35645  0.96113  0.91537  1.0000
  C   C243      1.0  0.32178  0.07185  0.04663  1.0000
  C   C244      1.0  0.33091  0.04510  0.04682  1.0000
  Fe  Fe49      1.0  0.64357  0.14664  0.25845  1.0000
  S   S97       1.0  0.66578  0.18352  0.26611  1.0000
  S   S98       1.0  0.60719  0.14087  0.22052  1.0000
  Fe  Fe50      1.0  0.70259  0.15550  0.26706  1.0000
  S   S99       1.0  0.68071  0.11935  0.25282  1.0000
  H   H389      1.0  0.60259  0.18713  0.27171  1.0000
  C   C245      1.0  0.72010  0.19010  0.17529  1.0000
  H   H390      1.0  0.70085  0.18535  0.18742  1.0000
  H   H391      1.0  0.65560  0.07456  0.27656  1.0000
  C   C246      1.0  0.58284  0.17991  0.26787  1.0000
  H   H392      1.0  0.70307  0.21188  0.12377  1.0000
  C   C247      1.0  0.72137  0.20494  0.13918  1.0000
  C   C248      1.0  0.57939  0.15768  0.24366  1.0000
  H   H393      1.0  0.70542  0.25820  0.23535  1.0000
  H   H394      1.0  0.60763  0.09405  0.26935  1.0000
  C   C249      1.0  0.59164  0.07973  0.26841  1.0000
  C   C250      1.0  0.70320  0.24179  0.25753  1.0000
  H   H395      1.0  0.68222  0.24344  0.26931  1.0000
  H   H396      1.0  0.70581  0.22292  0.24024  1.0000
  N   N25       1.0  0.72293  0.24243  0.29100  1.0000
  H   H397      1.0  0.72125  0.28500  0.29281  1.0000
  H   H398      1.0  0.72915  0.13035  0.17451  1.0000
  H   H399      1.0  0.71738  0.10534  0.14196  1.0000
  H   H400      1.0  0.74482  0.12295  0.08521  1.0000
  H   H401      1.0  0.73331  0.09633  0.18971  1.0000
  C   C251      1.0  0.73388  0.10992  0.16303  1.0000
  C   C252      1.0  0.74374  0.18176  0.19564  1.0000
  S   S100      1.0  0.74301  0.16363  0.24125  1.0000
  H   H402      1.0  0.75616  0.14753  0.11916  1.0000
  H   H403      1.0  0.78453  0.07821  0.10930  1.0000
  H   H404      1.0  0.75414  0.22082  0.25732  1.0000
  C   C253      1.0  0.74626  0.21059  0.12267  1.0000
  H   H405      1.0  0.75379  0.25612  0.25182  1.0000
  H   H406      1.0  0.80176  0.11174  0.15686  1.0000
  H   H407      1.0  0.78015  0.12608  0.09250  1.0000
  C   C254      1.0  0.78163  0.11315  0.17165  1.0000
  C   C255      1.0  0.76989  0.20168  0.14256  1.0000
  C   C256      1.0  0.76860  0.18767  0.17934  1.0000
  H   H408      1.0  0.78696  0.18141  0.19512  1.0000
  N   N26       1.0  0.76027  0.10759  0.14238  1.0000
  C   C257      1.0  0.76035  0.12683  0.10833  1.0000
  C   C258      1.0  0.76527  0.08040  0.12651  1.0000
  H   H409      1.0  0.78912  0.20627  0.13007  1.0000
  H   H410      1.0  0.77847  0.13339  0.18450  1.0000
  H   H411      1.0  0.78215  0.09912  0.19787  1.0000
  C   C259      1.0  0.75039  0.23991  0.27390  1.0000
  H   H412      1.0  0.74901  0.07505  0.10554  1.0000
  S   S101      1.0  0.74768  0.23013  0.07868  1.0000
  C   C260      1.0  0.06100  0.30127  0.06028  1.0000
  H   H413      1.0  0.05154  0.31643  0.17594  1.0000
  H   H414      1.0  0.04996  0.29479  0.08648  1.0000
  H   H415      1.0  0.04275  0.30338  0.22488  1.0000
  C   C261      1.0  0.04542  0.32198  0.20763  1.0000
  H   H416      1.0  0.72252  0.20076  0.30367  1.0000
  N   N27       1.0  0.57951  0.07644  0.30906  1.0000
  H   H417      1.0  0.58051  0.11806  0.32238  1.0000
  H   H418      1.0  0.61638  0.08239  0.34062  1.0000
  H   H419      1.0  0.69827  0.27000  0.32677  1.0000
  C   C262      1.0  0.71880  0.26773  0.31327  1.0000
  H   H420      1.0  0.73337  0.26887  0.33877  1.0000
  C   C263      1.0  0.71924  0.22018  0.31931  1.0000
  H   H421      1.0  0.69858  0.22121  0.33230  1.0000
  S   S102      1.0  0.65326  0.20541  0.37954  1.0000
  H   H422      1.0  0.73512  0.18022  0.45587  1.0000
  H   H423      1.0  0.73354  0.22017  0.34530  1.0000
  H   H424      1.0  0.63601  0.12463  0.50128  1.0000
  Fe  Fe51      1.0  0.67652  0.11529  0.32058  1.0000
  H   H425      1.0  0.71080  0.08766  0.46137  1.0000
  C   C264      1.0  0.71414  0.18697  0.45771  1.0000
  H   H426      1.0  0.76583  0.24042  0.29824  1.0000
  H   H427      1.0  0.67999  0.07485  0.44508  1.0000
  C   C265      1.0  0.68976  0.08481  0.47081  1.0000
  C   C266      1.0  0.67220  0.20049  0.42419  1.0000
  S   S103      1.0  0.72070  0.18291  0.53973  1.0000
  S   S104      1.0  0.70201  0.14875  0.33463  1.0000
  C   C267      1.0  0.67478  0.19943  0.49817  1.0000
  S   S105      1.0  0.63802  0.14000  0.32524  1.0000
  H   H428      1.0  0.67826  0.14192  0.52408  1.0000
  H   H429      1.0  0.66400  0.14748  0.45167  1.0000
  H   H430      1.0  0.63638  0.09706  0.46669  1.0000
  H   H431      1.0  0.70896  0.18884  0.39284  1.0000
  Fe  Fe52      1.0  0.66373  0.17420  0.33284  1.0000
  N   N28       1.0  0.67526  0.11035  0.48098  1.0000
  H   H432      1.0  0.63913  0.21173  0.46413  1.0000
  C   C268      1.0  0.66005  0.20475  0.46232  1.0000
  H   H433      1.0  0.64656  0.09204  0.51887  1.0000
  S   S106      1.0  0.68038  0.07720  0.35578  1.0000
  H   H434      1.0  0.68883  0.10965  0.54316  1.0000
  H   H435      1.0  0.70981  0.12655  0.50832  1.0000
  C   C269      1.0  0.70185  0.19052  0.49580  1.0000
  C   C270      1.0  0.64729  0.10579  0.49238  1.0000
  C   C271      1.0  0.68865  0.12259  0.51563  1.0000
  C   C272      1.0  0.67529  0.12823  0.44527  1.0000
  H   H436      1.0  0.66533  0.20265  0.52755  1.0000
  H   H437      1.0  0.66589  0.11937  0.41823  1.0000
  C   C273      1.0  0.69928  0.19170  0.42198  1.0000
  H   H438      1.0  0.69606  0.13266  0.43644  1.0000
  H   H439      1.0  0.57651  0.08749  0.24575  1.0000
  Fe  Fe53      1.0  0.70691  0.15243  0.68197  1.0000
  S   S107      1.0  0.66337  0.14600  0.69333  1.0000
  Fe  Fe54      1.0  0.66419  0.12977  0.62951  1.0000
  S   S108      1.0  0.64453  0.09377  0.60762  1.0000
  Fe  Fe55      1.0  0.65592  0.18520  0.66154  1.0000
  S   S109      1.0  0.62957  0.21990  0.68346  1.0000
  S   S110      1.0  0.70834  0.13263  0.62107  1.0000
  S   S111      1.0  0.69949  0.19301  0.65540  1.0000
  C   C274      1.0  0.58979  0.19001  0.71517  1.0000
  C   C275      1.0  0.59906  0.21521  0.70818  1.0000
  H   H440      1.0  0.60166  0.17253  0.70534  1.0000
  H   H441      1.0  0.69522  0.14290  0.77566  1.0000
  C   C276      1.0  0.58376  0.23773  0.72122  1.0000
  H   H442      1.0  0.69391  0.08328  0.65228  1.0000
  H   H443      1.0  0.59088  0.25721  0.71601  1.0000
  S   S112      1.0  0.65287  0.16845  0.59864  1.0000
  Fe  Fe56      1.0  0.69717  0.17269  0.59521  1.0000
  C   C277      1.0  0.71124  0.15049  0.79341  1.0000
  H   H444      1.0  0.64409  0.21356  0.77282  1.0000
  C   C278      1.0  0.66593  0.20742  0.77268  1.0000
  H   H445      1.0  0.62553  0.07894  0.74043  1.0000
  H   H446      1.0  0.65406  0.25601  0.74297  1.0000
  H   H447      1.0  0.67018  0.19655  0.74372  1.0000
  C   C279      1.0  0.67577  0.24936  0.74278  1.0000
  N   N29       1.0  0.68246  0.23050  0.77631  1.0000
  H   H448      1.0  0.68750  0.26724  0.74478  1.0000
  H   H449      1.0  0.71587  0.21012  0.74546  1.0000
  H   H450      1.0  0.68004  0.24007  0.71250  1.0000
  C   C280      1.0  0.58538  0.07411  0.68697  1.0000
  H   H451      1.0  0.66973  0.19320  0.79820  1.0000
  C   C281      1.0  0.71120  0.22156  0.77388  1.0000
  H   H452      1.0  0.59358  0.08550  0.66120  1.0000
  C   C282      1.0  0.73622  0.15359  0.77545  1.0000
  H   H453      1.0  0.71723  0.20851  0.80000  1.0000
  S   S113      1.0  0.74200  0.14535  0.72435  1.0000
  H   H454      1.0  0.72426  0.23854  0.77444  1.0000
  H   H455      1.0  0.63882  0.07606  0.68974  1.0000
  H   H456      1.0  0.77640  0.16553  0.78472  1.0000
  C   C283      1.0  0.75706  0.16305  0.79868  1.0000
  H   H457      1.0  0.68182  0.22980  0.84186  1.0000
  H   H458      1.0  0.65537  0.25051  0.81877  1.0000
  C   C284      1.0  0.67693  0.24360  0.81593  1.0000
  H   H459      1.0  0.68909  0.26108  0.81985  1.0000
  C   C285      1.0  0.70718  0.15672  0.83467  1.0000
  H   H460      1.0  0.68791  0.15405  0.84871  1.0000
  S   S114      1.0  0.72202  0.17445  0.90895  1.0000
  C   C286      1.0  0.72791  0.16650  0.85777  1.0000
  H   H461      1.0  0.73332  0.11335  0.89746  1.0000
  H   H462      1.0  0.74517  0.09657  0.94289  1.0000
  N   N30       1.0  0.77123  0.09089  0.89093  1.0000
  H   H463      1.0  0.88055  0.31809  0.88111  1.0000
  C   C287      1.0  0.75165  0.10733  0.91538  1.0000
  C   C288      1.0  0.79548  0.08407  0.91558  1.0000
  H   H464      1.0  0.78782  0.12461  0.86281  1.0000
  H   H465      1.0  0.76025  0.12592  0.92587  1.0000
  C   C289      1.0  0.80438  0.09289  0.02024  1.0000
  C   C290      1.0  0.89980  0.28294  0.94640  1.0000
  C   C291      1.0  0.75283  0.16979  0.83974  1.0000
  Fe  Fe57      1.0  0.75773  0.18487  0.94606  1.0000
  S   S115      1.0  0.76630  0.22617  0.96402  1.0000
  Fe  Fe58      1.0  0.80203  0.15967  0.99918  1.0000
  S   S116      1.0  0.80077  0.17215  0.93364  1.0000
  H   H466      1.0  0.76878  0.17766  0.85727  1.0000
  S   S117      1.0  0.75826  0.16926  0.00998  1.0000
  Fe  Fe59      1.0  0.80985  0.21235  0.95755  1.0000
  Fe  Fe60      1.0  0.77029  0.20948  0.02735  1.0000
  S   S118      1.0  0.81461  0.19875  0.02264  1.0000
  S   S119      1.0  0.83884  0.23630  0.92188  1.0000
  C   C292      1.0  0.88132  0.26775  0.92622  1.0000
  H   H467      1.0  0.84669  0.24668  0.00812  1.0000
  C   C293      1.0  0.86151  0.25662  0.99081  1.0000
  C   C294      1.0  0.86206  0.25461  0.94834  1.0000
  C   C295      1.0  0.88006  0.27169  0.01099  1.0000
  H   H468      1.0  0.87946  0.27317  0.04389  1.0000
  H   H469      1.0  0.88192  0.26606  0.89335  1.0000
  H   H470      1.0  0.80439  0.10216  0.92754  1.0000
  S   S120      1.0  0.82363  0.12055  0.01567  1.0000
  C   C296      1.0  0.89910  0.28502  0.98888  1.0000
  H   H471      1.0  0.76636  0.11466  0.01185  1.0000
  C   C297      1.0  0.77640  0.09557  0.01780  1.0000
  C   C298      1.0  0.77870  0.10587  0.85435  1.0000
  H   H472      1.0  0.79346  0.09418  0.83505  1.0000
  H   H473      1.0  0.85628  0.32149  0.94925  1.0000
  H   H474      1.0  0.76086  0.11127  0.83499  1.0000
  H   H475      1.0  0.02876  0.25682  0.98557  1.0000
  H   H476      1.0  0.96585  0.25765  0.04751  1.0000
  H   H477      1.0  0.01208  0.21781  0.02159  1.0000
  H   H478      1.0  0.00125  0.26278  0.04909  1.0000
  H   H479      1.0  0.57978  0.08841  0.71178  1.0000
  H   H480      1.0  0.91456  0.29292  0.92911  1.0000
  N   N31       1.0  0.98722  0.24829  0.99177  1.0000
  H   H481      1.0  0.97691  0.21216  0.02069  1.0000
  H   H482      1.0  0.02683  0.30244  0.02059  1.0000
  C   C299      1.0  0.99353  0.22022  0.00279  1.0000
  H   H483      1.0  0.00562  0.27947  0.95939  1.0000
  S   S121      1.0  0.92201  0.30367  0.01538  1.0000
  H   H484      1.0  0.95738  0.27147  0.95791  1.0000
  C   C300      1.0  0.00967  0.25825  0.96798  1.0000
  H   H485      1.0  0.94491  0.24384  0.98430  1.0000
  C   C301      1.0  0.98312  0.26414  0.02931  1.0000
  H   H486      1.0  0.97847  0.28543  0.02210  1.0000
  C   C302      1.0  0.96248  0.25056  0.96701  1.0000
  C   C303      1.0  0.06189  0.31403  0.98884  1.0000
  H   H487      1.0  0.99672  0.20767  0.97517  1.0000
  S   S122      1.0  0.04535  0.32048  0.94208  1.0000
  H   H488      1.0  0.01319  0.24696  0.93921  1.0000
  H   H489      1.0  0.96454  0.23860  0.93864  1.0000
  C   C304      1.0  0.04780  0.30581  0.02298  1.0000
  H   H490      1.0  0.73958  0.07589  0.02347  1.0000
  H   H491      1.0  0.89699  0.52957  0.30495  1.0000
  H   H492      1.0  0.92403  0.54971  0.29207  1.0000
  H   H493      1.0  0.96875  0.35821  0.14883  1.0000
  C   C305      1.0  0.97688  0.37662  0.13961  1.0000
  C   C306      1.0  0.97514  0.38469  0.09882  1.0000
  S   S123      1.0  0.99063  0.38123  0.21910  1.0000
  C   C307      1.0  0.98854  0.39249  0.16860  1.0000
  Fe  Fe61      1.0  0.03153  0.45629  0.29774  1.0000
  S   S124      1.0  0.05193  0.49403  0.28612  1.0000
  S   S125      1.0  0.98833  0.45101  0.28252  1.0000
  H   H494      1.0  0.00510  0.44293  0.10630  1.0000
  H   H495      1.0  0.00759  0.42887  0.17912  1.0000
  C   C308      1.0  0.02816  0.52054  0.27688  1.0000
  C   C309      1.0  0.98558  0.53785  0.24872  1.0000
  C   C310      1.0  0.00525  0.51694  0.25362  1.0000
  H   H496      1.0  0.96781  0.53497  0.23084  1.0000
  H   H497      1.0  0.00277  0.49815  0.23898  1.0000
  S   S126      1.0  0.04665  0.41582  0.27643  1.0000
  C   C311      1.0  0.99868  0.41649  0.15672  1.0000
  Fe  Fe62      1.0  0.00316  0.40928  0.26717  1.0000
  C   C312      1.0  0.99723  0.42443  0.11561  1.0000
  C   C313      1.0  0.98843  0.56216  0.26799  1.0000
  C   C314      1.0  0.03173  0.54532  0.29413  1.0000
  C   C315      1.0  0.01170  0.56593  0.29037  1.0000
  H   H498      1.0  0.04843  0.37496  0.20362  1.0000
  H   H499      1.0  0.96528  0.37271  0.07703  1.0000
  C   C316      1.0  0.98552  0.40843  0.08663  1.0000
  H   H500      1.0  0.03702  0.35558  0.27017  1.0000
  H   H501      1.0  0.07160  0.35687  0.28485  1.0000
  H   H502      1.0  0.06560  0.42244  0.07483  1.0000
  C   C317      1.0  0.05702  0.34444  0.26945  1.0000
  H   H503      1.0  0.95435  0.51066  0.29704  1.0000
  N   N32       1.0  0.06551  0.33796  0.22727  1.0000
  C   C318      1.0  0.06779  0.36272  0.20390  1.0000
  H   H504      1.0  0.02545  0.33314  0.20594  1.0000
  H   H505      1.0  0.07339  0.35849  0.17166  1.0000
  H   H506      1.0  0.05552  0.32633  0.28839  1.0000
  H   H507      1.0  0.89901  0.50293  0.36904  1.0000
  C   C319      1.0  0.91245  0.54193  0.31806  1.0000
  H   H508      1.0  0.04962  0.54848  0.31130  1.0000
  H   H509      1.0  0.90200  0.55936  0.33320  1.0000
  C   C320      1.0  0.91414  0.51634  0.38042  1.0000
  H   H510      1.0  0.90334  0.53275  0.39750  1.0000
  H   H511      1.0  0.99713  0.44435  0.55359  1.0000
  H   H512      1.0  0.00604  0.40667  0.47973  1.0000
  H   H513      1.0  0.92980  0.48916  0.31520  1.0000
  C   C321      1.0  0.04961  0.43638  0.54166  1.0000
  C   C322      1.0  0.96448  0.46554  0.43090  1.0000
  H   H514      1.0  0.93580  0.45150  0.47359  1.0000
  H   H515      1.0  0.05815  0.38513  0.52104  1.0000
  S   S127      1.0  0.06438  0.37080  0.37163  1.0000
  H   H516      1.0  0.01392  0.44068  0.48081  1.0000
  H   H517      1.0  0.94069  0.56138  0.37895  1.0000
  H   H518      1.0  0.92704  0.50463  0.40249  1.0000
  H   H519      1.0  0.98864  0.41054  0.54957  1.0000
  H   H520      1.0  0.02507  0.37553  0.53285  1.0000
  H   H521      1.0  0.05566  0.52809  0.42732  1.0000
  H   H522      1.0  0.04822  0.55407  0.39073  1.0000
  H   H523      1.0  0.06043  0.52170  0.37383  1.0000
  H   H524      1.0  0.96381  0.53286  0.38569  1.0000
  H   H525      1.0  0.96327  0.55117  0.33887  1.0000
  C   C323      1.0  0.94402  0.50401  0.32480  1.0000
  H   H526      1.0  0.04210  0.45721  0.53537  1.0000
  H   H527      1.0  0.95956  0.49352  0.34411  1.0000
  C   C324      1.0  0.98626  0.49076  0.49791  1.0000
  S   S128      1.0  0.99660  0.39402  0.33018  1.0000
  C   C325      1.0  0.96369  0.47610  0.50300  1.0000
  C   C326      1.0  0.99699  0.49400  0.45898  1.0000
  S   S129      1.0  0.02856  0.44398  0.36321  1.0000
  Fe  Fe63      1.0  0.98628  0.43624  0.34685  1.0000
  H   H528      1.0  0.06817  0.43235  0.52327  1.0000
  H   H529      1.0  0.95501  0.47388  0.53283  1.0000
  N   N33       1.0  0.02912  0.41757  0.53183  1.0000
  Fe  Fe64      1.0  0.03915  0.40301  0.34053  1.0000
  S   S130      1.0  0.95244  0.44778  0.38984  1.0000
  C   C327      1.0  0.98603  0.48151  0.42549  1.0000
  H   H530      1.0  0.99437  0.48421  0.39554  1.0000
  C   C328      1.0  0.95278  0.46349  0.46945  1.0000
  N   N34       1.0  0.93023  0.52651  0.34667  1.0000
  C   C329      1.0  0.04005  0.39021  0.53996  1.0000
  C   C330      1.0  0.95036  0.54371  0.36338  1.0000
  H   H531      1.0  0.01421  0.50563  0.45487  1.0000
  C   C331      1.0  0.02181  0.42020  0.48826  1.0000
  H   H532      1.0  0.03943  0.41549  0.46810  1.0000
  S   S131      1.0  0.00283  0.50345  0.53976  1.0000
  C   C332      1.0  0.06241  0.53678  0.39816  1.0000
  H   H533      1.0  0.85870  0.57035  0.66823  1.0000
  S   S132      1.0  0.90170  0.53077  0.66827  1.0000
  C   C333      1.0  0.90116  0.56471  0.67930  1.0000
  H   H534      1.0  0.00961  0.42051  0.59045  1.0000
  H   H535      1.0  0.06470  0.57368  0.63306  1.0000
  H   H536      1.0  0.91601  0.42770  0.80133  1.0000
  C   C334      1.0  0.06213  0.50453  0.71853  1.0000
  H   H537      1.0  0.00265  0.44891  0.74824  1.0000
  C   C335      1.0  0.97705  0.38491  0.75944  1.0000
  H   H538      1.0  0.99383  0.37271  0.74744  1.0000
  C   C336      1.0  0.96597  0.40632  0.73636  1.0000
  S   S133      1.0  0.97980  0.41362  0.68855  1.0000
  Fe  Fe65      1.0  0.97328  0.45648  0.66993  1.0000
  S   S134      1.0  0.96421  0.48924  0.71476  1.0000
  Fe  Fe66      1.0  0.98528  0.49528  0.60115  1.0000
  S   S135      1.0  0.97754  0.53092  0.64063  1.0000
  Fe  Fe67      1.0  0.00017  0.50694  0.68799  1.0000
  S   S136      1.0  0.03170  0.52262  0.72766  1.0000
  Fe  Fe68      1.0  0.94232  0.50970  0.66269  1.0000
  S   S137      1.0  0.01092  0.47286  0.64690  1.0000
  S   S138      1.0  0.94822  0.47534  0.61940  1.0000
  H   H539      1.0  0.94325  0.56534  0.69333  1.0000
  C   C337      1.0  0.94422  0.42194  0.75190  1.0000
  H   H540      1.0  0.05635  0.50076  0.65378  1.0000
  H   H541      1.0  0.93537  0.43832  0.73415  1.0000
  C   C338      1.0  0.93322  0.41585  0.78991  1.0000
  C   C339      1.0  0.96651  0.37926  0.79809  1.0000
  C   C340      1.0  0.02305  0.44437  0.76090  1.0000
  H   H542      1.0  0.03694  0.45693  0.74422  1.0000
  H   H543      1.0  0.02875  0.42329  0.75339  1.0000
  H   H544      1.0  0.04193  0.55331  0.65871  1.0000
  C   C341      1.0  0.06855  0.49461  0.67968  1.0000
  H   H545      1.0  0.02946  0.49072  0.79922  1.0000
  H   H546      1.0  0.00881  0.57342  0.70823  1.0000
  H   H547      1.0  0.99508  0.48284  0.80102  1.0000
  H   H548      1.0  0.05814  0.56980  0.72403  1.0000
  S   S139      1.0  0.96544  0.32516  0.92010  1.0000
  H   H549      1.0  0.05542  0.43515  0.57438  1.0000
  C   C342      1.0  0.04406  0.57340  0.64577  1.0000
  H   H550      1.0  0.04596  0.38751  0.57248  1.0000
  N   N35       1.0  0.02361  0.44917  0.80530  1.0000
  H   H551      1.0  0.06579  0.45531  0.80556  1.0000
  H   H552      1.0  0.07457  0.50614  0.78118  1.0000
  C   C343      1.0  0.86082  0.34277  0.94919  1.0000
  H   H553      1.0  0.90338  0.34138  0.89961  1.0000
  H   H554      1.0  0.83193  0.32825  0.88504  1.0000
  H   H555      1.0  0.84514  0.35360  0.96796  1.0000
  H   H556      1.0  0.88563  0.34791  0.85302  1.0000
  N   N36       1.0  0.86164  0.35353  0.90726  1.0000
  H   H557      1.0  0.84975  0.39349  0.92547  1.0000
  C   C344      1.0  0.86611  0.38213  0.90877  1.0000
  H   H558      1.0  0.86743  0.39077  0.87760  1.0000
  H   H559      1.0  0.81875  0.35996  0.90317  1.0000
  H   H560      1.0  0.83587  0.35750  0.85490  1.0000
  C   C345      1.0  0.83589  0.34967  0.88666  1.0000
  C   C346      1.0  0.88372  0.33954  0.88427  1.0000
  H   H561      1.0  0.88037  0.34416  0.96514  1.0000
  H   H562      1.0  0.88533  0.38573  0.92425  1.0000
  C   C347      1.0  0.94441  0.39464  0.81320  1.0000
  H   H563      1.0  0.97506  0.36268  0.81570  1.0000
  Fe  Fe69      1.0  0.94773  0.33188  0.98234  1.0000
  S   S140      1.0  0.98499  0.41757  0.03496  1.0000
  C   C348      1.0  0.05108  0.44292  0.82078  1.0000
  H   H564      1.0  0.98388  0.43641  0.81489  1.0000
  H   H565      1.0  0.05780  0.42182  0.81511  1.0000
  C   C349      1.0  0.01541  0.47727  0.81352  1.0000
  H   H566      1.0  0.06626  0.43273  0.98175  1.0000
  Fe  Fe70      1.0  0.00325  0.33874  0.94852  1.0000
  H   H567      1.0  0.00459  0.43515  0.85951  1.0000
  C   C350      1.0  0.05378  0.41753  0.99534  1.0000
  S   S141      1.0  0.92959  0.38746  0.86029  1.0000
  Fe  Fe71      1.0  0.95462  0.36871  0.91103  1.0000
  H   H568      1.0  0.01493  0.48153  0.84676  1.0000
  H   H569      1.0  0.05234  0.44652  0.85414  1.0000
  H   H570      1.0  0.03766  0.42822  0.01352  1.0000
  N   N37       1.0  0.07007  0.39852  0.02088  1.0000
  H   H571      1.0  0.01019  0.41076  0.82021  1.0000
  S   S142      1.0  0.99422  0.38165  0.93289  1.0000
  Fe  Fe72      1.0  0.97484  0.38392  0.99446  1.0000
  S   S143      1.0  0.98639  0.34197  0.01133  1.0000
  C   C351      1.0  0.00480  0.43212  0.82593  1.0000
  H   H572      1.0  0.04385  0.40730  0.97007  1.0000
  S   S144      1.0  0.93434  0.37446  0.97187  1.0000
  H   H573      1.0  0.04345  0.36734  0.01178  1.0000
  C   C352      1.0  0.05294  0.37811  0.03691  1.0000
  H   H574      1.0  0.03641  0.38702  0.05625  1.0000
  H   H575      1.0  0.06469  0.36314  0.05573  1.0000
  C   C353      1.0  0.00508  0.42346  0.55744  1.0000
  H   H576      1.0  0.81897  0.80804  0.13563  1.0000
  H   H577      1.0  0.84409  0.80320  0.09656  1.0000
  C   C354      1.0  0.83907  0.81386  0.12554  1.0000
  H   H578      1.0  0.85398  0.80643  0.14878  1.0000
  C   C355      1.0  0.05352  0.72582  0.31161  1.0000
  H   H579      1.0  0.01415  0.58458  0.30535  1.0000
  H   H580      1.0  0.06310  0.75955  0.22305  1.0000
  C   C356      1.0  0.04825  0.75908  0.19790  1.0000
  C   C357      1.0  0.97255  0.73589  0.14696  1.0000
  S   S145      1.0  0.95349  0.71014  0.08035  1.0000
  C   C358      1.0  0.96439  0.71204  0.13115  1.0000
  H   H581      1.0  0.95864  0.67099  0.14396  1.0000
  C   C359      1.0  0.98226  0.71437  0.21228  1.0000
  C   C360      1.0  0.97397  0.69058  0.19654  1.0000
  H   H582      1.0  0.97453  0.67300  0.21546  1.0000
  C   C361      1.0  0.96501  0.68945  0.15605  1.0000
  C   C362      1.0  0.98135  0.73706  0.18752  1.0000
  H   H583      1.0  0.98708  0.75565  0.19986  1.0000
  H   H584      1.0  0.97176  0.75349  0.12809  1.0000
  N   N38       1.0  0.06135  0.76056  0.15760  1.0000
  S   S146      1.0  0.99460  0.71595  0.26237  1.0000
  H   H585      1.0  0.03306  0.77596  0.20243  1.0000
  H   H586      1.0  0.03762  0.74048  0.20122  1.0000
  S   S147      1.0  0.01115  0.64095  0.28766  1.0000
  H   H587      1.0  0.02943  0.74230  0.12649  1.0000
  C   C363      1.0  0.04075  0.76057  0.12529  1.0000
  H   H588      1.0  0.05202  0.71824  0.27994  1.0000
  H   H589      1.0  0.02577  0.77783  0.12823  1.0000
  H   H590      1.0  0.04991  0.76165  0.09446  1.0000
  Fe  Fe73      1.0  0.97283  0.62236  0.30241  1.0000
  Fe  Fe74      1.0  0.98776  0.67941  0.29981  1.0000
  S   S148      1.0  0.94835  0.66107  0.30940  1.0000
  S   S149      1.0  0.96180  0.58665  0.26727  1.0000
  H   H591      1.0  0.07053  0.71844  0.15390  1.0000
  H   H592      1.0  0.05165  0.74784  0.31043  1.0000
  H   H593      1.0  0.06161  0.80315  0.15730  1.0000
  C   C364      1.0  0.04391  0.81885  0.06284  1.0000
  C   C365      1.0  0.07165  0.82168  0.06170  1.0000
  C   C366      1.0  0.90190  0.62441  0.52524  1.0000
  H   H594      1.0  0.90700  0.64333  0.51058  1.0000
  H   H595      1.0  0.90463  0.60873  0.50161  1.0000
  H   H596      1.0  0.88024  0.62645  0.53350  1.0000
  H   H597      1.0  0.91423  0.57622  0.55710  1.0000
  H   H598      1.0  0.06259  0.67889  0.34769  1.0000
  H   H599      1.0  0.91773  0.69264  0.50491  1.0000
  H   H600      1.0  0.95351  0.63497  0.53560  1.0000
  C   C367      1.0  0.97970  0.66889  0.47418  1.0000
  C   C368      1.0  0.95376  0.69342  0.54113  1.0000
  S   S150      1.0  0.99823  0.67960  0.36632  1.0000
  C   C369      1.0  0.94739  0.61610  0.54912  1.0000
  C   C370      1.0  0.98149  0.68745  0.54229  1.0000
  H   H601      1.0  0.05132  0.70897  0.55579  1.0000
  C   C371      1.0  0.93908  0.68749  0.50615  1.0000
  S   S151      1.0  0.98115  0.61755  0.36907  1.0000
  H   H602      1.0  0.95144  0.60033  0.52591  1.0000
  S   S152      1.0  0.05685  0.62188  0.37904  1.0000
  H   H603      1.0  0.06210  0.71927  0.39163  1.0000
  H   H604      1.0  0.03567  0.71935  0.32842  1.0000
  Fe  Fe75      1.0  0.01762  0.63908  0.35505  1.0000
  Fe  Fe76      1.0  0.96075  0.65809  0.37538  1.0000
  C   C372      1.0  0.95207  0.67521  0.47260  1.0000
  C   C373      1.0  0.07107  0.64278  0.41400  1.0000
  C   C374      1.0  0.05552  0.66314  0.43322  1.0000
  C   C375      1.0  0.06789  0.68220  0.45626  1.0000
  H   H605      1.0  0.01588  0.67052  0.50952  1.0000
  H   H606      1.0  0.05595  0.69860  0.46957  1.0000
  C   C376      1.0  0.99445  0.67529  0.50871  1.0000
  H   H607      1.0  0.03407  0.66458  0.42954  1.0000
  S   S153      1.0  0.93361  0.66682  0.42949  1.0000
  H   H608      1.0  0.98962  0.65875  0.44890  1.0000
  C   C377      1.0  0.07569  0.78518  0.15485  1.0000
  S   S154      1.0  0.93782  0.78649  0.05878  1.0000
  S   S155      1.0  0.89711  0.65437  0.69602  1.0000
  C   C378      1.0  0.89915  0.61974  0.69155  1.0000
  H   H609      1.0  0.85692  0.61883  0.67906  1.0000
  C   C379      1.0  0.87582  0.60725  0.68206  1.0000
  H   H610      1.0  0.89331  0.64109  0.60306  1.0000
  C   C380      1.0  0.91443  0.63951  0.59187  1.0000
  C   C381      1.0  0.91168  0.59276  0.57935  1.0000
  C   C382      1.0  0.87682  0.57984  0.67596  1.0000
  H   H611      1.0  0.89867  0.71989  0.80561  1.0000
  H   H612      1.0  0.89047  0.59377  0.59009  1.0000
  H   H613      1.0  0.91877  0.65916  0.57911  1.0000
  H   H614      1.0  0.92751  0.63594  0.61899  1.0000
  C   C383      1.0  0.92355  0.60464  0.69566  1.0000
  H   H615      1.0  0.06259  0.62244  0.64659  1.0000
  C   C384      1.0  0.05875  0.58992  0.71047  1.0000
  C   C385      1.0  0.92454  0.57705  0.68969  1.0000
  S   S156      1.0  0.93779  0.71293  0.66484  1.0000
  C   C386      1.0  0.06478  0.72000  0.63481  1.0000
  Fe  Fe77      1.0  0.97850  0.69619  0.64495  1.0000
  S   S157      1.0  0.97486  0.65653  0.67386  1.0000
  S   S158      1.0  0.99945  0.71318  0.69795  1.0000
  S   S159      1.0  0.95328  0.68824  0.75647  1.0000
  Fe  Fe78      1.0  0.95857  0.72572  0.72164  1.0000
  Fe  Fe79      1.0  0.99272  0.67477  0.72870  1.0000
  S   S160      1.0  0.02809  0.65508  0.76068  1.0000
  Fe  Fe80      1.0  0.93583  0.67422  0.69813  1.0000
  S   S161      1.0  0.00049  0.69483  0.58527  1.0000
  H   H616      1.0  0.03582  0.71072  0.77071  1.0000
  C   C387      1.0  0.05496  0.67421  0.74855  1.0000
  C   C388      1.0  0.05333  0.70150  0.75604  1.0000
  H   H617      1.0  0.03756  0.63663  0.68063  1.0000
  C   C389      1.0  0.04188  0.62045  0.65825  1.0000
  H   H618      1.0  0.94151  0.61414  0.70387  1.0000
  H   H619      1.0  0.02766  0.62413  0.63245  1.0000
  S   S162      1.0  0.95049  0.76360  0.75664  1.0000
  H   H620      1.0  0.04543  0.73028  0.62501  1.0000
  N   N39       1.0  0.03908  0.59415  0.67702  1.0000
  H   H621      1.0  0.00725  0.60833  0.71721  1.0000
  H   H622      1.0  0.05976  0.70168  0.65124  1.0000
  H   H623      1.0  0.99328  0.72725  0.78407  1.0000
  H   H624      1.0  0.99618  0.59580  0.66926  1.0000
  C   C390      1.0  0.01161  0.59288  0.69353  1.0000
  H   H625      1.0  0.06087  0.67982  0.58484  1.0000
  S   S163      1.0  0.97051  0.81005  0.98003  1.0000
  C   C391      1.0  0.97053  0.76305  0.80066  1.0000
  H   H626      1.0  0.05603  0.70355  0.89598  1.0000
  H   H627      1.0  0.05456  0.60422  0.73575  1.0000
  H   H628      1.0  0.96074  0.61148  0.57567  1.0000
  C   C392      1.0  0.99004  0.74236  0.80694  1.0000
  C   C393      1.0  0.06870  0.69757  0.57007  1.0000
  H   H629      1.0  0.92448  0.58723  0.60614  1.0000
  H   H630      1.0  0.07124  0.75043  0.56860  1.0000
  C   C394      1.0  0.05312  0.80957  0.95498  1.0000
  H   H631      1.0  0.94373  0.70315  0.56680  1.0000
  H   H632      1.0  0.86793  0.72585  0.83354  1.0000
  C   C395      1.0  0.88943  0.71888  0.83653  1.0000
  H   H633      1.0  0.88097  0.77134  0.85074  1.0000
  S   S164      1.0  0.89246  0.80470  0.96309  1.0000
  N   N40       1.0  0.90349  0.73499  0.86622  1.0000
  H   H634      1.0  0.89032  0.69762  0.84569  1.0000
  H   H635      1.0  0.86902  0.74032  0.90549  1.0000
  C   C396      1.0  0.89061  0.73338  0.90668  1.0000
  H   H636      1.0  0.89200  0.71274  0.91876  1.0000
  H   H637      1.0  0.90022  0.74610  0.92933  1.0000
  H   H638      1.0  0.94169  0.72452  0.83853  1.0000
  C   C397      1.0  0.99951  0.75941  0.87409  1.0000
  C   C398      1.0  0.07566  0.69422  0.90650  1.0000
  C   C399      1.0  0.93187  0.72485  0.86899  1.0000
  C   C400      1.0  0.90207  0.76292  0.85255  1.0000
  H   H639      1.0  0.91122  0.76489  0.82181  1.0000
  H   H640      1.0  0.93382  0.70427  0.88120  1.0000
  Fe  Fe81      1.0  0.98836  0.76855  0.97165  1.0000
  H   H641      1.0  0.07138  0.67686  0.92582  1.0000
  C   C401      1.0  0.00485  0.74077  0.84324  1.0000
  C   C402      1.0  0.96578  0.78221  0.83101  1.0000
  Fe  Fe82      1.0  0.93202  0.79064  0.99126  1.0000
  H   H642      1.0  0.91290  0.77558  0.87395  1.0000
  H   H643      1.0  0.01972  0.72453  0.84789  1.0000
  Fe  Fe83      1.0  0.97804  0.80215  0.04654  1.0000
  C   C403      1.0  0.97991  0.78013  0.86799  1.0000
  H   H644      1.0  0.06030  0.67463  0.83535  1.0000
  H   H645      1.0  0.03539  0.80343  0.04551  1.0000
  H   H646      1.0  0.94361  0.73740  0.88917  1.0000
  S   S165      1.0  0.94933  0.74957  0.97766  1.0000
  H   H647      1.0  0.03503  0.80837  0.93542  1.0000
  H   H648      1.0  0.06422  0.78139  0.88688  1.0000
  Fe  Fe84      1.0  0.95881  0.74715  0.04434  1.0000
  H   H649      1.0  0.95070  0.79827  0.82632  1.0000
  S   S166      1.0  0.01657  0.75598  0.92073  1.0000
  S   S167      1.0  0.99959  0.76237  0.03725  1.0000
  H   H650      1.0  0.97570  0.79462  0.89166  1.0000
  H   H651      1.0  0.05350  0.79233  0.97620  1.0000
  N   N41       1.0  0.91884  0.61820  0.56137  1.0000
  H   H652      1.0  0.07369  0.73782  0.75230  1.0000
  H   H653      1.0  0.07434  0.73294  0.65720  1.0000
  C   C404      1.0  0.07472  0.71684  0.74557  1.0000
  H   H654      1.0  0.02958  0.57594  0.62010  1.0000
  C   C405      1.0  0.72513  0.89213  0.08628  1.0000
  C   C406      1.0  0.70431  0.88792  0.11363  1.0000
  C   C407      1.0  0.70992  0.88345  0.15508  1.0000
  H   H655      1.0  0.68375  0.88905  0.10307  1.0000
  H   H656      1.0  0.69376  0.88043  0.17604  1.0000
  H   H657      1.0  0.64558  0.03660  0.23300  1.0000
  C   C408      1.0  0.65481  0.03318  0.26252  1.0000
  N   N42       1.0  0.71160  0.97070  0.15530  1.0000
  C   C409      1.0  0.71237  0.98412  0.11528  1.0000
  C   C410      1.0  0.73603  0.95289  0.16023  1.0000
  C   C411      1.0  0.73637  0.88283  0.16914  1.0000
  H   H658      1.0  0.73786  0.93826  0.13510  1.0000
  S   S168      1.0  0.65353  0.98056  0.24524  1.0000
  S   S169      1.0  0.66731  0.90366  0.24350  1.0000
  C   C412      1.0  0.66082  0.00728  0.27621  1.0000
  H   H659      1.0  0.71337  0.96956  0.08976  1.0000
  C   C413      1.0  0.68768  0.95502  0.15742  1.0000
  H   H660      1.0  0.68757  0.94028  0.13233  1.0000
  H   H661      1.0  0.68695  0.94397  0.18672  1.0000
  H   H662      1.0  0.73027  0.99599  0.11250  1.0000
  H   H663      1.0  0.69425  0.99775  0.11040  1.0000
  H   H664      1.0  0.66878  0.96790  0.15538  1.0000
  Fe  Fe85      1.0  0.66984  0.94279  0.27438  1.0000
  H   H665      1.0  0.61240  0.91401  0.27860  1.0000
  Fe  Fe86      1.0  0.71018  0.89598  0.26294  1.0000
  S   S170      1.0  0.71355  0.93668  0.28861  1.0000
  C   C414      1.0  0.71038  0.99063  0.18821  1.0000
  H   H666      1.0  0.69183  0.00404  0.18604  1.0000
  C   C415      1.0  0.66078  0.05469  0.28697  1.0000
  H   H667      1.0  0.72792  0.00305  0.18725  1.0000
  H   H668      1.0  0.71007  0.98100  0.21879  1.0000
  H   H669      1.0  0.60090  0.06065  0.25665  1.0000
  Fe  Fe87      1.0  0.65747  0.88884  0.30579  1.0000
  C   C416      1.0  0.59387  0.90760  0.29105  1.0000
  H   H670      1.0  0.73572  0.94154  0.18940  1.0000
  S   S171      1.0  0.74372  0.88056  0.22140  1.0000
  H   H671      1.0  0.75450  0.96404  0.15982  1.0000
  C   C417      1.0  0.75171  0.88998  0.09988  1.0000
  N   N43       1.0  0.83937  0.84288  0.12015  1.0000
  C   C418      1.0  0.75732  0.88536  0.14127  1.0000
  H   H672      1.0  0.77775  0.88504  0.15204  1.0000
  H   H673      1.0  0.76788  0.89248  0.07862  1.0000
  H   H674      1.0  0.79098  0.97272  0.50915  1.0000
  H   H675      1.0  0.81943  0.87359  0.08356  1.0000
  C   C419      1.0  0.81930  0.85183  0.08912  1.0000
  H   H676      1.0  0.79862  0.84751  0.09864  1.0000
  H   H677      1.0  0.80210  0.93814  0.50824  1.0000
  H   H678      1.0  0.83236  0.87818  0.15603  1.0000
  H   H679      1.0  0.84776  0.85029  0.18325  1.0000
  H   H680      1.0  0.81273  0.85118  0.17084  1.0000
  C   C420      1.0  0.83278  0.85622  0.15928  1.0000
  H   H681      1.0  0.86719  0.87134  0.10139  1.0000
  H   H682      1.0  0.87207  0.83950  0.07742  1.0000
  H   H683      1.0  0.88203  0.84347  0.12936  1.0000
  C   C421      1.0  0.86633  0.84961  0.10656  1.0000
  H   H684      1.0  0.76634  0.06547  0.15151  1.0000
  C   C422      1.0  0.02729  0.83600  0.08655  1.0000
  S   S172      1.0  0.99275  0.83233  0.08937  1.0000
  C   C423      1.0  0.03837  0.85613  0.10876  1.0000
  H   H685      1.0  0.02553  0.86948  0.12705  1.0000
  C   C424      1.0  0.06601  0.85923  0.10709  1.0000
  C   C425      1.0  0.60070  0.06775  0.33851  1.0000
  H   H686      1.0  0.59232  0.06523  0.36960  1.0000
  H   H687      1.0  0.60703  0.84952  0.44802  1.0000
  H   H688      1.0  0.66725  0.93856  0.53459  1.0000
  C   C426      1.0  0.59731  0.86644  0.43055  1.0000
  H   H689      1.0  0.72132  0.96122  0.54212  1.0000
  C   C427      1.0  0.67276  0.00290  0.31439  1.0000
  C   C428      1.0  0.59317  0.88272  0.30952  1.0000
  H   H690      1.0  0.62179  0.88087  0.49940  1.0000
  C   C429      1.0  0.67287  0.05036  0.32505  1.0000
  H   H691      1.0  0.64980  0.90570  0.42745  1.0000
  S   S173      1.0  0.62306  0.86320  0.31671  1.0000
  C   C430      1.0  0.61100  0.89709  0.48163  1.0000
  H   H692      1.0  0.73283  0.96572  0.49064  1.0000
  H   H693      1.0  0.68670  0.95684  0.47207  1.0000
  S   S174      1.0  0.65619  0.92887  0.33522  1.0000
  H   H694      1.0  0.68797  0.02095  0.36834  1.0000
  S   S175      1.0  0.71702  0.93222  0.40691  1.0000
  C   C431      1.0  0.70248  0.89133  0.45542  1.0000
  C   C432      1.0  0.67887  0.89799  0.51981  1.0000
  N   N44       1.0  0.61098  0.89107  0.43756  1.0000
  C   C433      1.0  0.67729  0.92534  0.51292  1.0000
  C   C434      1.0  0.70101  0.91873  0.44881  1.0000
  H   H695      1.0  0.71257  0.87818  0.43346  1.0000
  C   C435      1.0  0.67866  0.02443  0.33888  1.0000
  H   H696      1.0  0.69260  0.85978  0.49614  1.0000
  Fe  Fe88      1.0  0.69986  0.91927  0.34737  1.0000
  C   C436      1.0  0.69131  0.88097  0.49090  1.0000
  S   S176      1.0  0.70024  0.87773  0.32339  1.0000
  C   C437      1.0  0.68819  0.93567  0.47740  1.0000
  H   H697      1.0  0.60663  0.93215  0.42006  1.0000
  H   H698      1.0  0.67751  0.98294  0.32518  1.0000
  H   H699      1.0  0.62136  0.91547  0.48800  1.0000
  C   C438      1.0  0.63892  0.88747  0.42287  1.0000
  H   H700      1.0  0.63983  0.88295  0.38981  1.0000
  H   H701      1.0  0.65011  0.87075  0.43876  1.0000
  H   H702      1.0  0.61099  0.04845  0.32944  1.0000
  H   H703      1.0  0.73609  0.91456  0.54075  1.0000
  H   H704      1.0  0.59815  0.86073  0.39782  1.0000
  C   C439      1.0  0.59691  0.91323  0.41511  1.0000
  H   H705      1.0  0.59025  0.89985  0.49393  1.0000
  H   H706      1.0  0.59721  0.90954  0.38171  1.0000
  C   C440      1.0  0.73903  0.96572  0.52323  1.0000
  H   H707      1.0  0.77035  0.90408  0.52941  1.0000
  C   C441      1.0  0.75394  0.91932  0.52233  1.0000
  H   H708      1.0  0.74866  0.91699  0.48966  1.0000
  H   H709      1.0  0.74397  0.98624  0.53112  1.0000
  N   N45       1.0  0.76199  0.94639  0.53075  1.0000
  C   C442      1.0  0.78444  0.95241  0.50360  1.0000
  H   H710      1.0  0.77852  0.95131  0.47090  1.0000
  H   H711      1.0  0.69045  0.07099  0.49735  1.0000
  S   S177      1.0  0.77643  0.94631  0.05776  1.0000
  H   H712      1.0  0.07448  0.87496  0.12414  1.0000
  H   H713      1.0  0.82341  0.84178  0.05942  1.0000
  Fe  Fe89      1.0  0.69810  0.95988  0.64208  1.0000
  S   S178      1.0  0.71215  0.91690  0.64022  1.0000
  S   S179      1.0  0.72370  0.99186  0.62082  1.0000
  Fe  Fe90      1.0  0.64454  0.94920  0.68011  1.0000
  S   S180      1.0  0.65359  0.90526  0.68003  1.0000
  S   S181      1.0  0.60825  0.96954  0.70948  1.0000
  Fe  Fe91      1.0  0.69403  0.91505  0.70274  1.0000
  Fe  Fe92      1.0  0.67044  0.91169  0.61759  1.0000
  S   S182      1.0  0.66488  0.88500  0.56400  1.0000
  S   S183      1.0  0.68396  0.95874  0.70663  1.0000
  S   S184      1.0  0.65747  0.95498  0.61555  1.0000
  H   H714      1.0  0.59782  0.91808  0.67598  1.0000
  C   C443      1.0  0.66213  0.04316  0.58783  1.0000
  C   C444      1.0  0.67969  0.02046  0.59073  1.0000
  C   C445      1.0  0.70266  0.02067  0.61507  1.0000
  H   H715      1.0  0.67557  0.00283  0.57392  1.0000
  C   C446      1.0  0.70808  0.04359  0.63641  1.0000
  S   S185      1.0  0.70903  0.89281  0.75846  1.0000
  N   N46       1.0  0.60499  0.05295  0.70128  1.0000
  C   C447      1.0  0.59342  0.03857  0.73566  1.0000
  H   H716      1.0  0.62758  0.01908  0.67629  1.0000
  C   C448      1.0  0.61144  0.03427  0.66758  1.0000
  H   H717      1.0  0.60777  0.02258  0.74735  1.0000
  H   H718      1.0  0.61839  0.04479  0.64016  1.0000
  H   H719      1.0  0.59364  0.02347  0.65863  1.0000
  C   C449      1.0  0.69021  0.06610  0.63420  1.0000
  C   C450      1.0  0.72817  0.91198  0.79034  1.0000
  H   H720      1.0  0.65315  0.88124  0.78163  1.0000
  C   C451      1.0  0.58033  0.92576  0.69246  1.0000
  H   H721      1.0  0.64439  0.04293  0.56897  1.0000
  H   H722      1.0  0.72566  0.04370  0.65565  1.0000
  H   H723      1.0  0.65642  0.92773  0.76276  1.0000
  H   H724      1.0  0.64181  0.95396  0.79367  1.0000
  H   H725      1.0  0.61247  0.90805  0.76035  1.0000
  H   H726      1.0  0.59833  0.93394  0.79236  1.0000
  C   C452      1.0  0.65195  0.93369  0.79467  1.0000
  C   C453      1.0  0.60929  0.91403  0.79273  1.0000
  H   H727      1.0  0.58771  0.05213  0.76136  1.0000
  H   H728      1.0  0.64512  0.04943  0.72527  1.0000
  H   H729      1.0  0.73801  0.93941  0.74315  1.0000
  C   C454      1.0  0.74016  0.93416  0.77501  1.0000
  C   C455      1.0  0.66729  0.06594  0.60980  1.0000
  C   C456      1.0  0.62971  0.06486  0.71486  1.0000
  C   C457      1.0  0.57988  0.95086  0.71034  1.0000
  H   H730      1.0  0.78806  0.93413  0.58050  1.0000
  H   H731      1.0  0.75406  0.94339  0.59485  1.0000
  H   H732      1.0  0.84509  0.90712  0.81277  1.0000
  H   H733      1.0  0.77600  0.96850  0.58153  1.0000
  C   C458      1.0  0.77052  0.94812  0.57372  1.0000
  H   H734      1.0  0.76505  0.96622  0.78857  1.0000
  C   C459      1.0  0.75553  0.94927  0.80071  1.0000
  H   H735      1.0  0.66902  0.88768  0.82900  1.0000
  H   H736      1.0  0.67161  0.93481  0.81036  1.0000
  C   C460      1.0  0.64914  0.88786  0.81357  1.0000
  H   H737      1.0  0.64930  0.92308  0.87467  1.0000
  H   H738      1.0  0.63722  0.87280  0.82867  1.0000
  H   H739      1.0  0.61744  0.90850  0.87346  1.0000
  H   H740      1.0  0.61968  0.94263  0.85919  1.0000
  C   C461      1.0  0.63014  0.92253  0.85742  1.0000
  N   N47       1.0  0.63510  0.91452  0.81466  1.0000
  H   H741      1.0  0.59587  0.89987  0.80686  1.0000
  H   H742      1.0  0.72208  0.88796  0.84352  1.0000
  C   C462      1.0  0.73128  0.90515  0.83158  1.0000
  S   S186      1.0  0.71765  0.90261  0.03634  1.0000
  H   H743      1.0  0.81211  0.02643  0.03906  1.0000
  H   H744      1.0  0.07330  0.85100  0.91716  1.0000
  S   S187      1.0  0.73961  0.96539  0.97823  1.0000
  C   C463      1.0  0.74617  0.92063  0.85752  1.0000
  H   H745      1.0  0.74832  0.91541  0.88939  1.0000
  C   C464      1.0  0.76128  0.07353  0.02402  1.0000
  H   H746      1.0  0.86293  0.93332  0.83498  1.0000
  C   C465      1.0  0.80211  0.04561  0.03262  1.0000
  H   H747      1.0  0.79081  0.07152  0.94223  1.0000
  H   H748      1.0  0.86386  0.93866  0.91044  1.0000
  S   S188      1.0  0.80462  0.97356  0.97952  1.0000
  H   H749      1.0  0.81124  0.07281  0.89751  1.0000
  C   C466      1.0  0.85368  0.84455  0.97640  1.0000
  H   H750      1.0  0.82690  0.93516  0.83531  1.0000
  C   C467      1.0  0.81722  0.06780  0.02706  1.0000
  C   C468      1.0  0.75849  0.94259  0.84197  1.0000
  H   H751      1.0  0.82792  0.94175  0.90948  1.0000
  H   H752      1.0  0.90165  0.88939  0.03252  1.0000
  Fe  Fe93      1.0  0.76910  0.98296  0.01990  1.0000
  C   C469      1.0  0.88068  0.83589  0.98166  1.0000
  H   H753      1.0  0.75311  0.05455  0.90530  1.0000
  H   H754      1.0  0.84021  0.83191  0.96114  1.0000
  S   S189      1.0  0.84937  0.91631  0.03240  1.0000
  Fe  Fe94      1.0  0.74961  0.92781  0.01288  1.0000
  H   H755      1.0  0.74077  0.07075  0.85956  1.0000
  H   H756      1.0  0.83890  0.06560  0.02871  1.0000
  H   H757      1.0  0.87000  0.87372  0.85739  1.0000
  C   C470      1.0  0.82118  0.89237  0.88185  1.0000
  H   H758      1.0  0.82008  0.87767  0.85684  1.0000
  H   H759      1.0  0.80256  0.90571  0.88029  1.0000
  N   N48       1.0  0.84541  0.90752  0.87834  1.0000
  H   H760      1.0  0.77332  0.05334  0.85999  1.0000
  C   C471      1.0  0.75907  0.06630  0.87837  1.0000
  C   C472      1.0  0.84515  0.92136  0.83857  1.0000
  C   C473      1.0  0.84558  0.92724  0.91149  1.0000
  H   H761      1.0  0.87060  0.87882  0.91150  1.0000
  H   H762      1.0  0.88830  0.89992  0.87848  1.0000
  C   C474      1.0  0.86964  0.88919  0.88147  1.0000
  S   S190      1.0  0.77849  0.96140  0.87308  1.0000
  H   H763      1.0  0.82289  0.87518  0.98897  1.0000
  S   S191      1.0  0.78247  0.91354  0.97019  1.0000
  Fe  Fe95      1.0  0.77553  0.95328  0.94023  1.0000
  C   C475      1.0  0.88818  0.87695  0.01681  1.0000
  C   C476      1.0  0.86114  0.88556  0.01185  1.0000
  C   C477      1.0  0.89791  0.85211  0.00198  1.0000
  Fe  Fe96      1.0  0.80893  0.93452  0.01270  1.0000
  C   C478      1.0  0.84390  0.86922  0.99176  1.0000
  H   H764      1.0  0.84500  0.91766  0.94199  1.0000
  H   H765      1.0  0.82079  0.88138  0.91122  1.0000
  C   C479      1.0  0.77410  0.04862  0.03205  1.0000
  C   C480      1.0  0.07593  0.83165  0.90107  1.0000
  H   H766      1.0  0.91878  0.84555  0.00631  1.0000
  H   H767      1.0  0.05851  0.83019  0.88019  1.0000
  H   H768      1.0  0.05024  0.82794  0.97351  1.0000
  S   S192      1.0  0.75476  0.02242  0.04614  1.0000
