data_image0
_chemical_formula_structural       SNCH4CHC2HCS2FeS2C3HC2H2FeHCH7C2HCH8C2HCFeSC5H3NC2H3C2FeCSH3SH6NHCH2CH4NCHCHC2H2CH2CH2SCNHCSHCHC2H3CH2CH2CH2CS2NHCH3C2HCHNH2CH2Fe2S3CHCHC3H3NC2HCH2CH4SH2FeSFeCH5CH2C2HFeSH3C3NCH3C2NH2CSHCHNFeS3FeCHCH4CH2CHCSC2H2CHFeS2CHC2H2CHCHNHCH5CH4FeS3HSHCH2C4H3CNCH3CH2CHFeSFeS2FeS3C2H5CH2SC5H4CH3CHFeC2HCSCH5C2HCHNCH4FeH7CHCHCH2CNSHFeCHCH6CHCH2C3NSHCH4CSFeHCSCHCH2SFeH2CHFeS2C4NHCH2CHCHCH8C2H2NCFeHS2H2SC3FeH2CH3CHCH4C4HFeSFeS2FeS2CHC2HC2FeH2SH3SCH2NH4CNH2CHCHCHCSC2SH3SFeS2FeSFeS2C4H2CHCHCH2NCFeCH4CHCSH2CSHCHC2H14C2H2CHCSH2CH2CNCHCH4CH5CHC2NH3FeS3C4H3C2HCH3FeCHC3H2C2SCSFeHS2H2CFeHFeH3CHNCHS2C6H9CH2FeSCH2CH2SCSCFeS2FeCSFeSHC3HS2CH3C2HC2H2FeH3CH2SH2CH6CHCH2C2SNCHSCH5SH4NFeCFeS2FeSFeS2H2CH3CH2CH2CHSH2C2SH2C2Fe2HFeSFeS2HSCSCNCH4CHCHC2H2CFeNCHSC2S2C3H3FeCH4CH3SCH4CHSCH4CS2CHFeH2CHNCH2CHCH3C2H4CSHCHFeHCH2C2H4CHCHCH5CSFeS2HFeSCHCHSHNCHCH2CHCH2C2HC2HC2H2SHFeHNHCHSH3SCHC4H2FeSH2CH4FeS2CSFeHCSHC2NCH2CH2C3H2CHCH8C4SFeSC6H3CFeSNH12CH2CH2CH3CHCHSNH2SH2C4HCHCH3CNFeCH3SFeSHSHCSC3H2CH2CH2CH2C2HCHFeSFeSFeS2C2H2CHC3H2CH5SFeC3HCHCNCHCH2SH3C2H6CNCH2Fe2S2Fe2S2C2H2NCHSCH2SH2CH2C3H9SH2C3NH2C2H2SHCH4CH3C2H3C2SHCSH2CSFe2HC3H2SH3CSH4NHCH2FeSC2H2CHCH2SHCHCSCSCFeSCFeH2SH3CSHNHCH2FeCHCHCHNHCSH4CH2CH2NSH2CH2CHC4S2H2NC3H3CHCFeHCH3SH2C3HCHCHC2HFeCSHC2HFeS2C2H2NCH2SC2H3CHCFeH2SHCHC2H5CNH3SC2H4C2H2SCHFeCNH3CHSH4CHCHCH5FeSFeS3FeSFeHNHSCHS2H3CH2CH2C2HC2HCH5C4H2SH3CH2C3H2NCH3FeS2FeSFeSHCFeNHCHCHCHCHSH2CH2S2HCHC2H2CH2NCH5CH2C2H2C2HSCFeS3FeH2C2H3CSH2S2CH2FeHC3HNCHC2H4SCFeCH3CH4CHCH2C2HSCHSFeCFe3S3CSCH2CHCH7C2NH7CS2C6H9CH2C2HCHFeS2FeS2C4H2NHCH3C2HC2H3CH2S2HFeH3CH3FeH2C3H3CSFeS2FeS2CHCHC2HCHCHNH6CNCH4CH5SHC3H3CH2SHCSFeSFe2SC2H2SCHFeCH4S2C3H2Fe2H2C2H4FeSC2HS2HCH2C2NSH2CH2CHC2HCH2CFeSC4H2SHC2H2CH7CHCH4CS2NHCFeHSH2CHCHCFeS3FeSFeSCH2CH3C2HCH2CSCHCH2C3HCH6CNH3SCHSCFeSFeSFeS2CH3CFeCH3C2H3CHCNH3C2H3SH2CH4SC2HCH2CH2CH4NHC2H6SC2HCSHCSFeSFe2S2HSHC2FeNH4CH5CSHSFeSC3HC3Fe2H2CHCH2SH2CSHC6HSH3C3H5NSCN
_chemical_formula_sum              "S256 N64 C640 H1024 Fe128"
_cell_length_a       59.8016
_cell_length_b       59.1514
_cell_length_c       36.9436
_cell_angle_alpha    90.1322
_cell_angle_beta     90.1909
_cell_angle_gamma    83.6504

_space_group_name_H-M_alt    "P 1"
_space_group_IT_number       1

loop_
  _space_group_symop_operation_xyz
  'x, y, z'

loop_
  _atom_site_type_symbol
  _atom_site_label
  _atom_site_symmetry_multiplicity
  _atom_site_fract_x
  _atom_site_fract_y
  _atom_site_fract_z
  _atom_site_occupancy
  S   S1        1.0  0.26984  0.17377  0.21433  1.0000
  N   N1        1.0  0.28950  0.13912  0.09768  1.0000
  C   C1        1.0  0.27969  0.14585  0.13327  1.0000
  H   H1        1.0  0.26350  0.15698  0.13049  1.0000
  H   H2        1.0  0.27641  0.13084  0.14974  1.0000
  H   H3        1.0  0.26913  0.11168  0.09054  1.0000
  H   H4        1.0  0.29115  0.15564  0.14924  1.0000
  C   C2        1.0  0.27325  0.12732  0.07654  1.0000
  H   H5        1.0  0.27869  0.06449  0.21613  1.0000
  C   C3        1.0  0.29462  0.15970  0.07818  1.0000
  C   C4        1.0  0.12481  0.28107  0.10371  1.0000
  H   H6        1.0  0.10623  0.20241  0.26587  1.0000
  C   C5        1.0  0.07495  0.25122  0.20916  1.0000
  S   S2        1.0  0.17468  0.27285  0.21312  1.0000
  S   S3        1.0  0.17414  0.27922  0.30165  1.0000
  Fe  Fe1       1.0  0.15016  0.27045  0.25830  1.0000
  S   S4        1.0  0.13246  0.23949  0.26826  1.0000
  S   S5        1.0  0.13335  0.30601  0.25185  1.0000
  C   C6        1.0  0.10738  0.23621  0.24501  1.0000
  C   C7        1.0  0.09764  0.21600  0.24981  1.0000
  C   C8        1.0  0.09626  0.25370  0.22399  1.0000
  H   H7        1.0  0.13364  0.28711  0.15933  1.0000
  C   C9        1.0  0.07675  0.21328  0.23417  1.0000
  C   C10       1.0  0.13363  0.29340  0.13185  1.0000
  H   H8        1.0  0.10383  0.26927  0.21983  1.0000
  H   H9        1.0  0.11809  0.26523  0.10957  1.0000
  Fe  Fe2       1.0  0.16016  0.30941  0.21064  1.0000
  H   H10       1.0  0.07284  0.28470  0.10743  1.0000
  C   C11       1.0  0.06018  0.28676  0.08517  1.0000
  H   H11       1.0  0.08320  0.30506  0.29088  1.0000
  H   H12       1.0  0.10121  0.27883  0.28740  1.0000
  H   H13       1.0  0.08039  0.24422  0.09040  1.0000
  H   H14       1.0  0.06708  0.25675  0.28401  1.0000
  H   H15       1.0  0.05087  0.28409  0.28439  1.0000
  H   H16       1.0  0.06628  0.26490  0.19356  1.0000
  H   H17       1.0  0.06934  0.19759  0.23815  1.0000
  C   C12       1.0  0.06513  0.23100  0.21446  1.0000
  C   C13       1.0  0.09168  0.29057  0.30677  1.0000
  H   H18       1.0  0.10428  0.29738  0.32493  1.0000
  C   C14       1.0  0.05891  0.27025  0.30204  1.0000
  H   H19       1.0  0.22560  0.19557  0.22915  1.0000
  H   H20       1.0  0.17938  0.27947  0.13316  1.0000
  H   H21       1.0  0.19237  0.26293  0.09677  1.0000
  H   H22       1.0  0.23306  0.26432  0.08418  1.0000
  H   H23       1.0  0.26481  0.21804  0.29834  1.0000
  H   H24       1.0  0.19954  0.25554  0.14297  1.0000
  H   H25       1.0  0.20118  0.30493  0.16926  1.0000
  H   H26       1.0  0.22088  0.28072  0.17994  1.0000
  C   C15       1.0  0.23482  0.27185  0.11157  1.0000
  C   C16       1.0  0.21671  0.29450  0.15977  1.0000
  H   H27       1.0  0.23054  0.30561  0.16051  1.0000
  C   C17       1.0  0.25995  0.20248  0.22202  1.0000
  Fe  Fe3       1.0  0.19732  0.28486  0.25575  1.0000
  S   S6        1.0  0.23491  0.27561  0.25324  1.0000
  C   C18       1.0  0.24390  0.24773  0.23912  1.0000
  C   C19       1.0  0.26658  0.24191  0.23030  1.0000
  C   C20       1.0  0.27465  0.21929  0.22199  1.0000
  C   C21       1.0  0.23706  0.20851  0.22923  1.0000
  C   C22       1.0  0.22904  0.23109  0.23794  1.0000
  H   H28       1.0  0.27801  0.25487  0.23052  1.0000
  H   H29       1.0  0.29223  0.21487  0.21578  1.0000
  H   H30       1.0  0.21150  0.23544  0.24474  1.0000
  N   N2        1.0  0.21364  0.28509  0.12320  1.0000
  C   C23       1.0  0.19549  0.27005  0.12402  1.0000
  C   C24       1.0  0.20749  0.30395  0.09759  1.0000
  H   H31       1.0  0.24889  0.28268  0.11055  1.0000
  H   H32       1.0  0.23991  0.25763  0.13068  1.0000
  H   H33       1.0  0.28191  0.19118  0.29776  1.0000
  C   C25       1.0  0.27613  0.20609  0.31516  1.0000
  C   C26       1.0  0.14270  0.31366  0.12420  1.0000
  Fe  Fe4       1.0  0.15903  0.31518  0.29224  1.0000
  C   C27       1.0  0.14256  0.32178  0.08864  1.0000
  S   S7        1.0  0.15571  0.32830  0.15814  1.0000
  H   H34       1.0  0.14939  0.33756  0.08276  1.0000
  H   H35       1.0  0.10563  0.41694  0.31207  1.0000
  H   H36       1.0  0.08820  0.38125  0.32141  1.0000
  S   S8        1.0  0.18449  0.32180  0.25025  1.0000
  H   H37       1.0  0.17831  0.36050  0.29954  1.0000
  H   H38       1.0  0.19169  0.31436  0.10606  1.0000
  H   H39       1.0  0.22083  0.31562  0.09613  1.0000
  H   H40       1.0  0.19596  0.39555  0.31336  1.0000
  H   H41       1.0  0.07113  0.54100  0.32256  1.0000
  H   H42       1.0  0.09682  0.24706  0.32792  1.0000
  N   N3        1.0  0.07533  0.27873  0.32731  1.0000
  H   H43       1.0  0.10007  0.26507  0.36617  1.0000
  C   C28       1.0  0.08745  0.25933  0.34699  1.0000
  H   H44       1.0  0.07567  0.24982  0.36259  1.0000
  H   H45       1.0  0.07527  0.30140  0.37290  1.0000
  C   C29       1.0  0.06339  0.29479  0.35329  1.0000
  H   H46       1.0  0.05064  0.28659  0.36896  1.0000
  H   H47       1.0  0.05431  0.30969  0.33906  1.0000
  H   H48       1.0  0.27617  0.25015  0.33248  1.0000
  H   H49       1.0  0.26572  0.19997  0.33721  1.0000
  N   N4        1.0  0.29528  0.21719  0.32966  1.0000
  C   C30       1.0  0.28662  0.23781  0.35010  1.0000
  H   H50       1.0  0.27587  0.23359  0.37312  1.0000
  C   C31       1.0  0.05371  0.43339  0.45572  1.0000
  H   H51       1.0  0.06517  0.41873  0.32966  1.0000
  C   C32       1.0  0.07005  0.40026  0.56805  1.0000
  C   C33       1.0  0.11005  0.41650  0.34136  1.0000
  H   H52       1.0  0.11138  0.43427  0.35042  1.0000
  H   H53       1.0  0.07078  0.43666  0.36728  1.0000
  C   C34       1.0  0.07084  0.41864  0.35838  1.0000
  H   H54       1.0  0.12715  0.40698  0.34389  1.0000
  H   H55       1.0  0.10930  0.37181  0.35423  1.0000
  C   C35       1.0  0.09265  0.38204  0.35063  1.0000
  H   H56       1.0  0.08008  0.37345  0.36613  1.0000
  H   H57       1.0  0.08359  0.40400  0.54910  1.0000
  S   S9        1.0  0.14655  0.33663  0.34029  1.0000
  C   C36       1.0  0.16054  0.36059  0.35011  1.0000
  N   N5        1.0  0.09332  0.40576  0.36292  1.0000
  H   H58       1.0  0.14553  0.36513  0.40286  1.0000
  C   C37       1.0  0.07246  0.42524  0.47657  1.0000
  S   S10       1.0  0.11459  0.42824  0.50392  1.0000
  H   H59       1.0  0.07369  0.40822  0.48752  1.0000
  C   C38       1.0  0.15627  0.37196  0.38311  1.0000
  H   H60       1.0  0.16230  0.40087  0.41609  1.0000
  C   C39       1.0  0.16584  0.39211  0.39067  1.0000
  C   C40       1.0  0.09976  0.40587  0.40153  1.0000
  H   H61       1.0  0.08788  0.39736  0.41855  1.0000
  H   H62       1.0  0.09996  0.42352  0.41181  1.0000
  H   H63       1.0  0.11684  0.39695  0.40619  1.0000
  C   C41       1.0  0.08985  0.43884  0.48186  1.0000
  H   H64       1.0  0.05730  0.39197  0.55226  1.0000
  H   H65       1.0  0.05789  0.41123  0.37488  1.0000
  C   C42       1.0  0.17499  0.36907  0.32510  1.0000
  H   H66       1.0  0.22454  0.43572  0.49537  1.0000
  H   H67       1.0  0.27836  0.43961  0.44699  1.0000
  C   C43       1.0  0.18013  0.40068  0.36549  1.0000
  H   H68       1.0  0.25054  0.41861  0.50488  1.0000
  H   H69       1.0  0.27263  0.42059  0.41094  1.0000
  C   C44       1.0  0.18491  0.38899  0.33292  1.0000
  S   S11       1.0  0.19195  0.42606  0.37425  1.0000
  S   S12       1.0  0.17701  0.43729  0.47592  1.0000
  N   N6        1.0  0.24561  0.42792  0.44882  1.0000
  H   H70       1.0  0.21663  0.40942  0.44528  1.0000
  C   C45       1.0  0.23497  0.40727  0.43931  1.0000
  H   H71       1.0  0.23652  0.40336  0.40982  1.0000
  H   H72       1.0  0.27848  0.40971  0.45578  1.0000
  H   H73       1.0  0.24261  0.39213  0.45454  1.0000
  C   C46       1.0  0.26987  0.42429  0.44027  1.0000
  C   C47       1.0  0.24265  0.43284  0.48791  1.0000
  H   H74       1.0  0.05866  0.55997  0.35654  1.0000
  C   C48       1.0  0.05266  0.45477  0.43924  1.0000
  H   H75       1.0  0.07150  0.49989  0.32939  1.0000
  N   N7        1.0  0.05579  0.52469  0.36660  1.0000
  H   H76       1.0  0.06140  0.44379  0.54125  1.0000
  H   H77       1.0  0.06953  0.52622  0.42035  1.0000
  C   C49       1.0  0.06816  0.54298  0.35214  1.0000
  H   H78       1.0  0.08484  0.54311  0.36563  1.0000
  H   H79       1.0  0.08538  0.50083  0.37247  1.0000
  Fe  Fe5       1.0  0.14005  0.44827  0.47869  1.0000
  Fe  Fe6       1.0  0.14234  0.49028  0.43360  1.0000
  S   S13       1.0  0.14368  0.48447  0.49356  1.0000
  S   S14       1.0  0.11961  0.52040  0.41346  1.0000
  S   S15       1.0  0.13612  0.45474  0.41903  1.0000
  C   C50       1.0  0.08832  0.46055  0.46668  1.0000
  H   H80       1.0  0.10140  0.47139  0.47128  1.0000
  C   C51       1.0  0.13410  0.54365  0.40253  1.0000
  H   H81       1.0  0.06939  0.48489  0.43286  1.0000
  C   C52       1.0  0.07001  0.46832  0.44488  1.0000
  C   C53       1.0  0.06862  0.50240  0.35891  1.0000
  C   C54       1.0  0.05298  0.52767  0.40614  1.0000
  H   H82       1.0  0.13264  0.56042  0.52243  1.0000
  H   H83       1.0  0.05951  0.48820  0.36865  1.0000
  H   H84       1.0  0.14079  0.54944  0.47859  1.0000
  N   N8        1.0  0.16721  0.56296  0.50852  1.0000
  C   C55       1.0  0.17560  0.54045  0.52358  1.0000
  C   C56       1.0  0.15589  0.54045  0.38835  1.0000
  H   H85       1.0  0.25012  0.44857  0.49589  1.0000
  C   C57       1.0  0.20457  0.48609  0.56431  1.0000
  H   H86       1.0  0.16365  0.52350  0.38231  1.0000
  H   H87       1.0  0.18439  0.55682  0.37023  1.0000
  C   C58       1.0  0.23494  0.44738  0.42765  1.0000
  H   H88       1.0  0.17215  0.47331  0.56299  1.0000
  H   H89       1.0  0.16603  0.53635  0.54804  1.0000
  H   H90       1.0  0.19370  0.53951  0.53124  1.0000
  H   H91       1.0  0.17408  0.52661  0.50349  1.0000
  S   S16       1.0  0.20851  0.48611  0.51724  1.0000
  H   H92       1.0  0.23674  0.44434  0.39797  1.0000
  H   H93       1.0  0.24215  0.46344  0.43444  1.0000
  Fe  Fe7       1.0  0.17351  0.44716  0.41755  1.0000
  S   S17       1.0  0.17956  0.48357  0.42609  1.0000
  Fe  Fe8       1.0  0.18038  0.47426  0.48485  1.0000
  C   C59       1.0  0.16756  0.55930  0.38126  1.0000
  H   H94       1.0  0.21665  0.45025  0.43318  1.0000
  H   H95       1.0  0.17908  0.55405  0.45497  1.0000
  H   H96       1.0  0.30015  0.23662  0.28178  1.0000
  H   H97       1.0  0.29897  0.19605  0.37717  1.0000
  H   H98       1.0  0.05050  0.25633  0.13516  1.0000
  C   C60       1.0  0.14323  0.56314  0.49848  1.0000
  H   H99       1.0  0.14263  0.35646  0.78538  1.0000
  H   H100      1.0  0.09130  0.39261  0.71602  1.0000
  C   C61       1.0  0.08797  0.42809  0.70187  1.0000
  C   C62       1.0  0.07969  0.40760  0.71055  1.0000
  H   H101      1.0  0.10592  0.42866  0.70033  1.0000
  Fe  Fe9       1.0  0.14862  0.43823  0.75633  1.0000
  S   S18       1.0  0.15418  0.40058  0.76813  1.0000
  H   H102      1.0  0.07509  0.39120  0.78492  1.0000
  H   H103      1.0  0.09404  0.38905  0.82256  1.0000
  H   H104      1.0  0.08600  0.42076  0.62645  1.0000
  C   C63       1.0  0.05653  0.40659  0.71278  1.0000
  C   C64       1.0  0.08457  0.40129  0.80379  1.0000
  C   C65       1.0  0.07770  0.43206  0.60518  1.0000
  N   N9        1.0  0.05987  0.42116  0.58628  1.0000
  C   C66       1.0  0.14403  0.38980  0.80830  1.0000
  H   H105      1.0  0.09108  0.43616  0.58609  1.0000
  H   H106      1.0  0.09713  0.40938  0.78742  1.0000
  H   H107      1.0  0.07779  0.38760  0.58795  1.0000
  C   C67       1.0  0.14015  0.36687  0.80949  1.0000
  C   C68       1.0  0.05709  0.43422  0.79777  1.0000
  N   N10       1.0  0.06940  0.41837  0.82371  1.0000
  H   H108      1.0  0.19785  0.31797  0.80988  1.0000
  H   H109      1.0  0.20846  0.35633  0.82287  1.0000
  C   C69       1.0  0.13784  0.55882  0.82306  1.0000
  S   S19       1.0  0.14830  0.44684  0.69703  1.0000
  H   H110      1.0  0.07082  0.44827  0.61832  1.0000
  C   C70       1.0  0.07315  0.44751  0.69448  1.0000
  H   H111      1.0  0.10169  0.55047  0.71377  1.0000
  N   N11       1.0  0.07510  0.54753  0.75191  1.0000
  Fe  Fe10      1.0  0.11745  0.47031  0.71062  1.0000
  S   S20       1.0  0.08392  0.47286  0.68322  1.0000
  S   S21       1.0  0.11621  0.45959  0.76845  1.0000
  S   S22       1.0  0.13611  0.50031  0.72144  1.0000
  Fe  Fe11      1.0  0.13739  0.48787  0.77856  1.0000
  C   C71       1.0  0.09731  0.55460  0.74245  1.0000
  H   H112      1.0  0.07937  0.51766  0.71820  1.0000
  C   C72       1.0  0.07543  0.52271  0.74671  1.0000
  H   H113      1.0  0.11086  0.54580  0.75970  1.0000
  H   H114      1.0  0.08833  0.51310  0.76429  1.0000
  H   H115      1.0  0.06099  0.55571  0.69926  1.0000
  H   H116      1.0  0.05884  0.51685  0.75332  1.0000
  C   C73       1.0  0.07000  0.55332  0.79016  1.0000
  H   H117      1.0  0.06881  0.44216  0.77958  1.0000
  H   H118      1.0  0.05333  0.54820  0.79813  1.0000
  C   C74       1.0  0.14567  0.53579  0.81846  1.0000
  H   H119      1.0  0.08289  0.54450  0.80865  1.0000
  C   C75       1.0  0.05764  0.55953  0.72837  1.0000
  S   S23       1.0  0.12663  0.51523  0.81895  1.0000
  C   C76       1.0  0.16853  0.52938  0.81216  1.0000
  C   C77       1.0  0.18358  0.54595  0.81077  1.0000
  H   H120      1.0  0.17472  0.51161  0.80901  1.0000
  H   H121      1.0  0.15758  0.55385  0.73109  1.0000
  C   C78       1.0  0.18515  0.47909  0.57997  1.0000
  H   H122      1.0  0.16858  0.52988  0.67659  1.0000
  Fe  Fe12      1.0  0.16711  0.47583  0.71388  1.0000
  S   S24       1.0  0.19758  0.48738  0.68731  1.0000
  S   S25       1.0  0.17009  0.46556  0.77242  1.0000
  C   C79       1.0  0.21895  0.49351  0.62409  1.0000
  H   H123      1.0  0.20825  0.55073  0.74377  1.0000
  C   C80       1.0  0.20119  0.54124  0.72114  1.0000
  C   C81       1.0  0.18270  0.47927  0.61791  1.0000
  H   H124      1.0  0.16779  0.47376  0.63006  1.0000
  H   H125      1.0  0.23215  0.49899  0.64103  1.0000
  C   C82       1.0  0.19974  0.48635  0.63995  1.0000
  H   H126      1.0  0.16719  0.55487  0.64861  1.0000
  C   C83       1.0  0.17831  0.54368  0.66688  1.0000
  H   H127      1.0  0.19183  0.52790  0.73339  1.0000
  N   N12       1.0  0.18648  0.55662  0.69752  1.0000
  H   H128      1.0  0.19255  0.53540  0.65057  1.0000
  C   C84       1.0  0.22134  0.49342  0.58645  1.0000
  H   H129      1.0  0.21553  0.53223  0.70584  1.0000
  H   H130      1.0  0.20132  0.54086  0.80657  1.0000
  H   H131      1.0  0.23636  0.49883  0.57450  1.0000
  H   H132      1.0  0.12537  0.16099  0.86508  1.0000
  H   H133      1.0  0.14452  0.17227  0.83437  1.0000
  C   C85       1.0  0.12855  0.17645  0.84962  1.0000
  H   H134      1.0  0.16510  0.18778  0.88603  1.0000
  H   H135      1.0  0.14634  0.17549  0.91627  1.0000
  H   H136      1.0  0.10476  0.18621  0.91057  1.0000
  H   H137      1.0  0.11469  0.17989  0.82949  1.0000
  Fe  Fe13      1.0  0.26891  0.15183  0.92857  1.0000
  S   S26       1.0  0.23168  0.16339  0.92561  1.0000
  S   S27       1.0  0.28269  0.11596  0.91397  1.0000
  S   S28       1.0  0.28397  0.14994  0.98414  1.0000
  H   H138      1.0  0.26385  0.08528  0.96796  1.0000
  S   S29       1.0  0.29753  0.16793  0.90383  1.0000
  H   H139      1.0  0.25726  0.13845  0.07187  1.0000
  C   C86       1.0  0.28971  0.06486  0.99780  1.0000
  H   H140      1.0  0.27909  0.17102  0.07133  1.0000
  H   H141      1.0  0.28015  0.12201  0.04956  1.0000
  C   C87       1.0  0.27029  0.06830  0.97643  1.0000
  C   C88       1.0  0.05451  0.23970  0.95974  1.0000
  C   C89       1.0  0.14853  0.19089  0.89999  1.0000
  C   C90       1.0  0.06723  0.24703  0.06898  1.0000
  H   H142      1.0  0.05996  0.23071  0.06456  1.0000
  H   H143      1.0  0.14963  0.20517  0.91934  1.0000
  H   H144      1.0  0.06912  0.29185  0.06057  1.0000
  C   C91       1.0  0.12513  0.28896  0.06800  1.0000
  N   N13       1.0  0.12988  0.19614  0.87393  1.0000
  C   C92       1.0  0.13381  0.30943  0.06055  1.0000
  H   H145      1.0  0.07590  0.25103  0.04359  1.0000
  H   H146      1.0  0.14998  0.21325  0.83678  1.0000
  H   H147      1.0  0.12003  0.22093  0.83265  1.0000
  C   C93       1.0  0.10846  0.20097  0.89385  1.0000
  H   H148      1.0  0.09400  0.20518  0.87505  1.0000
  H   H149      1.0  0.10887  0.21578  0.91238  1.0000
  C   C94       1.0  0.13397  0.21626  0.85224  1.0000
  H   H150      1.0  0.13516  0.23142  0.86969  1.0000
  Fe  Fe14      1.0  0.15943  0.27805  0.91824  1.0000
  S   S30       1.0  0.15137  0.30481  0.96083  1.0000
  Fe  Fe15      1.0  0.11013  0.27555  0.90047  1.0000
  S   S31       1.0  0.09795  0.30228  0.94091  1.0000
  S   S32       1.0  0.08514  0.25789  0.86850  1.0000
  Fe  Fe16      1.0  0.12393  0.28398  0.97733  1.0000
  S   S33       1.0  0.11478  0.27298  0.03302  1.0000
  S   S34       1.0  0.13621  0.29553  0.87644  1.0000
  S   S35       1.0  0.13415  0.25578  0.93819  1.0000
  C   C95       1.0  0.06572  0.24788  0.89851  1.0000
  C   C96       1.0  0.06994  0.24769  0.93577  1.0000
  H   H151      1.0  0.08517  0.25351  0.94631  1.0000
  H   H152      1.0  0.17696  0.23043  0.93955  1.0000
  H   H153      1.0  0.05805  0.23920  0.98841  1.0000
  H   H154      1.0  0.05834  0.30212  0.86601  1.0000
  H   H155      1.0  0.19125  0.18979  0.94773  1.0000
  C   C97       1.0  0.22284  0.19268  0.92141  1.0000
  H   H156      1.0  0.25271  0.20111  0.89460  1.0000
  H   H157      1.0  0.23803  0.24167  0.88526  1.0000
  S   S36       1.0  0.19552  0.26722  0.90247  1.0000
  C   C98       1.0  0.23620  0.20748  0.90445  1.0000
  C   C99       1.0  0.22782  0.23043  0.89908  1.0000
  C   C100      1.0  0.20619  0.23870  0.91103  1.0000
  C   C101      1.0  0.19322  0.22406  0.92909  1.0000
  C   C102      1.0  0.20142  0.20109  0.93394  1.0000
  H   H158      1.0  0.18811  0.30107  0.84567  1.0000
  H   H159      1.0  0.22299  0.30457  0.87991  1.0000
  H   H160      1.0  0.20461  0.29751  0.06982  1.0000
  H   H161      1.0  0.05905  0.32300  0.83101  1.0000
  C   C103      1.0  0.05313  0.40668  0.84477  1.0000
  H   H162      1.0  0.06188  0.39461  0.86468  1.0000
  H   H163      1.0  0.13363  0.31585  0.03320  1.0000
  H   H164      1.0  0.09175  0.41979  0.86913  1.0000
  C   C104      1.0  0.08281  0.43119  0.84853  1.0000
  H   H165      1.0  0.17101  0.32603  0.83036  1.0000
  Fe  Fe17      1.0  0.12619  0.32079  0.92045  1.0000
  C   C105      1.0  0.14057  0.40329  0.83932  1.0000
  C   C106      1.0  0.13298  0.35737  0.84162  1.0000
  H   H166      1.0  0.12962  0.33982  0.84208  1.0000
  C   C107      1.0  0.13003  0.37066  0.87289  1.0000
  S   S37       1.0  0.12170  0.35901  0.91374  1.0000
  C   C108      1.0  0.13373  0.39366  0.87164  1.0000
  H   H167      1.0  0.13156  0.40398  0.89588  1.0000
  H   H168      1.0  0.14375  0.42095  0.83861  1.0000
  H   H169      1.0  0.16871  0.34024  0.89322  1.0000
  H   H170      1.0  0.23287  0.32167  0.84449  1.0000
  H   H171      1.0  0.18661  0.31591  0.90888  1.0000
  C   C109      1.0  0.18862  0.31884  0.83604  1.0000
  C   C110      1.0  0.22268  0.32235  0.86971  1.0000
  H   H172      1.0  0.18222  0.36454  0.84504  1.0000
  C   C111      1.0  0.19959  0.35609  0.84929  1.0000
  H   H173      1.0  0.20803  0.36687  0.86862  1.0000
  N   N14       1.0  0.19936  0.33266  0.86306  1.0000
  C   C112      1.0  0.18658  0.33325  0.89729  1.0000
  H   H174      1.0  0.23126  0.33214  0.89029  1.0000
  H   H175      1.0  0.19382  0.34401  0.91806  1.0000
  H   H176      1.0  0.07205  0.44470  0.86332  1.0000
  H   H177      1.0  0.09581  0.43952  0.83361  1.0000
  Fe  Fe18      1.0  0.30015  0.11569  0.96776  1.0000
  H   H178      1.0  0.05039  0.40265  0.63288  1.0000
  H   H179      1.0  0.14393  0.79622  0.10207  1.0000
  H   H180      1.0  0.14170  0.77388  0.29551  1.0000
  H   H181      1.0  0.06537  0.80574  0.18366  1.0000
  H   H182      1.0  0.06528  0.78781  0.28105  1.0000
  H   H183      1.0  0.09623  0.80868  0.12043  1.0000
  H   H184      1.0  0.08298  0.77227  0.13891  1.0000
  C   C113      1.0  0.06986  0.77454  0.11734  1.0000
  H   H185      1.0  0.05420  0.78293  0.13006  1.0000
  C   C114      1.0  0.07807  0.78881  0.30281  1.0000
  H   H186      1.0  0.09287  0.77654  0.29600  1.0000
  C   C115      1.0  0.16202  0.79438  0.09902  1.0000
  H   H187      1.0  0.08366  0.80610  0.30157  1.0000
  H   H188      1.0  0.06614  0.75737  0.10835  1.0000
  C   C116      1.0  0.08224  0.81049  0.10028  1.0000
  N   N15       1.0  0.07714  0.78807  0.08679  1.0000
  S   S38       1.0  0.16650  0.79220  0.23116  1.0000
  H   H189      1.0  0.16785  0.79990  0.15528  1.0000
  Fe  Fe19      1.0  0.17426  0.80872  0.28346  1.0000
  C   C117      1.0  0.17565  0.79663  0.12929  1.0000
  H   H190      1.0  0.11795  0.74275  0.30736  1.0000
  C   C118      1.0  0.14511  0.76292  0.31873  1.0000
  H   H191      1.0  0.11155  0.77299  0.09006  1.0000
  H   H192      1.0  0.22809  0.70652  0.24543  1.0000
  H   H193      1.0  0.18883  0.72064  0.26247  1.0000
  H   H194      1.0  0.18194  0.75001  0.27384  1.0000
  H   H195      1.0  0.18867  0.74212  0.22795  1.0000
  H   H196      1.0  0.24950  0.72562  0.24581  1.0000
  C   C119      1.0  0.19309  0.73812  0.25672  1.0000
  H   H197      1.0  0.22800  0.72834  0.21157  1.0000
  C   C120      1.0  0.23130  0.72447  0.24075  1.0000
  H   H198      1.0  0.21774  0.76879  0.22815  1.0000
  H   H199      1.0  0.21145  0.77627  0.27442  1.0000
  C   C121      1.0  0.19905  0.79474  0.12582  1.0000
  C   C122      1.0  0.22170  0.76390  0.25677  1.0000
  C   C123      1.0  0.20883  0.79030  0.09176  1.0000
  N   N16       1.0  0.21704  0.74033  0.26424  1.0000
  S   S39       1.0  0.21566  0.79896  0.16401  1.0000
  H   H200      1.0  0.23967  0.76619  0.26172  1.0000
  C   C124      1.0  0.22201  0.73487  0.30269  1.0000
  H   H201      1.0  0.23990  0.73647  0.30950  1.0000
  H   H202      1.0  0.21851  0.71727  0.30943  1.0000
  H   H203      1.0  0.21147  0.74661  0.32105  1.0000
  H   H204      1.0  0.22694  0.78870  0.08895  1.0000
  C   C125      1.0  0.06539  0.81691  0.20681  1.0000
  S   S40       1.0  0.11003  0.81684  0.19377  1.0000
  Fe  Fe20      1.0  0.14193  0.82312  0.22247  1.0000
  H   H205      1.0  0.06742  0.81987  0.11393  1.0000
  C   C126      1.0  0.08526  0.82544  0.21757  1.0000
  S   S41       1.0  0.14742  0.83824  0.27728  1.0000
  C   C127      1.0  0.08512  0.84006  0.24743  1.0000
  H   H206      1.0  0.10030  0.84713  0.25534  1.0000
  C   C128      1.0  0.06521  0.84547  0.26726  1.0000
  H   H207      1.0  0.06519  0.85640  0.29078  1.0000
  H   H208      1.0  0.08745  0.82132  0.07791  1.0000
  S   S42       1.0  0.16665  0.84262  0.19425  1.0000
  Fe  Fe21      1.0  0.19173  0.81296  0.20718  1.0000
  H   H209      1.0  0.24656  0.91248  0.21519  1.0000
  H   H210      1.0  0.23577  0.86522  0.18987  1.0000
  C   C129      1.0  0.24630  0.86690  0.21443  1.0000
  H   H211      1.0  0.29353  0.89136  0.23572  1.0000
  Fe  Fe22      1.0  0.17465  0.85518  0.24952  1.0000
  S   S43       1.0  0.20210  0.82695  0.26018  1.0000
  S   S44       1.0  0.17966  0.89230  0.25069  1.0000
  C   C130      1.0  0.22989  0.92671  0.28719  1.0000
  C   C131      1.0  0.21070  0.92080  0.26910  1.0000
  C   C132      1.0  0.20250  0.89997  0.27611  1.0000
  C   C133      1.0  0.21323  0.88524  0.30192  1.0000
  N   N17       1.0  0.26554  0.87986  0.20692  1.0000
  H   H212      1.0  0.20232  0.93230  0.24934  1.0000
  C   C134      1.0  0.27889  0.88165  0.24037  1.0000
  H   H213      1.0  0.26864  0.89066  0.26216  1.0000
  H   H214      1.0  0.23510  0.87546  0.23547  1.0000
  C   C135      1.0  0.25712  0.90292  0.19420  1.0000
  H   H215      1.0  0.24661  0.90228  0.16940  1.0000
  C   C136      1.0  0.27991  0.86804  0.17867  1.0000
  H   H216      1.0  0.27126  0.91300  0.18773  1.0000
  C   C137      1.0  0.18747  0.85085  0.07598  1.0000
  H   H217      1.0  0.27042  0.86649  0.15298  1.0000
  H   H218      1.0  0.25195  0.84946  0.22438  1.0000
  H   H219      1.0  0.28661  0.85059  0.18738  1.0000
  H   H220      1.0  0.28543  0.86463  0.25103  1.0000
  H   H221      1.0  0.20373  0.84075  0.08298  1.0000
  H   H222      1.0  0.17400  0.83953  0.08014  1.0000
  H   H223      1.0  0.18460  0.86502  0.09587  1.0000
  H   H224      1.0  0.29460  0.87741  0.17240  1.0000
  C   C138      1.0  0.23222  0.89133  0.32048  1.0000
  C   C139      1.0  0.24072  0.91195  0.31284  1.0000
  H   H225      1.0  0.20683  0.86924  0.30773  1.0000
  H   H226      1.0  0.29444  0.97748  0.10478  1.0000
  N   N18       1.0  0.29066  0.01249  0.12214  1.0000
  C   C140      1.0  0.29393  0.99497  0.09347  1.0000
  Fe  Fe23      1.0  0.28594  0.94075  0.30134  1.0000
  H   H227      1.0  0.23609  0.94283  0.28170  1.0000
  S   S45       1.0  0.27821  0.95007  0.24345  1.0000
  S   S46       1.0  0.29564  0.97519  0.31680  1.0000
  H   H228      1.0  0.26796  0.99470  0.15356  1.0000
  H   H229      1.0  0.26538  0.02478  0.16083  1.0000
  S   S47       1.0  0.27826  0.01717  0.23470  1.0000
  C   C141      1.0  0.29275  0.05967  0.23401  1.0000
  C   C142      1.0  0.26865  0.01133  0.13975  1.0000
  C   C143      1.0  0.29620  0.03746  0.24768  1.0000
  Fe  Fe24      1.0  0.29133  0.98313  0.25763  1.0000
  H   H230      1.0  0.25458  0.01361  0.11985  1.0000
  H   H231      1.0  0.27800  0.03872  0.08479  1.0000
  C   C144      1.0  0.29126  0.03524  0.10594  1.0000
  H   H232      1.0  0.28861  0.04888  0.12682  1.0000
  H   H233      1.0  0.19855  0.56752  0.48244  1.0000
  H   H234      1.0  0.15984  0.57816  0.56079  1.0000
  C   C145      1.0  0.18039  0.56734  0.47599  1.0000
  H   H235      1.0  0.17439  0.58405  0.46345  1.0000
  C   C146      1.0  0.12395  0.56569  0.40939  1.0000
  H   H236      1.0  0.18749  0.58133  0.54387  1.0000
  H   H237      1.0  0.06319  0.62108  0.56519  1.0000
  H   H238      1.0  0.16337  0.59805  0.52530  1.0000
  H   H239      1.0  0.10712  0.56827  0.42048  1.0000
  C   C147      1.0  0.16959  0.58086  0.53586  1.0000
  C   C148      1.0  0.14901  0.65194  0.55787  1.0000
  C   C149      1.0  0.06376  0.66070  0.35086  1.0000
  C   C150      1.0  0.06168  0.60180  0.40495  1.0000
  H   H240      1.0  0.06672  0.59691  0.37771  1.0000
  Fe  Fe25      1.0  0.15779  0.66841  0.47285  1.0000
  S   S48       1.0  0.16777  0.67002  0.41424  1.0000
  Fe  Fe26      1.0  0.11404  0.64967  0.45638  1.0000
  S   S49       1.0  0.11961  0.64959  0.39641  1.0000
  S   S50       1.0  0.08486  0.63842  0.48690  1.0000
  Fe  Fe27      1.0  0.15499  0.63576  0.41008  1.0000
  S   S51       1.0  0.17297  0.60470  0.38374  1.0000
  S   S52       1.0  0.14836  0.63293  0.46915  1.0000
  C   C151      1.0  0.13591  0.58441  0.40347  1.0000
  H   H241      1.0  0.12839  0.60128  0.41012  1.0000
  C   C152      1.0  0.06889  0.62113  0.46120  1.0000
  C   C153      1.0  0.07573  0.61374  0.42658  1.0000
  H   H242      1.0  0.09164  0.61751  0.41616  1.0000
  C   C154      1.0  0.17001  0.66030  0.55827  1.0000
  C   C155      1.0  0.15767  0.58130  0.38929  1.0000
  Fe  Fe28      1.0  0.13152  0.68383  0.40525  1.0000
  H   H243      1.0  0.06959  0.64413  0.36386  1.0000
  H   H244      1.0  0.07048  0.66470  0.42232  1.0000
  S   S53       1.0  0.12269  0.68520  0.46434  1.0000
  H   H245      1.0  0.07901  0.66824  0.34146  1.0000
  H   H246      1.0  0.13757  0.65579  0.53548  1.0000
  H   H247      1.0  0.13650  0.57963  0.48591  1.0000
  S   S54       1.0  0.17842  0.67604  0.52149  1.0000
  C   C156      1.0  0.06440  0.68068  0.40784  1.0000
  H   H248      1.0  0.08392  0.65471  0.56211  1.0000
  H   H249      1.0  0.05372  0.65704  0.32653  1.0000
  N   N19       1.0  0.05039  0.67609  0.37620  1.0000
  H   H250      1.0  0.05535  0.75691  0.36656  1.0000
  H   H251      1.0  0.05480  0.69208  0.42770  1.0000
  H   H252      1.0  0.07945  0.68896  0.39964  1.0000
  H   H253      1.0  0.07789  0.74807  0.33581  1.0000
  C   C157      1.0  0.06286  0.76069  0.34004  1.0000
  N   N20       1.0  0.06888  0.78427  0.33885  1.0000
  H   H254      1.0  0.05744  0.70587  0.34691  1.0000
  H   H255      1.0  0.09094  0.80493  0.36659  1.0000
  C   C158      1.0  0.08597  0.78732  0.36693  1.0000
  H   H256      1.0  0.07962  0.78408  0.39449  1.0000
  C   C159      1.0  0.13159  0.74543  0.32558  1.0000
  H   H257      1.0  0.10153  0.77547  0.36275  1.0000
  C   C160      1.0  0.13567  0.73137  0.35593  1.0000
  H   H258      1.0  0.15698  0.72365  0.40237  1.0000
  C   C161      1.0  0.15373  0.73441  0.37887  1.0000
  S   S55       1.0  0.11749  0.71073  0.36542  1.0000
  C   C162      1.0  0.16308  0.76608  0.34189  1.0000
  C   C163      1.0  0.16741  0.75171  0.37181  1.0000
  S   S56       1.0  0.18093  0.78722  0.33347  1.0000
  H   H259      1.0  0.18130  0.75407  0.38978  1.0000
  H   H260      1.0  0.05227  0.81837  0.34351  1.0000
  H   H261      1.0  0.24052  0.87991  0.34042  1.0000
  S   S57       1.0  0.26564  0.91832  0.33393  1.0000
  Fe  Fe29      1.0  0.13562  0.65519  0.77364  1.0000
  S   S58       1.0  0.16838  0.65586  0.80324  1.0000
  S   S59       1.0  0.10112  0.66677  0.79491  1.0000
  Fe  Fe30      1.0  0.15748  0.63380  0.70604  1.0000
  S   S60       1.0  0.14824  0.61881  0.65297  1.0000
  Fe  Fe31      1.0  0.17708  0.62093  0.77949  1.0000
  S   S61       1.0  0.14309  0.61914  0.75520  1.0000
  S   S62       1.0  0.14725  0.66993  0.72222  1.0000
  C   C164      1.0  0.08296  0.65505  0.76460  1.0000
  C   C165      1.0  0.06083  0.65240  0.77438  1.0000
  C   C166      1.0  0.07756  0.63625  0.70731  1.0000
  C   C167      1.0  0.09108  0.64732  0.73080  1.0000
  H   H262      1.0  0.08426  0.62980  0.68165  1.0000
  H   H263      1.0  0.10791  0.64957  0.72264  1.0000
  C   C168      1.0  0.15670  0.63484  0.61682  1.0000
  H   H264      1.0  0.05443  0.65828  0.80049  1.0000
  C   C169      1.0  0.14257  0.63881  0.58675  1.0000
  H   H265      1.0  0.12643  0.63216  0.58609  1.0000
  C   C170      1.0  0.05572  0.63302  0.71742  1.0000
  H   H266      1.0  0.08601  0.65472  0.61060  1.0000
  H   H267      1.0  0.06434  0.62126  0.61402  1.0000
  N   N21       1.0  0.05251  0.65342  0.58984  1.0000
  C   C171      1.0  0.05459  0.62829  0.59005  1.0000
  Fe  Fe32      1.0  0.18074  0.66792  0.74998  1.0000
  C   C172      1.0  0.17750  0.64355  0.61771  1.0000
  H   H268      1.0  0.06960  0.57194  0.79507  1.0000
  H   H269      1.0  0.05679  0.57831  0.73182  1.0000
  H   H270      1.0  0.09764  0.57326  0.74628  1.0000
  H   H271      1.0  0.15519  0.57822  0.70144  1.0000
  C   C173      1.0  0.07518  0.66107  0.58735  1.0000
  H   H272      1.0  0.17267  0.57762  0.74091  1.0000
  C   C174      1.0  0.17565  0.56904  0.81380  1.0000
  S   S63       1.0  0.19233  0.63306  0.72849  1.0000
  H   H273      1.0  0.18856  0.64026  0.64078  1.0000
  H   H274      1.0  0.18866  0.58698  0.66638  1.0000
  C   C175      1.0  0.18432  0.65593  0.58812  1.0000
  S   S64       1.0  0.19419  0.58964  0.80637  1.0000
  H   H275      1.0  0.07431  0.67995  0.58714  1.0000
  C   C176      1.0  0.19935  0.57468  0.68361  1.0000
  H   H276      1.0  0.14662  0.59323  0.82334  1.0000
  C   C177      1.0  0.15276  0.57546  0.82013  1.0000
  C   C178      1.0  0.16705  0.56701  0.71859  1.0000
  H   H277      1.0  0.05181  0.65689  0.64776  1.0000
  H   H278      1.0  0.20601  0.58451  0.70624  1.0000
  H   H279      1.0  0.21501  0.67707  0.80881  1.0000
  H   H280      1.0  0.19129  0.68638  0.66011  1.0000
  H   H281      1.0  0.20079  0.66182  0.58813  1.0000
  H   H282      1.0  0.21399  0.56742  0.66719  1.0000
  H   H283      1.0  0.16679  0.69380  0.63240  1.0000
  H   H284      1.0  0.05376  0.70073  0.81600  1.0000
  H   H285      1.0  0.14558  0.70386  0.79992  1.0000
  H   H286      1.0  0.11771  0.71780  0.80641  1.0000
  H   H287      1.0  0.16211  0.73889  0.80868  1.0000
  H   H288      1.0  0.16036  0.73206  0.60466  1.0000
  H   H289      1.0  0.16206  0.74464  0.64883  1.0000
  H   H290      1.0  0.16901  0.70638  0.67647  1.0000
  C   C179      1.0  0.17866  0.70070  0.65174  1.0000
  C   C180      1.0  0.17218  0.73804  0.62504  1.0000
  H   H291      1.0  0.17982  0.75257  0.61289  1.0000
  H   H292      1.0  0.13511  0.75471  0.81557  1.0000
  C   C181      1.0  0.13270  0.70931  0.82082  1.0000
  H   H293      1.0  0.19129  0.70471  0.58227  1.0000
  C   C182      1.0  0.21370  0.69529  0.81284  1.0000
  S   S65       1.0  0.19827  0.69926  0.74281  1.0000
  H   H294      1.0  0.21562  0.69702  0.61013  1.0000
  H   H295      1.0  0.21799  0.71436  0.67174  1.0000
  C   C183      1.0  0.20245  0.71117  0.60323  1.0000
  H   H296      1.0  0.19580  0.73480  0.68707  1.0000
  H   H297      1.0  0.21390  0.74206  0.65114  1.0000
  C   C184      1.0  0.20501  0.72812  0.66243  1.0000
  N   N22       1.0  0.18959  0.71950  0.63561  1.0000
  C   C185      1.0  0.20681  0.70999  0.78436  1.0000
  H   H298      1.0  0.20062  0.74498  0.76749  1.0000
  C   C186      1.0  0.20567  0.73355  0.78956  1.0000
  H   H299      1.0  0.21100  0.72488  0.59041  1.0000
  H   H300      1.0  0.12021  0.56386  0.82827  1.0000
  H   H301      1.0  0.15509  0.69757  0.88361  1.0000
  H   H302      1.0  0.07420  0.71725  0.83524  1.0000
  C   C187      1.0  0.14923  0.74426  0.82943  1.0000
  H   H303      1.0  0.12780  0.69365  0.83378  1.0000
  H   H304      1.0  0.07014  0.69004  0.85418  1.0000
  H   H305      1.0  0.17353  0.70435  0.84831  1.0000
  H   H306      1.0  0.10905  0.74225  0.86001  1.0000
  H   H307      1.0  0.11705  0.71770  0.88800  1.0000
  C   C188      1.0  0.06130  0.70579  0.84202  1.0000
  H   H308      1.0  0.06383  0.80108  0.03572  1.0000
  C   C189      1.0  0.16052  0.71184  0.86749  1.0000
  C   C190      1.0  0.12345  0.73224  0.87384  1.0000
  N   N23       1.0  0.14147  0.72446  0.84795  1.0000
  H   H309      1.0  0.16888  0.72305  0.88628  1.0000
  H   H310      1.0  0.15686  0.75564  0.84884  1.0000
  H   H311      1.0  0.12956  0.74358  0.89482  1.0000
  Fe  Fe33      1.0  0.15088  0.79379  0.89612  1.0000
  S   S66       1.0  0.16357  0.76470  0.93182  1.0000
  S   S67       1.0  0.11886  0.79186  0.86474  1.0000
  S   S68       1.0  0.15370  0.78919  0.02761  1.0000
  C   C191      1.0  0.09687  0.78783  0.89454  1.0000
  C   C192      1.0  0.07499  0.78706  0.88132  1.0000
  C   C193      1.0  0.08400  0.78011  0.95498  1.0000
  C   C194      1.0  0.10129  0.78448  0.93143  1.0000
  H   H312      1.0  0.08764  0.77730  0.98340  1.0000
  H   H313      1.0  0.11803  0.78529  0.94201  1.0000
  H   H314      1.0  0.07148  0.78981  0.85282  1.0000
  C   C195      1.0  0.06209  0.77954  0.94193  1.0000
  C   C196      1.0  0.05754  0.78312  0.90508  1.0000
  H   H315      1.0  0.06313  0.70851  0.91508  1.0000
  C   C197      1.0  0.05892  0.79121  0.05951  1.0000
  H   H316      1.0  0.10383  0.78606  0.04748  1.0000
  H   H317      1.0  0.09426  0.75926  0.05882  1.0000
  H   H318      1.0  0.06741  0.73548  0.89546  1.0000
  Fe  Fe34      1.0  0.16924  0.79132  0.97266  1.0000
  C   C198      1.0  0.09756  0.77603  0.07009  1.0000
  H   H319      1.0  0.05454  0.77458  0.04901  1.0000
  C   C199      1.0  0.05463  0.72357  0.90061  1.0000
  C   C200      1.0  0.17165  0.79035  0.06493  1.0000
  C   C201      1.0  0.20990  0.74242  0.82389  1.0000
  H   H320      1.0  0.20844  0.76060  0.82802  1.0000
  H   H321      1.0  0.22408  0.69277  0.86883  1.0000
  C   C202      1.0  0.19510  0.78816  0.06121  1.0000
  C   C203      1.0  0.21889  0.70418  0.84675  1.0000
  S   S69       1.0  0.18447  0.79722  0.87119  1.0000
  C   C204      1.0  0.21628  0.72774  0.85265  1.0000
  S   S70       1.0  0.20481  0.79419  0.95535  1.0000
  Fe  Fe35      1.0  0.19755  0.77009  0.91060  1.0000
  H   H322      1.0  0.20264  0.78471  0.03495  1.0000
  S   S71       1.0  0.22010  0.73835  0.89642  1.0000
  S   S72       1.0  0.15410  0.82023  0.93844  1.0000
  H   H323      1.0  0.16177  0.88704  0.04846  1.0000
  H   H324      1.0  0.15150  0.86124  0.03288  1.0000
  C   C205      1.0  0.16541  0.87219  0.03003  1.0000
  Fe  Fe36      1.0  0.29174  0.92334  0.98009  1.0000
  H   H325      1.0  0.26952  0.86914  0.85107  1.0000
  Fe  Fe37      1.0  0.18912  0.82114  0.91739  1.0000
  H   H326      1.0  0.16485  0.87867  0.00168  1.0000
  H   H327      1.0  0.20576  0.88112  0.00585  1.0000
  H   H328      1.0  0.19127  0.84567  0.98453  1.0000
  C   C206      1.0  0.19139  0.83990  0.01319  1.0000
  H   H329      1.0  0.20788  0.82975  0.01843  1.0000
  N   N24       1.0  0.18745  0.85934  0.03835  1.0000
  C   C207      1.0  0.20546  0.87433  0.03394  1.0000
  H   H330      1.0  0.23345  0.83220  0.95597  1.0000
  S   S73       1.0  0.28007  0.89004  0.99759  1.0000
  S   S74       1.0  0.19999  0.85597  0.90808  1.0000
  C   C208      1.0  0.25757  0.88077  0.97321  1.0000
  C   C209      1.0  0.25367  0.85785  0.97502  1.0000
  C   C210      1.0  0.23611  0.84995  0.95496  1.0000
  C   C211      1.0  0.22229  0.86503  0.93328  1.0000
  C   C212      1.0  0.22612  0.88795  0.93172  1.0000
  C   C213      1.0  0.24369  0.89584  0.95170  1.0000
  H   H331      1.0  0.26445  0.84613  0.99161  1.0000
  H   H332      1.0  0.21538  0.89969  0.91509  1.0000
  H   H333      1.0  0.24638  0.91360  0.95058  1.0000
  H   H334      1.0  0.17809  0.82826  0.01571  1.0000
  H   H335      1.0  0.22238  0.86504  0.03930  1.0000
  H   H336      1.0  0.20319  0.88915  0.05268  1.0000
  H   H337      1.0  0.26765  0.89009  0.88640  1.0000
  H   H338      1.0  0.29952  0.90790  0.86136  1.0000
  H   H339      1.0  0.27067  0.86043  0.89765  1.0000
  C   C214      1.0  0.27611  0.87313  0.87827  1.0000
  H   H340      1.0  0.28023  0.99709  0.07287  1.0000
  H   H341      1.0  0.29345  0.00734  0.00634  1.0000
  Fe  Fe38      1.0  0.28181  0.97350  0.96252  1.0000
  S   S75       1.0  0.25641  0.00408  0.95743  1.0000
  C   C215      1.0  0.26797  0.02758  0.97553  1.0000
  H   H342      1.0  0.24464  0.05220  0.94813  1.0000
  H   H343      1.0  0.29435  0.05856  0.91232  1.0000
  C   C216      1.0  0.28689  0.02430  0.99807  1.0000
  H   H344      1.0  0.29529  0.04329  0.87028  1.0000
  H   H345      1.0  0.29701  0.02803  0.91233  1.0000
  S   S76       1.0  0.28238  0.94203  0.92843  1.0000
  C   C217      1.0  0.25934  0.04963  0.96544  1.0000
  S   S77       1.0  0.28770  0.95470  0.01476  1.0000
  C   C218      1.0  0.29770  0.04294  0.00929  1.0000
  Fe  Fe39      1.0  0.34934  0.17144  0.26351  1.0000
  S   S78       1.0  0.36916  0.14051  0.24048  1.0000
  S   S79       1.0  0.34420  0.08922  0.27994  1.0000
  Fe  Fe40      1.0  0.35188  0.15111  0.18820  1.0000
  C   C219      1.0  0.35922  0.15761  0.09620  1.0000
  S   S80       1.0  0.37075  0.14495  0.13598  1.0000
  Fe  Fe41      1.0  0.33863  0.12307  0.25195  1.0000
  S   S81       1.0  0.32293  0.13088  0.19780  1.0000
  H   H346      1.0  0.44001  0.16274  0.28077  1.0000
  C   C220      1.0  0.42837  0.16956  0.30143  1.0000
  C   C221      1.0  0.35036  0.18053  0.09507  1.0000
  C   C222      1.0  0.40569  0.17586  0.29245  1.0000
  H   H347      1.0  0.40002  0.17413  0.26486  1.0000
  S   S82       1.0  0.31984  0.15325  0.27883  1.0000
  S   S83       1.0  0.33471  0.18403  0.21002  1.0000
  C   C223      1.0  0.38961  0.11685  0.32462  1.0000
  H   H348      1.0  0.32342  0.13230  0.11758  1.0000
  H   H349      1.0  0.39436  0.10651  0.30003  1.0000
  H   H350      1.0  0.39328  0.13456  0.31925  1.0000
  C   C224      1.0  0.39055  0.18479  0.31900  1.0000
  C   C225      1.0  0.30738  0.07573  0.24381  1.0000
  H   H351      1.0  0.30558  0.16978  0.09466  1.0000
  C   C226      1.0  0.31049  0.12371  0.10275  1.0000
  C   C227      1.0  0.32551  0.06960  0.26720  1.0000
  H   H352      1.0  0.30445  0.09290  0.23364  1.0000
  H   H353      1.0  0.30752  0.10829  0.11839  1.0000
  Fe  Fe42      1.0  0.30679  0.16307  0.22352  1.0000
  H   H354      1.0  0.31800  0.11790  0.07627  1.0000
  H   H355      1.0  0.54116  0.18542  0.30734  1.0000
  H   H356      1.0  0.51630  0.17084  0.30639  1.0000
  C   C228      1.0  0.53411  0.16965  0.31595  1.0000
  H   H357      1.0  0.54360  0.15504  0.30162  1.0000
  H   H358      1.0  0.35030  0.19083  0.11932  1.0000
  S   S84       1.0  0.36199  0.19236  0.30855  1.0000
  H   H359      1.0  0.31534  0.20869  0.28232  1.0000
  H   H360      1.0  0.32474  0.23085  0.30953  1.0000
  C   C229      1.0  0.30943  0.22365  0.29948  1.0000
  H   H361      1.0  0.52846  0.20259  0.36587  1.0000
  H   H362      1.0  0.37104  0.11724  0.32765  1.0000
  H   H363      1.0  0.43224  0.09715  0.32801  1.0000
  H   H364      1.0  0.31575  0.18556  0.33921  1.0000
  H   H365      1.0  0.40175  0.07272  0.33934  1.0000
  H   H366      1.0  0.37603  0.12189  0.39356  1.0000
  C   C230      1.0  0.39646  0.08379  0.36290  1.0000
  H   H367      1.0  0.40520  0.07616  0.38740  1.0000
  C   C231      1.0  0.39819  0.18747  0.35447  1.0000
  H   H368      1.0  0.43579  0.10026  0.37606  1.0000
  H   H369      1.0  0.40319  0.11467  0.41405  1.0000
  C   C232      1.0  0.39446  0.12143  0.38899  1.0000
  C   C233      1.0  0.42620  0.10742  0.35202  1.0000
  S   S85       1.0  0.43887  0.08193  0.45242  1.0000
  N   N25       1.0  0.40169  0.10737  0.35712  1.0000
  C   C234      1.0  0.43591  0.17184  0.33707  1.0000
  H   H370      1.0  0.39828  0.13932  0.38552  1.0000
  S   S86       1.0  0.43924  0.14566  0.44097  1.0000
  C   C235      1.0  0.42078  0.18083  0.36356  1.0000
  H   H371      1.0  0.43075  0.12498  0.34789  1.0000
  H   H372      1.0  0.42656  0.18317  0.39092  1.0000
  H   H373      1.0  0.37804  0.08314  0.36640  1.0000
  H   H374      1.0  0.43843  0.06985  0.55544  1.0000
  H   H375      1.0  0.49893  0.15431  0.56473  1.0000
  S   S87       1.0  0.44565  0.18639  0.52383  1.0000
  H   H376      1.0  0.50870  0.14530  0.35534  1.0000
  H   H377      1.0  0.48697  0.07160  0.44341  1.0000
  H   H378      1.0  0.52561  0.14348  0.39549  1.0000
  H   H379      1.0  0.53630  0.13026  0.35411  1.0000
  N   N26       1.0  0.53551  0.16668  0.35564  1.0000
  Fe  Fe43      1.0  0.45855  0.11205  0.45360  1.0000
  C   C236      1.0  0.52616  0.14548  0.36559  1.0000
  Fe  Fe44      1.0  0.45955  0.15887  0.48579  1.0000
  S   S88       1.0  0.48738  0.16706  0.44928  1.0000
  S   S89       1.0  0.48675  0.11597  0.41502  1.0000
  Fe  Fe45      1.0  0.50288  0.13178  0.46238  1.0000
  S   S90       1.0  0.53880  0.12805  0.48221  1.0000
  Fe  Fe46      1.0  0.46854  0.15071  0.40572  1.0000
  S   S91       1.0  0.46412  0.16284  0.34819  1.0000
  S   S92       1.0  0.47616  0.12465  0.50210  1.0000
  H   H380      1.0  0.54175  0.10360  0.41372  1.0000
  H   H381      1.0  0.51736  0.12918  0.55426  1.0000
  C   C237      1.0  0.45193  0.18219  0.56997  1.0000
  H   H382      1.0  0.52952  0.17822  0.55867  1.0000
  H   H383      1.0  0.45097  0.14589  0.56928  1.0000
  H   H384      1.0  0.54844  0.15360  0.54702  1.0000
  C   C238      1.0  0.52238  0.18617  0.37359  1.0000
  H   H385      1.0  0.50418  0.18714  0.36625  1.0000
  H   H386      1.0  0.52357  0.18473  0.40361  1.0000
  C   C239      1.0  0.54124  0.16408  0.57015  1.0000
  H   H387      1.0  0.38661  0.19456  0.37504  1.0000
  H   H388      1.0  0.32378  0.20896  0.36481  1.0000
  C   C240      1.0  0.30896  0.20126  0.35389  1.0000
  H   H389      1.0  0.30063  0.24668  0.36125  1.0000
  S   S93       1.0  0.43600  0.12368  0.72327  1.0000
  H   H390      1.0  0.40016  0.11900  0.77514  1.0000
  H   H391      1.0  0.35857  0.12330  0.78014  1.0000
  C   C241      1.0  0.39239  0.11649  0.80095  1.0000
  C   C242      1.0  0.36882  0.11896  0.80386  1.0000
  S   S94       1.0  0.43858  0.06860  0.66364  1.0000
  H   H392      1.0  0.39381  0.07380  0.75873  1.0000
  H   H393      1.0  0.42264  0.07234  0.74537  1.0000
  C   C243      1.0  0.45374  0.16051  0.58563  1.0000
  C   C244      1.0  0.45851  0.15787  0.62283  1.0000
  Fe  Fe47      1.0  0.45258  0.11146  0.77531  1.0000
  Fe  Fe48      1.0  0.45509  0.09265  0.69913  1.0000
  H   H394      1.0  0.45949  0.14121  0.63498  1.0000
  Fe  Fe49      1.0  0.49838  0.09864  0.73938  1.0000
  S   S95       1.0  0.48564  0.10930  0.68421  1.0000
  Fe  Fe50      1.0  0.46793  0.13936  0.71306  1.0000
  S   S96       1.0  0.48303  0.13017  0.76761  1.0000
  S   S97       1.0  0.53423  0.08299  0.74646  1.0000
  H   H395      1.0  0.52697  0.12951  0.72285  1.0000
  S   S98       1.0  0.46948  0.07902  0.75181  1.0000
  C   C245      1.0  0.54427  0.12310  0.71735  1.0000
  S   S99       1.0  0.46909  0.17422  0.69016  1.0000
  C   C246      1.0  0.46182  0.17688  0.64413  1.0000
  N   N27       1.0  0.52955  0.15026  0.59575  1.0000
  C   C247      1.0  0.52036  0.16474  0.62608  1.0000
  H   H396      1.0  0.51157  0.15484  0.64617  1.0000
  H   H397      1.0  0.50788  0.17882  0.61639  1.0000
  H   H398      1.0  0.50131  0.13069  0.59552  1.0000
  H   H399      1.0  0.53387  0.17253  0.64076  1.0000
  C   C248      1.0  0.54565  0.13157  0.60987  1.0000
  H   H400      1.0  0.53766  0.12122  0.63029  1.0000
  C   C249      1.0  0.51097  0.14065  0.57678  1.0000
  H   H401      1.0  0.45333  0.21791  0.57954  1.0000
  C   C250      1.0  0.45489  0.20112  0.59147  1.0000
  C   C251      1.0  0.46006  0.19845  0.62831  1.0000
  H   H402      1.0  0.46253  0.21318  0.64466  1.0000
  H   H403      1.0  0.36663  0.12679  0.06537  1.0000
  C   C252      1.0  0.35962  0.14447  0.06465  1.0000
  Fe  Fe51      1.0  0.31384  0.16286  0.95861  1.0000
  N   N28       1.0  0.37971  0.17618  0.90730  1.0000
  C   C253      1.0  0.38390  0.15846  0.93542  1.0000
  H   H404      1.0  0.41390  0.17112  0.88813  1.0000
  S   S100      1.0  0.43531  0.10899  0.82941  1.0000
  C   C254      1.0  0.40575  0.11123  0.83154  1.0000
  C   C255      1.0  0.35849  0.11654  0.83743  1.0000
  S   S101      1.0  0.32894  0.12066  0.84037  1.0000
  S   S102      1.0  0.33132  0.12835  0.94596  1.0000
  C   C256      1.0  0.34228  0.17689  0.03072  1.0000
  C   C257      1.0  0.37184  0.11077  0.86788  1.0000
  C   C258      1.0  0.39541  0.10803  0.86489  1.0000
  H   H405      1.0  0.36405  0.10824  0.89365  1.0000
  H   H406      1.0  0.40569  0.10367  0.88856  1.0000
  H   H407      1.0  0.35116  0.14348  0.00835  1.0000
  Fe  Fe52      1.0  0.31265  0.13185  0.89347  1.0000
  C   C259      1.0  0.35083  0.15394  0.03224  1.0000
  H   H408      1.0  0.40106  0.15821  0.94726  1.0000
  H   H409      1.0  0.38237  0.14124  0.92427  1.0000
  H   H410      1.0  0.37164  0.16139  0.95804  1.0000
  H   H411      1.0  0.39471  0.15524  0.86422  1.0000
  C   C260      1.0  0.39632  0.17177  0.87784  1.0000
  H   H412      1.0  0.35433  0.15890  0.88073  1.0000
  H   H413      1.0  0.39401  0.18514  0.85659  1.0000
  H   H414      1.0  0.32624  0.07907  0.89381  1.0000
  S   S103      1.0  0.30509  0.08746  0.00847  1.0000
  C   C261      1.0  0.35677  0.17582  0.89247  1.0000
  H   H415      1.0  0.34386  0.17964  0.91389  1.0000
  H   H416      1.0  0.30379  0.15522  0.05262  1.0000
  H   H417      1.0  0.32692  0.06458  0.85122  1.0000
  H   H418      1.0  0.36949  0.20241  0.94613  1.0000
  C   C262      1.0  0.38176  0.19871  0.92361  1.0000
  H   H419      1.0  0.35195  0.06351  0.87857  1.0000
  S   S104      1.0  0.33115  0.18863  0.98986  1.0000
  C   C263      1.0  0.34225  0.19026  0.06214  1.0000
  H   H420      1.0  0.37842  0.21257  0.90335  1.0000
  H   H421      1.0  0.33567  0.20804  0.06116  1.0000
  H   H422      1.0  0.39888  0.19963  0.93503  1.0000
  H   H423      1.0  0.35312  0.18865  0.87066  1.0000
  C   C264      1.0  0.32469  0.92019  0.11442  1.0000
  S   S105      1.0  0.32139  0.92551  0.29077  1.0000
  S   S106      1.0  0.32293  0.91368  0.18741  1.0000
  C   C265      1.0  0.33001  0.92829  0.14862  1.0000
  H   H424      1.0  0.31635  0.90493  0.11195  1.0000
  Fe  Fe53      1.0  0.31428  0.93724  0.23404  1.0000
  H   H425      1.0  0.37725  0.90524  0.24818  1.0000
  H   H426      1.0  0.40313  0.90659  0.19542  1.0000
  C   C266      1.0  0.37490  0.92415  0.24699  1.0000
  H   H427      1.0  0.36034  0.92903  0.22877  1.0000
  N   N29       1.0  0.39537  0.93348  0.23419  1.0000
  C   C267      1.0  0.40041  0.92550  0.19683  1.0000
  H   H428      1.0  0.38630  0.93113  0.17798  1.0000
  H   H429      1.0  0.37010  0.93057  0.27451  1.0000
  C   C268      1.0  0.32976  0.93206  0.08325  1.0000
  H   H430      1.0  0.41105  0.93125  0.28671  1.0000
  C   C269      1.0  0.41445  0.92565  0.25828  1.0000
  H   H431      1.0  0.41776  0.90675  0.25863  1.0000
  H   H432      1.0  0.41579  0.93218  0.18621  1.0000
  H   H433      1.0  0.43020  0.93250  0.24971  1.0000
  C   C270      1.0  0.34095  0.94794  0.15154  1.0000
  C   C271      1.0  0.39165  0.95862  0.23474  1.0000
  H   H434      1.0  0.38784  0.96522  0.26258  1.0000
  H   H435      1.0  0.40673  0.96630  0.22517  1.0000
  H   H436      1.0  0.37721  0.96515  0.21720  1.0000
  H   H437      1.0  0.34545  0.95408  0.17770  1.0000
  C   C272      1.0  0.34657  0.95947  0.12034  1.0000
  S   S107      1.0  0.32675  0.97101  0.24270  1.0000
  H   H438      1.0  0.35516  0.97457  0.12259  1.0000
  C   C273      1.0  0.32886  0.04742  0.28086  1.0000
  H   H439      1.0  0.34276  0.04258  0.29908  1.0000
  Fe  Fe54      1.0  0.33044  0.96073  0.30080  1.0000
  H   H440      1.0  0.31696  0.01446  0.28222  1.0000
  C   C274      1.0  0.31427  0.03142  0.27115  1.0000
  H   H441      1.0  0.32570  0.00871  0.13693  1.0000
  H   H442      1.0  0.30778  0.03676  0.09286  1.0000
  C   C275      1.0  0.34070  0.95170  0.08620  1.0000
  C   C276      1.0  0.30882  0.00844  0.14940  1.0000
  H   H443      1.0  0.30708  0.02160  0.17115  1.0000
  H   H444      1.0  0.31004  0.99593  0.07885  1.0000
  H   H445      1.0  0.30852  0.99165  0.16285  1.0000
  H   H446      1.0  0.36088  0.92402  0.34432  1.0000
  C   C277      1.0  0.39410  0.91345  0.36552  1.0000
  H   H447      1.0  0.39053  0.89631  0.37158  1.0000
  C   C278      1.0  0.39739  0.93070  0.47751  1.0000
  H   H448      1.0  0.39216  0.91516  0.49044  1.0000
  C   C279      1.0  0.37734  0.92909  0.35019  1.0000
  H   H449      1.0  0.40473  0.92555  0.45072  1.0000
  H   H450      1.0  0.35419  0.92494  0.46380  1.0000
  H   H451      1.0  0.41107  0.93656  0.49439  1.0000
  H   H452      1.0  0.36681  0.93516  0.42394  1.0000
  H   H453      1.0  0.43301  0.92161  0.55381  1.0000
  C   C280      1.0  0.41511  0.92030  0.37455  1.0000
  S   S108      1.0  0.52550  0.90420  0.51407  1.0000
  Fe  Fe55      1.0  0.45619  0.92248  0.43345  1.0000
  S   S109      1.0  0.43479  0.90210  0.39876  1.0000
  S   S110      1.0  0.46024  0.91438  0.49262  1.0000
  H   H454      1.0  0.52749  0.88987  0.43954  1.0000
  Fe  Fe56      1.0  0.49583  0.92176  0.48441  1.0000
  S   S111      1.0  0.49266  0.92637  0.42427  1.0000
  C   C281      1.0  0.54431  0.89209  0.44856  1.0000
  H   H455      1.0  0.48392  0.91349  0.56640  1.0000
  C   C282      1.0  0.54817  0.89797  0.48451  1.0000
  H   H456      1.0  0.36343  0.94033  0.52426  1.0000
  S   S112      1.0  0.36108  0.97205  0.32734  1.0000
  H   H457      1.0  0.40651  0.97527  0.34646  1.0000
  N   N30       1.0  0.37832  0.94870  0.47379  1.0000
  C   C283      1.0  0.36048  0.94016  0.45143  1.0000
  H   H458      1.0  0.38249  0.96162  0.52758  1.0000
  C   C284      1.0  0.36936  0.95514  0.51007  1.0000
  H   H459      1.0  0.35496  0.96873  0.50837  1.0000
  H   H460      1.0  0.39938  0.97588  0.47252  1.0000
  C   C285      1.0  0.38611  0.96880  0.45612  1.0000
  H   H461      1.0  0.39331  0.96443  0.42889  1.0000
  C   C286      1.0  0.38170  0.95152  0.34409  1.0000
  H   H462      1.0  0.37208  0.98260  0.45223  1.0000
  H   H463      1.0  0.34586  0.95335  0.44775  1.0000
  C   C287      1.0  0.40298  0.95802  0.35178  1.0000
  C   C288      1.0  0.46228  0.01578  0.57094  1.0000
  H   H464      1.0  0.54568  0.98874  0.44359  1.0000
  C   C289      1.0  0.54685  0.95050  0.40406  1.0000
  C   C290      1.0  0.45840  0.01760  0.42096  1.0000
  H   H465      1.0  0.54648  0.99575  0.39656  1.0000
  C   C291      1.0  0.44521  0.03783  0.43006  1.0000
  C   C292      1.0  0.41973  0.94235  0.36653  1.0000
  H   H466      1.0  0.46866  0.05863  0.51211  1.0000
  H   H467      1.0  0.48766  0.04664  0.54634  1.0000
  S   S113      1.0  0.48874  0.95878  0.49755  1.0000
  H   H468      1.0  0.43628  0.94736  0.37167  1.0000
  Fe  Fe57      1.0  0.45282  0.95201  0.50062  1.0000
  H   H469      1.0  0.43071  0.04443  0.50557  1.0000
  N   N31       1.0  0.45454  0.03574  0.54835  1.0000
  H   H470      1.0  0.42709  0.03827  0.43117  1.0000
  C   C293      1.0  0.47376  0.04289  0.52793  1.0000
  H   H471      1.0  0.46974  0.00125  0.55409  1.0000
  S   S114      1.0  0.49841  0.99116  0.41141  1.0000
  H   H472      1.0  0.48065  0.02950  0.50845  1.0000
  H   H473      1.0  0.44379  0.01555  0.50444  1.0000
  H   H474      1.0  0.53587  0.95006  0.42827  1.0000
  S   S115      1.0  0.43011  0.97032  0.54200  1.0000
  C   C294      1.0  0.47889  0.05677  0.43629  1.0000
  H   H475      1.0  0.51021  0.03604  0.42600  1.0000
  C   C295      1.0  0.48183  0.01688  0.41967  1.0000
  C   C296      1.0  0.49207  0.03657  0.42679  1.0000
  C   C297      1.0  0.45546  0.05737  0.43805  1.0000
  C   C298      1.0  0.43710  0.02966  0.52278  1.0000
  H   H476      1.0  0.42250  0.02389  0.53735  1.0000
  H   H477      1.0  0.53600  0.95764  0.38137  1.0000
  Fe  Fe58      1.0  0.48271  0.96294  0.43816  1.0000
  S   S116      1.0  0.44590  0.95969  0.44238  1.0000
  H   H478      1.0  0.45039  0.00268  0.41427  1.0000
  H   H479      1.0  0.51063  0.94173  0.57171  1.0000
  C   C299      1.0  0.44500  0.05470  0.57170  1.0000
  H   H480      1.0  0.36503  0.93309  0.80841  1.0000
  H   H481      1.0  0.50498  0.89126  0.58018  1.0000
  H   H482      1.0  0.47868  0.89571  0.60408  1.0000
  H   H483      1.0  0.43125  0.89900  0.60982  1.0000
  Fe  Fe59      1.0  0.48337  0.92187  0.78351  1.0000
  S   S117      1.0  0.42682  0.91220  0.68438  1.0000
  S   S118      1.0  0.44586  0.92213  0.78797  1.0000
  C   C300      1.0  0.42879  0.91739  0.61102  1.0000
  S   S119      1.0  0.48300  0.92452  0.72342  1.0000
  Fe  Fe60      1.0  0.44551  0.92890  0.72808  1.0000
  H   H484      1.0  0.52956  0.93000  0.76641  1.0000
  C   C301      1.0  0.42514  0.92833  0.64446  1.0000
  S   S120      1.0  0.50917  0.89691  0.80994  1.0000
  H   H485      1.0  0.50070  0.89794  0.66054  1.0000
  C   C302      1.0  0.49184  0.90452  0.59043  1.0000
  C   C303      1.0  0.43004  0.93021  0.57934  1.0000
  N   N32       1.0  0.50154  0.92052  0.61522  1.0000
  C   C304      1.0  0.51270  0.90773  0.64583  1.0000
  H   H486      1.0  0.51966  0.91937  0.66564  1.0000
  H   H487      1.0  0.47081  0.92881  0.64459  1.0000
  C   C305      1.0  0.51824  0.93256  0.59580  1.0000
  H   H488      1.0  0.52683  0.89533  0.63635  1.0000
  H   H489      1.0  0.53252  0.92048  0.58586  1.0000
  C   C306      1.0  0.48336  0.93727  0.62891  1.0000
  C   C307      1.0  0.53568  0.90696  0.81139  1.0000
  C   C308      1.0  0.54157  0.92325  0.78666  1.0000
  H   H490      1.0  0.37937  0.04094  0.78790  1.0000
  H   H491      1.0  0.38828  0.02364  0.74932  1.0000
  C   C309      1.0  0.39126  0.95446  0.81897  1.0000
  H   H492      1.0  0.39996  0.95004  0.79389  1.0000
  C   C310      1.0  0.39377  0.02993  0.77597  1.0000
  H   H493      1.0  0.39735  0.01483  0.79383  1.0000
  H   H494      1.0  0.49001  0.94987  0.64723  1.0000
  H   H495      1.0  0.52535  0.94522  0.61361  1.0000
  H   H496      1.0  0.43762  0.01242  0.77468  1.0000
  H   H497      1.0  0.44807  0.00970  0.58618  1.0000
  H   H498      1.0  0.42758  0.01998  0.73002  1.0000
  H   H499      1.0  0.41799  0.96061  0.67129  1.0000
  H   H500      1.0  0.42005  0.98329  0.61547  1.0000
  C   C311      1.0  0.43244  0.02705  0.75644  1.0000
  C   C312      1.0  0.42168  0.95210  0.64583  1.0000
  C   C313      1.0  0.42258  0.96491  0.61410  1.0000
  C   C314      1.0  0.40821  0.06216  0.74814  1.0000
  S   S121      1.0  0.44274  0.96678  0.73367  1.0000
  Fe  Fe61      1.0  0.48041  0.96182  0.73293  1.0000
  S   S122      1.0  0.50241  0.98120  0.69845  1.0000
  C   C315      1.0  0.45707  0.04371  0.66494  1.0000
  C   C316      1.0  0.47990  0.04510  0.67146  1.0000
  C   C317      1.0  0.49436  0.02541  0.67847  1.0000
  C   C318      1.0  0.48581  0.00445  0.68006  1.0000
  C   C319      1.0  0.46338  0.00278  0.67049  1.0000
  C   C320      1.0  0.44896  0.02249  0.66269  1.0000
  H   H501      1.0  0.51184  0.02668  0.68470  1.0000
  H   H502      1.0  0.45704  0.98639  0.66992  1.0000
  H   H503      1.0  0.43135  0.02136  0.65703  1.0000
  C   C321      1.0  0.42724  0.95399  0.58093  1.0000
  Fe  Fe62      1.0  0.44601  0.96001  0.79314  1.0000
  S   S123      1.0  0.48370  0.95922  0.79317  1.0000
  N   N33       1.0  0.41376  0.04237  0.77218  1.0000
  H   H504      1.0  0.52396  0.03156  0.74476  1.0000
  H   H505      1.0  0.47512  0.01984  0.59113  1.0000
  H   H506      1.0  0.40381  0.05679  0.72033  1.0000
  H   H507      1.0  0.48636  0.06141  0.67238  1.0000
  H   H508      1.0  0.47426  0.94685  0.60644  1.0000
  H   H509      1.0  0.44753  0.03606  0.75164  1.0000
  H   H510      1.0  0.45788  0.06023  0.59062  1.0000
  H   H511      1.0  0.51791  0.00628  0.76796  1.0000
  H   H512      1.0  0.43088  0.04978  0.58847  1.0000
  H   H513      1.0  0.43570  0.05959  0.80634  1.0000
  H   H514      1.0  0.54852  0.00513  0.70523  1.0000
  H   H515      1.0  0.52734  0.02983  0.79269  1.0000
  C   C322      1.0  0.52954  0.01975  0.76724  1.0000
  H   H516      1.0  0.40700  0.06199  0.82082  1.0000
  H   H517      1.0  0.54957  0.98208  0.79858  1.0000
  C   C323      1.0  0.42057  0.05023  0.80817  1.0000
  H   H518      1.0  0.54523  0.98058  0.73245  1.0000
  H   H519      1.0  0.32570  0.89117  0.85242  1.0000
  C   C324      1.0  0.30713  0.89063  0.85304  1.0000
  H   H520      1.0  0.30591  0.84625  0.83852  1.0000
  H   H521      1.0  0.30459  0.86470  0.93479  1.0000
  H   H522      1.0  0.30068  0.89441  0.92508  1.0000
  C   C325      1.0  0.30874  0.87779  0.91502  1.0000
  H   H523      1.0  0.33011  0.84978  0.86611  1.0000
  C   C326      1.0  0.31142  0.85042  0.86632  1.0000
  H   H524      1.0  0.30693  0.83674  0.88473  1.0000
  S   S124      1.0  0.32896  0.92371  0.97248  1.0000
  N   N34       1.0  0.30085  0.87298  0.87814  1.0000
  H   H525      1.0  0.32534  0.92587  0.05690  1.0000
  H   H526      1.0  0.32727  0.87852  0.91587  1.0000
  S   S125      1.0  0.33537  0.93773  0.86913  1.0000
  H   H527      1.0  0.30146  0.88767  0.82489  1.0000
  H   H528      1.0  0.54667  0.88587  0.85684  1.0000
  C   C327      1.0  0.33708  0.02215  0.87820  1.0000
  C   C328      1.0  0.39969  0.96972  0.84305  1.0000
  C   C329      1.0  0.37143  0.94490  0.82718  1.0000
  C   C330      1.0  0.36845  0.96563  0.88381  1.0000
  H   H529      1.0  0.39472  0.98714  0.89415  1.0000
  C   C331      1.0  0.38810  0.97553  0.87528  1.0000
  H   H530      1.0  0.32886  0.05752  0.95081  1.0000
  C   C332      1.0  0.30239  0.04315  0.89817  1.0000
  H   H531      1.0  0.31283  0.04023  0.02557  1.0000
  H   H532      1.0  0.35438  0.04123  0.93631  1.0000
  H   H533      1.0  0.36001  0.96959  0.90922  1.0000
  C   C333      1.0  0.33571  0.04209  0.93543  1.0000
  N   N35       1.0  0.32715  0.04266  0.89780  1.0000
  Fe  Fe63      1.0  0.31937  0.94497  0.92351  1.0000
  C   C334      1.0  0.36006  0.95030  0.85970  1.0000
  H   H534      1.0  0.35580  0.02091  0.87794  1.0000
  H   H535      1.0  0.33117  0.02208  0.84962  1.0000
  H   H536      1.0  0.33083  0.02706  0.95037  1.0000
  S   S126      1.0  0.34592  0.96731  0.04757  1.0000
  Fe  Fe64      1.0  0.32408  0.95674  0.00269  1.0000
  S   S127      1.0  0.31797  0.97814  0.95297  1.0000
  H   H537      1.0  0.33239  0.00632  0.89101  1.0000
  S   S128      1.0  0.42456  0.98174  0.83286  1.0000
  H   H538      1.0  0.42476  0.03565  0.82700  1.0000
  C   C335      1.0  0.33338  0.06329  0.87954  1.0000
  S   S129      1.0  0.72139  0.10816  0.30537  1.0000
  C   C336      1.0  0.74734  0.11953  0.30507  1.0000
  C   C337      1.0  0.75676  0.12485  0.27189  1.0000
  C   C338      1.0  0.77735  0.13420  0.27086  1.0000
  H   H539      1.0  0.74791  0.12213  0.24691  1.0000
  H   H540      1.0  0.78420  0.13880  0.24520  1.0000
  C   C339      1.0  0.78869  0.13810  0.30306  1.0000
  H   H541      1.0  0.74418  0.16947  0.31000  1.0000
  H   H542      1.0  0.77916  0.08799  0.22884  1.0000
  C   C340      1.0  0.72699  0.17633  0.31887  1.0000
  H   H543      1.0  0.76029  0.07294  0.28104  1.0000
  H   H544      1.0  0.71920  0.18698  0.29641  1.0000
  C   C341      1.0  0.78928  0.07115  0.22574  1.0000
  H   H545      1.0  0.79587  0.08995  0.29100  1.0000
  H   H546      1.0  0.71705  0.16159  0.32212  1.0000
  C   C342      1.0  0.55760  0.11028  0.41878  1.0000
  C   C343      1.0  0.55928  0.16529  0.36749  1.0000
  H   H547      1.0  0.56978  0.15095  0.35401  1.0000
  C   C344      1.0  0.56073  0.12220  0.45078  1.0000
  H   H548      1.0  0.57246  0.09803  0.36824  1.0000
  Fe  Fe65      1.0  0.68646  0.14137  0.42126  1.0000
  S   S130      1.0  0.67376  0.14087  0.36406  1.0000
  Fe  Fe66      1.0  0.69018  0.09053  0.42820  1.0000
  S   S131      1.0  0.67808  0.08551  0.37168  1.0000
  Fe  Fe67      1.0  0.65224  0.11488  0.38469  1.0000
  S   S132      1.0  0.61653  0.11273  0.36599  1.0000
  S   S133      1.0  0.66275  0.11787  0.44279  1.0000
  C   C345      1.0  0.59572  0.11534  0.39979  1.0000
  C   C346      1.0  0.59903  0.12669  0.43227  1.0000
  H   H549      1.0  0.61480  0.13343  0.43742  1.0000
  H   H550      1.0  0.58419  0.13908  0.48264  1.0000
  C   C347      1.0  0.58161  0.13001  0.45777  1.0000
  H   H551      1.0  0.66871  0.15251  0.49955  1.0000
  C   C348      1.0  0.68049  0.16220  0.51328  1.0000
  C   C349      1.0  0.57501  0.10703  0.39319  1.0000
  C   C350      1.0  0.68114  0.16274  0.55135  1.0000
  H   H552      1.0  0.66981  0.15360  0.56676  1.0000
  H   H553      1.0  0.68225  0.08614  0.52645  1.0000
  C   C351      1.0  0.68624  0.09597  0.55091  1.0000
  H   H554      1.0  0.67758  0.11348  0.54777  1.0000
  H   H555      1.0  0.65413  0.06904  0.43697  1.0000
  H   H556      1.0  0.56684  0.18117  0.36123  1.0000
  H   H557      1.0  0.56091  0.16234  0.39723  1.0000
  H   H558      1.0  0.73730  0.18349  0.40854  1.0000
  S   S134      1.0  0.69466  0.17419  0.44565  1.0000
  Fe  Fe68      1.0  0.70074  0.11174  0.35660  1.0000
  C   C352      1.0  0.69468  0.17468  0.49319  1.0000
  C   C353      1.0  0.69631  0.17537  0.56927  1.0000
  C   C354      1.0  0.72149  0.07248  0.55912  1.0000
  H   H559      1.0  0.73999  0.07187  0.56300  1.0000
  C   C355      1.0  0.73736  0.17437  0.38210  1.0000
  H   H560      1.0  0.72748  0.15969  0.38594  1.0000
  C   C356      1.0  0.75873  0.12331  0.33724  1.0000
  N   N36       1.0  0.71079  0.09613  0.55560  1.0000
  C   C357      1.0  0.77934  0.13262  0.33621  1.0000
  H   H561      1.0  0.71269  0.12496  0.52087  1.0000
  C   C358      1.0  0.72013  0.10699  0.52387  1.0000
  H   H562      1.0  0.71667  0.09797  0.49837  1.0000
  H   H563      1.0  0.73867  0.10702  0.52622  1.0000
  S   S135      1.0  0.71512  0.11418  0.41231  1.0000
  H   H564      1.0  0.75182  0.11891  0.36289  1.0000
  H   H565      1.0  0.78817  0.13543  0.36117  1.0000
  H   H566      1.0  0.75503  0.16748  0.37620  1.0000
  C   C359      1.0  0.70928  0.18785  0.51117  1.0000
  C   C360      1.0  0.71022  0.18804  0.54905  1.0000
  H   H567      1.0  0.69357  0.18535  0.36685  1.0000
  H   H568      1.0  0.73519  0.21988  0.32578  1.0000
  H   H569      1.0  0.72182  0.19799  0.56276  1.0000
  H   H570      1.0  0.75946  0.20141  0.34017  1.0000
  H   H571      1.0  0.72014  0.19770  0.49582  1.0000
  H   H572      1.0  0.70453  0.20870  0.38876  1.0000
  C   C361      1.0  0.70467  0.19904  0.36281  1.0000
  N   N37       1.0  0.72773  0.18948  0.35285  1.0000
  C   C362      1.0  0.74192  0.20814  0.34770  1.0000
  H   H573      1.0  0.74287  0.21834  0.37292  1.0000
  H   H574      1.0  0.69685  0.21067  0.34158  1.0000
  Fe  Fe69      1.0  0.67561  0.13537  0.72703  1.0000
  Fe  Fe70      1.0  0.63556  0.13763  0.67564  1.0000
  S   S136      1.0  0.65678  0.12786  0.62690  1.0000
  S   S137      1.0  0.59810  0.14746  0.67237  1.0000
  Fe  Fe71      1.0  0.67547  0.10269  0.66424  1.0000
  Fe  Fe72      1.0  0.67999  0.15171  0.64935  1.0000
  S   S138      1.0  0.65221  0.11000  0.71114  1.0000
  S   S139      1.0  0.65721  0.16388  0.69514  1.0000
  C   C363      1.0  0.58098  0.12924  0.69373  1.0000
  C   C364      1.0  0.58915  0.10691  0.70296  1.0000
  H   H575      1.0  0.60625  0.10035  0.69649  1.0000
  H   H576      1.0  0.58119  0.07539  0.72634  1.0000
  N   N38       1.0  0.61383  0.13583  0.80021  1.0000
  C   C365      1.0  0.57488  0.09272  0.71964  1.0000
  H   H577      1.0  0.63854  0.07804  0.64417  1.0000
  S   S140      1.0  0.68465  0.14035  0.78563  1.0000
  C   C366      1.0  0.62507  0.11251  0.79500  1.0000
  H   H578      1.0  0.64369  0.11245  0.79293  1.0000
  H   H579      1.0  0.61912  0.10466  0.76979  1.0000
  S   S141      1.0  0.68666  0.06704  0.64757  1.0000
  H   H580      1.0  0.58268  0.12824  0.77624  1.0000
  H   H581      1.0  0.61419  0.14322  0.74342  1.0000
  C   C367      1.0  0.61928  0.15030  0.76965  1.0000
  H   H582      1.0  0.61052  0.16785  0.77188  1.0000
  H   H583      1.0  0.63765  0.15170  0.76819  1.0000
  C   C368      1.0  0.58919  0.13519  0.80178  1.0000
  C   C369      1.0  0.55861  0.13734  0.70130  1.0000
  C   C370      1.0  0.55235  0.10077  0.72655  1.0000
  H   H584      1.0  0.56033  0.13825  0.62312  1.0000
  H   H585      1.0  0.62167  0.10121  0.81789  1.0000
  H   H586      1.0  0.58440  0.12426  0.82431  1.0000
  H   H587      1.0  0.55535  0.17166  0.58360  1.0000
  H   H588      1.0  0.58013  0.15250  0.80561  1.0000
  H   H589      1.0  0.55231  0.15470  0.69474  1.0000
  H   H590      1.0  0.55240  0.11995  0.58776  1.0000
  H   H591      1.0  0.67865  0.08807  0.57458  1.0000
  H   H592      1.0  0.70705  0.12682  0.58745  1.0000
  S   S142      1.0  0.70052  0.12557  0.68313  1.0000
  H   H593      1.0  0.70890  0.10104  0.61311  1.0000
  H   H594      1.0  0.70651  0.09883  0.75424  1.0000
  C   C371      1.0  0.70684  0.12066  0.80094  1.0000
  C   C372      1.0  0.73223  0.08613  0.79240  1.0000
  C   C373      1.0  0.71445  0.10167  0.77996  1.0000
  N   N39       1.0  0.78508  0.14659  0.80234  1.0000
  H   H595      1.0  0.73805  0.07153  0.77592  1.0000
  H   H596      1.0  0.76080  0.12467  0.78460  1.0000
  C   C374      1.0  0.77935  0.12489  0.78680  1.0000
  C   C375      1.0  0.77513  0.16570  0.77968  1.0000
  H   H597      1.0  0.78646  0.12194  0.75919  1.0000
  H   H598      1.0  0.73362  0.10990  0.59270  1.0000
  S   S143      1.0  0.69895  0.17527  0.61671  1.0000
  H   H599      1.0  0.75645  0.16620  0.77824  1.0000
  C   C376      1.0  0.71531  0.10905  0.58862  1.0000
  H   H600      1.0  0.78159  0.16422  0.75145  1.0000
  H   H601      1.0  0.78594  0.11011  0.80388  1.0000
  H   H602      1.0  0.77907  0.18234  0.79073  1.0000
  H   H603      1.0  0.64049  0.14589  0.83366  1.0000
  C   C377      1.0  0.62188  0.14534  0.83427  1.0000
  H   H604      1.0  0.61806  0.13491  0.85803  1.0000
  H   H605      1.0  0.61395  0.16303  0.83887  1.0000
  H   H606      1.0  0.71112  0.13860  0.85088  1.0000
  C   C378      1.0  0.73505  0.10858  0.84673  1.0000
  C   C379      1.0  0.79555  0.12222  0.03678  1.0000
  H   H607      1.0  0.78287  0.13492  0.85694  1.0000
  H   H608      1.0  0.78051  0.16514  0.85248  1.0000
  H   H609      1.0  0.75731  0.14979  0.83959  1.0000
  C   C380      1.0  0.77596  0.14927  0.83942  1.0000
  C   C381      1.0  0.79789  0.09979  0.04924  1.0000
  S   S144      1.0  0.78269  0.10997  0.92337  1.0000
  H   H610      1.0  0.79888  0.15717  0.04991  1.0000
  C   C382      1.0  0.74266  0.08961  0.82567  1.0000
  S   S145      1.0  0.76549  0.07028  0.83959  1.0000
  H   H611      1.0  0.78903  0.12606  0.00986  1.0000
  H   H612      1.0  0.74282  0.11122  0.87262  1.0000
  C   C383      1.0  0.71708  0.12402  0.83444  1.0000
  S   S146      1.0  0.79121  0.07776  0.02080  1.0000
  Fe  Fe73      1.0  0.78846  0.08128  0.88326  1.0000
  Fe  Fe74      1.0  0.79984  0.08514  0.96330  1.0000
  H   H613      1.0  0.71463  0.06380  0.58270  1.0000
  C   C384      1.0  0.76782  0.93152  0.31747  1.0000
  C   C385      1.0  0.75413  0.93013  0.28703  1.0000
  C   C386      1.0  0.73103  0.92864  0.29119  1.0000
  H   H614      1.0  0.76131  0.93004  0.26024  1.0000
  H   H615      1.0  0.72052  0.92754  0.26749  1.0000
  S   S147      1.0  0.79681  0.93357  0.31273  1.0000
  H   H616      1.0  0.66568  0.96032  0.52540  1.0000
  H   H617      1.0  0.67715  0.01413  0.29319  1.0000
  H   H618      1.0  0.70137  0.02653  0.30964  1.0000
  C   C387      1.0  0.68464  0.02158  0.31749  1.0000
  S   S148      1.0  0.79085  0.94575  0.20394  1.0000
  H   H619      1.0  0.79594  0.94140  0.12182  1.0000
  H   H620      1.0  0.79743  0.02637  0.23516  1.0000
  H   H621      1.0  0.69403  0.97596  0.31376  1.0000
  H   H622      1.0  0.77256  0.04772  0.30363  1.0000
  N   N40       1.0  0.79274  0.05933  0.26086  1.0000
  H   H623      1.0  0.76085  0.04582  0.25895  1.0000
  C   C388      1.0  0.77065  0.05629  0.27684  1.0000
  H   H624      1.0  0.78044  0.06097  0.20598  1.0000
  H   H625      1.0  0.67375  0.03748  0.32470  1.0000
  Fe  Fe75      1.0  0.63409  0.91087  0.41801  1.0000
  S   S149      1.0  0.60547  0.89109  0.40329  1.0000
  C   C389      1.0  0.58409  0.89168  0.43565  1.0000
  C   C390      1.0  0.58812  0.89675  0.47196  1.0000
  H   H626      1.0  0.60505  0.89839  0.48111  1.0000
  H   H627      1.0  0.64768  0.89677  0.51933  1.0000
  C   C391      1.0  0.57015  0.89978  0.49647  1.0000
  H   H628      1.0  0.57325  0.90399  0.52442  1.0000
  C   C392      1.0  0.56228  0.88872  0.42426  1.0000
  H   H629      1.0  0.55919  0.88446  0.39631  1.0000
  H   H630      1.0  0.62167  0.89142  0.57001  1.0000
  S   S150      1.0  0.63581  0.93250  0.46760  1.0000
  H   H631      1.0  0.58762  0.93729  0.43517  1.0000
  C   C393      1.0  0.65260  0.90028  0.54676  1.0000
  H   H632      1.0  0.55307  0.93261  0.39704  1.0000
  C   C394      1.0  0.72151  0.92839  0.32577  1.0000
  S   S151      1.0  0.69233  0.92749  0.32943  1.0000
  C   C395      1.0  0.75832  0.93133  0.35215  1.0000
  S   S152      1.0  0.67053  0.89683  0.41843  1.0000
  C   C396      1.0  0.67356  0.90789  0.55363  1.0000
  Fe  Fe76      1.0  0.67275  0.92093  0.46530  1.0000
  S   S153      1.0  0.69114  0.91442  0.51796  1.0000
  C   C397      1.0  0.73517  0.92976  0.35634  1.0000
  Fe  Fe77      1.0  0.67573  0.92714  0.38405  1.0000
  H   H633      1.0  0.72792  0.92954  0.38311  1.0000
  H   H634      1.0  0.76887  0.93235  0.37581  1.0000
  S   S154      1.0  0.63900  0.93926  0.38016  1.0000
  H   H635      1.0  0.56847  0.95256  0.46617  1.0000
  H   H636      1.0  0.58705  0.94600  0.37141  1.0000
  H   H637      1.0  0.57052  0.97103  0.35460  1.0000
  C   C398      1.0  0.58010  0.96374  0.37849  1.0000
  S   S155      1.0  0.62629  0.99474  0.43431  1.0000
  H   H638      1.0  0.62536  0.04301  0.42508  1.0000
  N   N41       1.0  0.56569  0.96415  0.41096  1.0000
  H   H639      1.0  0.59462  0.97372  0.38294  1.0000
  C   C399      1.0  0.57912  0.95441  0.44193  1.0000
  H   H640      1.0  0.59249  0.96516  0.44961  1.0000
  H   H641      1.0  0.57061  0.99862  0.42474  1.0000
  Fe  Fe78      1.0  0.64412  0.95952  0.42972  1.0000
  C   C400      1.0  0.64096  0.03670  0.43839  1.0000
  H   H642      1.0  0.62919  0.98312  0.51424  1.0000
  C   C401      1.0  0.64528  0.01371  0.44735  1.0000
  H   H643      1.0  0.63144  0.94903  0.55458  1.0000
  C   C402      1.0  0.63214  0.99343  0.53872  1.0000
  H   H644      1.0  0.61543  0.99991  0.55007  1.0000
  N   N42       1.0  0.64616  0.97994  0.56571  1.0000
  H   H645      1.0  0.64028  0.00847  0.52963  1.0000
  C   C403      1.0  0.55677  0.98788  0.41937  1.0000
  S   S156      1.0  0.68144  0.95001  0.43081  1.0000
  H   H646      1.0  0.70275  0.97190  0.35987  1.0000
  H   H647      1.0  0.67880  0.96062  0.56886  1.0000
  H   H648      1.0  0.65607  0.99094  0.33456  1.0000
  H   H649      1.0  0.71835  0.98816  0.33012  1.0000
  C   C404      1.0  0.70108  0.98453  0.33743  1.0000
  H   H650      1.0  0.71848  0.06223  0.53465  1.0000
  H   H651      1.0  0.65248  0.01464  0.36555  1.0000
  C   C405      1.0  0.66399  0.99935  0.35753  1.0000
  H   H652      1.0  0.66480  0.98734  0.38071  1.0000
  H   H653      1.0  0.66849  0.98813  0.47266  1.0000
  N   N43       1.0  0.68658  0.00534  0.34798  1.0000
  S   S157      1.0  0.69961  0.06051  0.46382  1.0000
  H   H654      1.0  0.68612  0.03169  0.38818  1.0000
  H   H655      1.0  0.69815  0.00412  0.40315  1.0000
  C   C406      1.0  0.65730  0.05144  0.44508  1.0000
  H   H656      1.0  0.71370  0.02054  0.37352  1.0000
  H   H657      1.0  0.67752  0.98539  0.54054  1.0000
  C   C407      1.0  0.67780  0.04322  0.46119  1.0000
  H   H658      1.0  0.69740  0.01413  0.48463  1.0000
  C   C408      1.0  0.66537  0.00572  0.46485  1.0000
  C   C409      1.0  0.69659  0.01588  0.37956  1.0000
  C   C410      1.0  0.68157  0.02051  0.47210  1.0000
  C   C411      1.0  0.66798  0.97127  0.54939  1.0000
  S   S158      1.0  0.64933  0.91732  0.74121  1.0000
  S   S159      1.0  0.62498  0.90003  0.64662  1.0000
  H   H659      1.0  0.63423  0.84428  0.72743  1.0000
  H   H660      1.0  0.60035  0.90106  0.73341  1.0000
  N   N44       1.0  0.60420  0.86527  0.74378  1.0000
  C   C412      1.0  0.61255  0.86874  0.78089  1.0000
  C   C413      1.0  0.59058  0.88622  0.73151  1.0000
  C   C414      1.0  0.59010  0.84626  0.74367  1.0000
  H   H661      1.0  0.58520  0.88488  0.70277  1.0000
  H   H662      1.0  0.61779  0.85747  0.69070  1.0000
  H   H663      1.0  0.57536  0.84982  0.76206  1.0000
  C   C415      1.0  0.62347  0.85995  0.71906  1.0000
  H   H664      1.0  0.63434  0.87404  0.71823  1.0000
  C   C416      1.0  0.64430  0.90136  0.61117  1.0000
  Fe  Fe79      1.0  0.63156  0.92578  0.68877  1.0000
  H   H665      1.0  0.62328  0.85348  0.79093  1.0000
  C   C417      1.0  0.56318  0.93053  0.78788  1.0000
  H   H666      1.0  0.62274  0.88340  0.78224  1.0000
  H   H667      1.0  0.57523  0.89009  0.74837  1.0000
  H   H668      1.0  0.59840  0.87249  0.80026  1.0000
  S   S160      1.0  0.60586  0.93021  0.81687  1.0000
  H   H669      1.0  0.58345  0.84331  0.71607  1.0000
  H   H670      1.0  0.59981  0.83015  0.75284  1.0000
  C   C418      1.0  0.57863  0.92192  0.81439  1.0000
  C   C419      1.0  0.63801  0.89695  0.57552  1.0000
  C   C420      1.0  0.66557  0.90820  0.61812  1.0000
  H   H671      1.0  0.67075  0.91118  0.64564  1.0000
  C   C421      1.0  0.74486  0.92921  0.81978  1.0000
  H   H672      1.0  0.69651  0.91694  0.59491  1.0000
  C   C422      1.0  0.69832  0.93494  0.80762  1.0000
  H   H673      1.0  0.68033  0.93726  0.80309  1.0000
  C   C423      1.0  0.68020  0.91136  0.58941  1.0000
  C   C424      1.0  0.73623  0.93750  0.78646  1.0000
  H   H674      1.0  0.56773  0.94297  0.76872  1.0000
  Fe  Fe80      1.0  0.62121  0.94079  0.76529  1.0000
  C   C425      1.0  0.64221  0.06095  0.65459  1.0000
  S   S161      1.0  0.60209  0.94684  0.71346  1.0000
  H   H675      1.0  0.56567  0.04058  0.78135  1.0000
  C   C426      1.0  0.56055  0.99588  0.79425  1.0000
  C   C427      1.0  0.56763  0.02843  0.75826  1.0000
  H   H676      1.0  0.58573  0.02169  0.75626  1.0000
  Fe  Fe81      1.0  0.62265  0.97589  0.70679  1.0000
  S   S162      1.0  0.63921  0.97198  0.76120  1.0000
  S   S163      1.0  0.60738  0.00978  0.68661  1.0000
  C   C428      1.0  0.62927  0.02625  0.67736  1.0000
  C   C429      1.0  0.62454  0.04828  0.66361  1.0000
  H   H677      1.0  0.57271  0.98884  0.72409  1.0000
  H   H678      1.0  0.57810  0.98758  0.79093  1.0000
  N   N45       1.0  0.55316  0.00989  0.76239  1.0000
  C   C430      1.0  0.55496  0.99546  0.72962  1.0000
  H   H679      1.0  0.63401  0.00052  0.61116  1.0000
  H   H680      1.0  0.60726  0.05555  0.65994  1.0000
  S   S164      1.0  0.65041  0.95544  0.67692  1.0000
  C   C431      1.0  0.65006  0.99449  0.59720  1.0000
  C   C432      1.0  0.63442  0.96055  0.57758  1.0000
  H   H681      1.0  0.61790  0.96631  0.59024  1.0000
  H   H682      1.0  0.64452  0.95010  0.59800  1.0000
  H   H683      1.0  0.56006  0.00630  0.81939  1.0000
  C   C433      1.0  0.65162  0.01702  0.68238  1.0000
  H   H684      1.0  0.56332  0.03841  0.73315  1.0000
  C   C434      1.0  0.71297  0.94048  0.78041  1.0000
  Fe  Fe82      1.0  0.66566  0.94913  0.73199  1.0000
  H   H685      1.0  0.66134  0.98515  0.61750  1.0000
  H   H686      1.0  0.74756  0.94140  0.76517  1.0000
  S   S165      1.0  0.70257  0.95172  0.73908  1.0000
  H   H687      1.0  0.65546  0.00042  0.69422  1.0000
  C   C435      1.0  0.66456  0.05131  0.65845  1.0000
  H   H688      1.0  0.75979  0.02921  0.78774  1.0000
  C   C436      1.0  0.77192  0.98460  0.79836  1.0000
  C   C437      1.0  0.66925  0.02933  0.67219  1.0000
  H   H689      1.0  0.68652  0.02204  0.67594  1.0000
  H   H690      1.0  0.73580  0.01382  0.78049  1.0000
  H   H691      1.0  0.76146  0.97844  0.77621  1.0000
  H   H692      1.0  0.77980  0.96937  0.81322  1.0000
  H   H693      1.0  0.78582  0.99282  0.78569  1.0000
  C   C438      1.0  0.74721  0.01970  0.80158  1.0000
  N   N46       1.0  0.75832  0.00043  0.82278  1.0000
  H   H694      1.0  0.72952  0.98164  0.82030  1.0000
  H   H695      1.0  0.73701  0.03213  0.81927  1.0000
  H   H696      1.0  0.65812  0.00980  0.58915  1.0000
  S   S166      1.0  0.79089  0.94707  0.90050  1.0000
  C   C439      1.0  0.55124  0.89830  0.83754  1.0000
  C   C440      1.0  0.57247  0.90609  0.83948  1.0000
  H   H697      1.0  0.58427  0.89959  0.86024  1.0000
  H   H698      1.0  0.74497  0.89586  0.04872  1.0000
  H   H699      1.0  0.76281  0.92701  0.82425  1.0000
  H   H700      1.0  0.72153  0.89597  0.99278  1.0000
  C   C441      1.0  0.70697  0.92648  0.84090  1.0000
  C   C442      1.0  0.73182  0.90874  0.98123  1.0000
  H   H701      1.0  0.72110  0.91918  0.96138  1.0000
  H   H702      1.0  0.74575  0.89929  0.96552  1.0000
  S   S167      1.0  0.74087  0.91343  0.88890  1.0000
  C   C443      1.0  0.73023  0.92362  0.84700  1.0000
  H   H703      1.0  0.69560  0.92218  0.86189  1.0000
  Fe  Fe83      1.0  0.77825  0.91340  0.89208  1.0000
  C   C444      1.0  0.75469  0.90841  0.03518  1.0000
  N   N47       1.0  0.74056  0.92303  0.00972  1.0000
  H   H704      1.0  0.76908  0.89865  0.02101  1.0000
  H   H705      1.0  0.76889  0.93082  0.97832  1.0000
  H   H706      1.0  0.71089  0.92346  0.04252  1.0000
  C   C445      1.0  0.72155  0.93542  0.02954  1.0000
  H   H707      1.0  0.76181  0.91864  0.05683  1.0000
  S   S168      1.0  0.79723  0.89660  0.93886  1.0000
  H   H708      1.0  0.79944  0.99833  0.02419  1.0000
  H   H709      1.0  0.76099  0.95076  0.01359  1.0000
  H   H710      1.0  0.76332  0.02063  0.87008  1.0000
  H   H711      1.0  0.78259  0.99503  0.86597  1.0000
  C   C446      1.0  0.75419  0.93956  0.99294  1.0000
  H   H712      1.0  0.72764  0.94629  0.05134  1.0000
  C   C447      1.0  0.77309  0.00913  0.85052  1.0000
  H   H713      1.0  0.78568  0.01924  0.83805  1.0000
  C   C448      1.0  0.74101  0.98831  0.84056  1.0000
  H   H714      1.0  0.73045  0.99971  0.85926  1.0000
  H   H715      1.0  0.74423  0.95054  0.97289  1.0000
  H   H716      1.0  0.71057  0.94666  0.01109  1.0000
  H   H717      1.0  0.74876  0.97351  0.85654  1.0000
  H   H718      1.0  0.79738  0.02683  0.00651  1.0000
  Fe  Fe84      1.0  0.87928  0.15223  0.21458  1.0000
  S   S169      1.0  0.91441  0.16305  0.21438  1.0000
  Fe  Fe85      1.0  0.86246  0.10564  0.21170  1.0000
  S   S170      1.0  0.87312  0.12873  0.16886  1.0000
  S   S171      1.0  0.87064  0.12801  0.25753  1.0000
  S   S172      1.0  0.87804  0.06944  0.21565  1.0000
  Fe  Fe86      1.0  0.83502  0.14392  0.25196  1.0000
  S   S173      1.0  0.84432  0.17074  0.21330  1.0000
  Fe  Fe87      1.0  0.83752  0.14493  0.17104  1.0000
  H   H719      1.0  0.83953  0.07430  0.16763  1.0000
  N   N48       1.0  0.94055  0.09253  0.22429  1.0000
  H   H720      1.0  0.93418  0.09656  0.28140  1.0000
  S   S174      1.0  0.82598  0.11929  0.20957  1.0000
  C   C449      1.0  0.92603  0.10093  0.25485  1.0000
  H   H721      1.0  0.90981  0.09334  0.25440  1.0000
  S   S175      1.0  0.81432  0.15003  0.30272  1.0000
  S   S176      1.0  0.81971  0.15675  0.11985  1.0000
  H   H722      1.0  0.92200  0.11977  0.25391  1.0000
  H   H723      1.0  0.81954  0.10846  0.13288  1.0000
  H   H724      1.0  0.87711  0.14213  0.07836  1.0000
  C   C450      1.0  0.92924  0.09922  0.18970  1.0000
  H   H725      1.0  0.92560  0.11803  0.18752  1.0000
  H   H726      1.0  0.91291  0.09200  0.18709  1.0000
  C   C451      1.0  0.81255  0.11240  0.10639  1.0000
  H   H727      1.0  0.93971  0.09315  0.16606  1.0000
  H   H728      1.0  0.80557  0.07427  0.21341  1.0000
  C   C452      1.0  0.80535  0.07306  0.28555  1.0000
  C   C453      1.0  0.94478  0.06744  0.22608  1.0000
  H   H729      1.0  0.80790  0.07759  0.09401  1.0000
  C   C454      1.0  0.81004  0.13487  0.09401  1.0000
  C   C455      1.0  0.80608  0.09492  0.08426  1.0000
  H   H730      1.0  0.82190  0.07616  0.27383  1.0000
  C   C456      1.0  0.96207  0.10258  0.22656  1.0000
  H   H731      1.0  0.95920  0.12154  0.22541  1.0000
  H   H732      1.0  0.97346  0.09673  0.20385  1.0000
  H   H733      1.0  0.97108  0.09791  0.25235  1.0000
  H   H734      1.0  0.95412  0.18564  0.21891  1.0000
  H   H735      1.0  0.92633  0.19383  0.09981  1.0000
  C   C457      1.0  0.91792  0.19204  0.21897  1.0000
  C   C458      1.0  0.92479  0.23819  0.22463  1.0000
  C   C459      1.0  0.90292  0.23175  0.22385  1.0000
  C   C460      1.0  0.89947  0.20869  0.22086  1.0000
  H   H736      1.0  0.88859  0.24461  0.22538  1.0000
  H   H737      1.0  0.88256  0.20384  0.22013  1.0000
  S   S177      1.0  0.92872  0.26712  0.22766  1.0000
  H   H738      1.0  0.91981  0.28542  0.09519  1.0000
  H   H739      1.0  0.91955  0.24525  0.10811  1.0000
  H   H740      1.0  0.92148  0.22528  0.14489  1.0000
  C   C461      1.0  0.93152  0.23512  0.12654  1.0000
  H   H741      1.0  0.89886  0.30372  0.31144  1.0000
  H   H742      1.0  0.04736  0.30115  0.09261  1.0000
  C   C462      1.0  0.93456  0.29048  0.08192  1.0000
  C   C463      1.0  0.93979  0.19850  0.22003  1.0000
  C   C464      1.0  0.94324  0.22154  0.22260  1.0000
  H   H743      1.0  0.93965  0.24739  0.14375  1.0000
  H   H744      1.0  0.93044  0.30831  0.27038  1.0000
  N   N49       1.0  0.04970  0.26558  0.07893  1.0000
  C   C465      1.0  0.03835  0.25937  0.11235  1.0000
  H   H745      1.0  0.02519  0.27312  0.12082  1.0000
  H   H746      1.0  0.95411  0.19532  0.14851  1.0000
  H   H747      1.0  0.96991  0.24645  0.09866  1.0000
  Fe  Fe88      1.0  0.99225  0.29975  0.16667  1.0000
  S   S178      1.0  0.98380  0.26392  0.16843  1.0000
  S   S179      1.0  0.99296  0.26547  0.25563  1.0000
  Fe  Fe89      1.0  0.01347  0.25823  0.20544  1.0000
  S   S180      1.0  0.03823  0.22749  0.19749  1.0000
  Fe  Fe90      1.0  0.96413  0.27503  0.21790  1.0000
  S   S181      1.0  0.02356  0.29326  0.20031  1.0000
  H   H748      1.0  0.96016  0.22639  0.22345  1.0000
  C   C466      1.0  0.95159  0.29890  0.10256  1.0000
  Fe  Fe91      1.0  0.00064  0.30138  0.24767  1.0000
  N   N50       1.0  0.94831  0.22000  0.10597  1.0000
  H   H749      1.0  0.97206  0.21765  0.15003  1.0000
  C   C467      1.0  0.96351  0.20650  0.13143  1.0000
  H   H750      1.0  0.97682  0.19543  0.11686  1.0000
  C   C468      1.0  0.96157  0.23379  0.08268  1.0000
  H   H751      1.0  0.03013  0.24354  0.10873  1.0000
  C   C469      1.0  0.97065  0.30563  0.08550  1.0000
  H   H752      1.0  0.95158  0.54182  0.43711  1.0000
  C   C470      1.0  0.93654  0.20449  0.08310  1.0000
  H   H753      1.0  0.94990  0.30032  0.13165  1.0000
  S   S182      1.0  0.97012  0.31172  0.21331  1.0000
  H   H754      1.0  0.93090  0.27346  0.30737  1.0000
  H   H755      1.0  0.04522  0.26287  0.31668  1.0000
  C   C471      1.0  0.93902  0.31619  0.29322  1.0000
  H   H756      1.0  0.93451  0.33493  0.29153  1.0000
  H   H757      1.0  0.95746  0.31269  0.28874  1.0000
  S   S183      1.0  0.01280  0.31722  0.29847  1.0000
  S   S184      1.0  0.99288  0.31450  0.11104  1.0000
  H   H758      1.0  0.95121  0.37947  0.29627  1.0000
  C   C472      1.0  0.97862  0.35244  0.29621  1.0000
  H   H759      1.0  0.97662  0.34835  0.26794  1.0000
  C   C473      1.0  0.96430  0.37007  0.31221  1.0000
  C   C474      1.0  0.99557  0.34033  0.31679  1.0000
  H   H760      1.0  0.03475  0.52375  0.31939  1.0000
  H   H761      1.0  0.90270  0.30519  0.35968  1.0000
  C   C475      1.0  0.93937  0.28232  0.32935  1.0000
  H   H762      1.0  0.93491  0.27480  0.35557  1.0000
  H   H763      1.0  0.95784  0.27825  0.32539  1.0000
  N   N51       1.0  0.93271  0.30715  0.32849  1.0000
  C   C476      1.0  0.90811  0.31183  0.33333  1.0000
  H   H764      1.0  0.90260  0.33045  0.33268  1.0000
  H   H765      1.0  0.90992  0.42796  0.57016  1.0000
  H   H766      1.0  0.94225  0.36419  0.57270  1.0000
  H   H767      1.0  0.94003  0.31201  0.38493  1.0000
  H   H768      1.0  0.93347  0.40653  0.56578  1.0000
  C   C477      1.0  0.94441  0.31829  0.35778  1.0000
  H   H769      1.0  0.96302  0.31511  0.35481  1.0000
  H   H770      1.0  0.93996  0.33711  0.35760  1.0000
  C   C478      1.0  0.99616  0.37463  0.55577  1.0000
  C   C479      1.0  0.99843  0.34613  0.35314  1.0000
  H   H771      1.0  0.01141  0.33672  0.36926  1.0000
  H   H772      1.0  0.98596  0.36758  0.39747  1.0000
  C   C480      1.0  0.98415  0.36374  0.36908  1.0000
  C   C481      1.0  0.96714  0.37584  0.34862  1.0000
  H   H773      1.0  0.96596  0.37721  0.52346  1.0000
  S   S185      1.0  0.01259  0.38681  0.52351  1.0000
  C   C482      1.0  0.97334  0.37277  0.54953  1.0000
  Fe  Fe92      1.0  0.96524  0.41541  0.41379  1.0000
  S   S186      1.0  0.95550  0.41327  0.47233  1.0000
  S   S187      1.0  0.00225  0.40806  0.42416  1.0000
  S   S188      1.0  0.94884  0.39757  0.36853  1.0000
  Fe  Fe93      1.0  0.99272  0.40904  0.48279  1.0000
  H   H774      1.0  0.04046  0.42276  0.45170  1.0000
  H   H775      1.0  0.03684  0.42877  0.54192  1.0000
  C   C483      1.0  0.92862  0.42502  0.57005  1.0000
  C   C484      1.0  0.04884  0.43713  0.55926  1.0000
  H   H776      1.0  0.93455  0.43395  0.54606  1.0000
  H   H777      1.0  0.88587  0.54486  0.48478  1.0000
  H   H778      1.0  0.89516  0.50604  0.50924  1.0000
  C   C485      1.0  0.97586  0.56080  0.56986  1.0000
  S   S189      1.0  0.02997  0.46436  0.41121  1.0000
  H   H779      1.0  0.94586  0.56115  0.51564  1.0000
  H   H780      1.0  0.03934  0.45213  0.57247  1.0000
  S   S190      1.0  0.99499  0.44631  0.48918  1.0000
  S   S191      1.0  0.96521  0.45350  0.41393  1.0000
  C   C486      1.0  0.91812  0.54596  0.45952  1.0000
  H   H781      1.0  0.94751  0.51504  0.55356  1.0000
  H   H782      1.0  0.98348  0.56215  0.54259  1.0000
  Fe  Fe94      1.0  0.00146  0.44578  0.42962  1.0000
  H   H783      1.0  0.96044  0.50220  0.45993  1.0000
  C   C487      1.0  0.93922  0.53394  0.45258  1.0000
  C   C488      1.0  0.90217  0.53564  0.47933  1.0000
  C   C489      1.0  0.90744  0.51369  0.49323  1.0000
  H   H784      1.0  0.92365  0.55103  0.54148  1.0000
  N   N52       1.0  0.95578  0.54831  0.56838  1.0000
  C   C490      1.0  0.93898  0.56004  0.54342  1.0000
  H   H785      1.0  0.04418  0.54466  0.41294  1.0000
  C   C491      1.0  0.96231  0.52490  0.55521  1.0000
  C   C492      1.0  0.94420  0.51153  0.46540  1.0000
  H   H786      1.0  0.04276  0.51481  0.41768  1.0000
  H   H787      1.0  0.02314  0.54222  0.35485  1.0000
  H   H788      1.0  0.96969  0.52492  0.52757  1.0000
  H   H789      1.0  0.02371  0.51199  0.35962  1.0000
  S   S192      1.0  0.93484  0.47466  0.50612  1.0000
  C   C493      1.0  0.92835  0.50152  0.48613  1.0000
  Fe  Fe95      1.0  0.95873  0.45077  0.47343  1.0000
  C   C494      1.0  0.03338  0.52569  0.34926  1.0000
  H   H790      1.0  0.80868  0.06447  0.31209  1.0000
  H   H791      1.0  0.97495  0.51547  0.57335  1.0000
  H   H792      1.0  0.81738  0.14461  0.77617  1.0000
  C   C495      1.0  0.80981  0.14651  0.80361  1.0000
  H   H793      1.0  0.81473  0.16250  0.81579  1.0000
  H   H794      1.0  0.81780  0.13231  0.82061  1.0000
  H   H795      1.0  0.94271  0.29623  0.78389  1.0000
  H   H796      1.0  0.04874  0.29525  0.78517  1.0000
  C   C496      1.0  0.03799  0.28832  0.80603  1.0000
  H   H797      1.0  0.02419  0.28073  0.79169  1.0000
  C   C497      1.0  0.94789  0.30508  0.80766  1.0000
  H   H798      1.0  0.04848  0.27426  0.82008  1.0000
  H   H799      1.0  0.91183  0.42279  0.63743  1.0000
  C   C498      1.0  0.01536  0.32450  0.81198  1.0000
  C   C499      1.0  0.04292  0.41523  0.61260  1.0000
  H   H800      1.0  0.95008  0.33661  0.77924  1.0000
  S   S193      1.0  0.98955  0.35634  0.73754  1.0000
  C   C500      1.0  0.96933  0.36026  0.61149  1.0000
  H   H801      1.0  0.99976  0.35662  0.64327  1.0000
  S   S194      1.0  0.95186  0.35613  0.64828  1.0000
  Fe  Fe96      1.0  0.96606  0.37323  0.69593  1.0000
  C   C501      1.0  0.99236  0.36104  0.61711  1.0000
  Fe  Fe97      1.0  0.96989  0.37970  0.77671  1.0000
  Fe  Fe98      1.0  0.00914  0.38590  0.72881  1.0000
  Fe  Fe99      1.0  0.96803  0.42055  0.72640  1.0000
  S   S195      1.0  0.98767  0.40071  0.68339  1.0000
  S   S196      1.0  0.94435  0.39418  0.73573  1.0000
  S   S197      1.0  0.99160  0.40811  0.77127  1.0000
  C   C502      1.0  0.95207  0.32792  0.80499  1.0000
  S   S198      1.0  0.04659  0.38129  0.72651  1.0000
  C   C503      1.0  0.04161  0.42608  0.70577  1.0000
  H   H802      1.0  0.02369  0.42557  0.70823  1.0000
  H   H803      1.0  0.02361  0.36842  0.59369  1.0000
  C   C504      1.0  0.00583  0.36783  0.58909  1.0000
  H   H804      1.0  0.02891  0.40773  0.59874  1.0000
  C   C505      1.0  0.93046  0.42024  0.63489  1.0000
  H   H805      1.0  0.93546  0.40165  0.63191  1.0000
  H   H806      1.0  0.00091  0.31798  0.79773  1.0000
  H   H807      1.0  0.00493  0.55974  0.86299  1.0000
  H   H808      1.0  0.02552  0.33237  0.79124  1.0000
  H   H809      1.0  0.93769  0.42560  0.66092  1.0000
  H   H810      1.0  0.03541  0.43047  0.62771  1.0000
  H   H811      1.0  0.96924  0.41092  0.60001  1.0000
  C   C506      1.0  0.95999  0.36523  0.57726  1.0000
  C   C507      1.0  0.96315  0.42934  0.60212  1.0000
  N   N53       1.0  0.93832  0.43303  0.60397  1.0000
  H   H812      1.0  0.97095  0.43601  0.62680  1.0000
  H   H813      1.0  0.96959  0.43793  0.57812  1.0000
  H   H814      1.0  0.04569  0.42525  0.78032  1.0000
  H   H815      1.0  0.04645  0.44814  0.81182  1.0000
  H   H816      1.0  0.91244  0.46100  0.61018  1.0000
  H   H817      1.0  0.93091  0.53794  0.60494  1.0000
  H   H818      1.0  0.03840  0.46160  0.69107  1.0000
  C   C508      1.0  0.93109  0.45756  0.60886  1.0000
  S   S199      1.0  0.00750  0.53321  0.78102  1.0000
  S   S200      1.0  0.95535  0.45656  0.71125  1.0000
  C   C509      1.0  0.97047  0.47764  0.72992  1.0000
  C   C510      1.0  0.98975  0.47187  0.75096  1.0000
  C   C511      1.0  0.00117  0.48900  0.76652  1.0000
  C   C512      1.0  0.99348  0.51193  0.76067  1.0000
  C   C513      1.0  0.97451  0.51774  0.73900  1.0000
  C   C514      1.0  0.96299  0.50060  0.72375  1.0000
  H   H819      1.0  0.99587  0.45426  0.75528  1.0000
  H   H820      1.0  0.01597  0.48447  0.78296  1.0000
  H   H821      1.0  0.96851  0.53542  0.73432  1.0000
  H   H822      1.0  0.94810  0.50515  0.70747  1.0000
  H   H823      1.0  0.04070  0.55444  0.73461  1.0000
  H   H824      1.0  0.93801  0.46408  0.63443  1.0000
  H   H825      1.0  0.93681  0.46767  0.58596  1.0000
  H   H826      1.0  0.94954  0.53691  0.86026  1.0000
  H   H827      1.0  0.95827  0.53931  0.62485  1.0000
  C   C515      1.0  0.94593  0.54750  0.60494  1.0000
  H   H828      1.0  0.96253  0.54974  0.82301  1.0000
  H   H829      1.0  0.98898  0.55237  0.58825  1.0000
  C   C516      1.0  0.04993  0.44652  0.69628  1.0000
  C   C517      1.0  0.80115  0.13979  0.05944  1.0000
  H   H830      1.0  0.83469  0.17300  0.05413  1.0000
  C   C518      1.0  0.86765  0.13728  0.05409  1.0000
  H   H831      1.0  0.87714  0.12199  0.04162  1.0000
  Fe  Fe100     1.0  0.83572  0.06686  0.91084  1.0000
  S   S201      1.0  0.82243  0.08974  0.86569  1.0000
  S   S202      1.0  0.83447  0.09448  0.95249  1.0000
  Fe  Fe101     1.0  0.81793  0.11668  0.90867  1.0000
  S   S203      1.0  0.82541  0.15250  0.89657  1.0000
  S   S204      1.0  0.92402  0.17085  0.94094  1.0000
  C   C519      1.0  0.85360  0.15750  0.90382  1.0000
  C   C520      1.0  0.89746  0.16621  0.92330  1.0000
  C   C521      1.0  0.89195  0.14382  0.92078  1.0000
  C   C522      1.0  0.87015  0.13945  0.91086  1.0000
  H   H832      1.0  0.90453  0.12976  0.92705  1.0000
  H   H833      1.0  0.86606  0.12211  0.90945  1.0000
  N   N54       1.0  0.86397  0.15621  0.02793  1.0000
  H   H834      1.0  0.83396  0.14429  0.00608  1.0000
  C   C523      1.0  0.85048  0.14922  0.99714  1.0000
  H   H835      1.0  0.85929  0.13430  0.98271  1.0000
  H   H836      1.0  0.84696  0.16322  0.97720  1.0000
  H   H837      1.0  0.89540  0.14739  0.00031  1.0000
  C   C524      1.0  0.85923  0.17991  0.90524  1.0000
  C   C525      1.0  0.88592  0.16201  0.01468  1.0000
  H   H838      1.0  0.88378  0.17638  0.99512  1.0000
  C   C526      1.0  0.85182  0.17636  0.04565  1.0000
  C   C527      1.0  0.88113  0.18427  0.91498  1.0000
  H   H839      1.0  0.89670  0.16706  0.03719  1.0000
  H   H840      1.0  0.86072  0.18135  0.07042  1.0000
  H   H841      1.0  0.85142  0.13210  0.06386  1.0000
  C   C528      1.0  0.97273  0.55571  0.91297  1.0000
  H   H842      1.0  0.84969  0.19123  0.02706  1.0000
  H   H843      1.0  0.84649  0.19394  0.89981  1.0000
  S   S205      1.0  0.91673  0.23903  0.92754  1.0000
  S   S206      1.0  0.91735  0.27407  0.01948  1.0000
  H   H844      1.0  0.88519  0.20159  0.91695  1.0000
  Fe  Fe102     1.0  0.93675  0.20544  0.93887  1.0000
  H   H845      1.0  0.90246  0.28665  0.94581  1.0000
  H   H846      1.0  0.92493  0.21420  0.06355  1.0000
  H   H847      1.0  0.88753  0.29281  0.90407  1.0000
  C   C529      1.0  0.90191  0.29723  0.92087  1.0000
  H   H848      1.0  0.91751  0.29192  0.90527  1.0000
  H   H849      1.0  0.94867  0.19288  0.06704  1.0000
  H   H850      1.0  0.97487  0.22302  0.06755  1.0000
  Fe  Fe103     1.0  0.93441  0.25164  0.97607  1.0000
  H   H851      1.0  0.00076  0.28822  0.84554  1.0000
  H   H852      1.0  0.02506  0.25343  0.04325  1.0000
  C   C530      1.0  0.95700  0.30527  0.87139  1.0000
  C   C531      1.0  0.03302  0.26919  0.04930  1.0000
  C   C532      1.0  0.93698  0.28792  0.04440  1.0000
  H   H853      1.0  0.04095  0.27434  0.02382  1.0000
  H   H854      1.0  0.02459  0.28280  0.87513  1.0000
  H   H855      1.0  0.04273  0.23976  0.85653  1.0000
  C   C533      1.0  0.04597  0.24004  0.88533  1.0000
  S   S207      1.0  0.94442  0.26524  0.84362  1.0000
  Fe  Fe104     1.0  0.97972  0.22694  0.95533  1.0000
  S   S208      1.0  0.96352  0.26214  0.94511  1.0000
  S   S209      1.0  0.01490  0.22384  0.97774  1.0000
  Fe  Fe105     1.0  0.94752  0.24712  0.89737  1.0000
  S   S210      1.0  0.95178  0.21739  0.99032  1.0000
  S   S211      1.0  0.96637  0.21230  0.90459  1.0000
  C   C534      1.0  0.95023  0.29371  0.84092  1.0000
  H   H856      1.0  0.95928  0.29667  0.89688  1.0000
  C   C535      1.0  0.95573  0.29528  0.02738  1.0000
  H   H857      1.0  0.01462  0.22730  0.89932  1.0000
  C   C536      1.0  0.03437  0.23270  0.94680  1.0000
  C   C537      1.0  0.03005  0.23295  0.90952  1.0000
  H   H858      1.0  0.95740  0.29425  0.99844  1.0000
  C   C538      1.0  0.97238  0.30438  0.04781  1.0000
  H   H859      1.0  0.95070  0.24344  0.06226  1.0000
  C   C539      1.0  0.01472  0.29618  0.85880  1.0000
  H   H860      1.0  0.98686  0.31000  0.03445  1.0000
  N   N55       1.0  0.02898  0.30614  0.83185  1.0000
  H   H861      1.0  0.01936  0.28281  0.05634  1.0000
  H   H862      1.0  0.00707  0.30929  0.87805  1.0000
  H   H863      1.0  0.92033  0.31694  0.97779  1.0000
  H   H864      1.0  0.86386  0.32402  0.93534  1.0000
  H   H865      1.0  0.88414  0.33209  0.87919  1.0000
  H   H866      1.0  0.87929  0.31774  0.97660  1.0000
  C   C540      1.0  0.87902  0.32768  0.95093  1.0000
  N   N56       1.0  0.89983  0.32171  0.92990  1.0000
  C   C541      1.0  0.89893  0.33517  0.89614  1.0000
  H   H867      1.0  0.89792  0.35375  0.90182  1.0000
  H   H868      1.0  0.87687  0.34605  0.95830  1.0000
  H   H869      1.0  0.91414  0.33065  0.87923  1.0000
  H   H870      1.0  0.91862  0.34502  0.95887  1.0000
  C   C542      1.0  0.91942  0.32664  0.95191  1.0000
  H   H871      1.0  0.04286  0.39674  0.82670  1.0000
  H   H872      1.0  0.04158  0.32909  0.87018  1.0000
  H   H873      1.0  0.00822  0.33830  0.83053  1.0000
  H   H874      1.0  0.04129  0.41904  0.86000  1.0000
  H   H875      1.0  0.96609  0.33703  0.89262  1.0000
  S   S212      1.0  0.96390  0.36794  0.83332  1.0000
  H   H876      1.0  0.93549  0.32189  0.93737  1.0000
  C   C543      1.0  0.96091  0.32815  0.86890  1.0000
  C   C544      1.0  0.95843  0.33950  0.83572  1.0000
  C   C545      1.0  0.04781  0.31554  0.85056  1.0000
  H   H877      1.0  0.95749  0.54862  0.92330  1.0000
  H   H878      1.0  0.97925  0.53060  0.85200  1.0000
  H   H879      1.0  0.98715  0.54216  0.91524  1.0000
  C   C546      1.0  0.96496  0.54438  0.85174  1.0000
  H   H880      1.0  0.93652  0.69654  0.30698  1.0000
  H   H881      1.0  0.92708  0.79839  0.13235  1.0000
  S   S213      1.0  0.91759  0.80962  0.24332  1.0000
  H   H882      1.0  0.93584  0.75856  0.10579  1.0000
  C   C547      1.0  0.95342  0.75977  0.10027  1.0000
  S   S214      1.0  0.01746  0.77747  0.25931  1.0000
  Fe  Fe106     1.0  0.95438  0.79835  0.25211  1.0000
  S   S215      1.0  0.96782  0.76201  0.24034  1.0000
  Fe  Fe107     1.0  0.98896  0.76543  0.29022  1.0000
  Fe  Fe108     1.0  0.99500  0.77758  0.21076  1.0000
  S   S216      1.0  0.01039  0.76817  0.15662  1.0000
  C   C548      1.0  0.99122  0.76395  0.12184  1.0000
  C   C549      1.0  0.96841  0.76262  0.12897  1.0000
  H   H883      1.0  0.96238  0.76360  0.15656  1.0000
  H   H884      1.0  0.96158  0.72634  0.29456  1.0000
  S   S217      1.0  0.97324  0.80058  0.30444  1.0000
  C   C550      1.0  0.96355  0.71667  0.31934  1.0000
  H   H885      1.0  0.94005  0.80685  0.17313  1.0000
  Fe  Fe109     1.0  0.00025  0.81237  0.26963  1.0000
  C   C551      1.0  0.99899  0.76227  0.08617  1.0000
  H   H886      1.0  0.96090  0.80862  0.09795  1.0000
  H   H887      1.0  0.01662  0.76305  0.08053  1.0000
  H   H888      1.0  0.05023  0.75775  0.31879  1.0000
  H   H889      1.0  0.82130  0.88560  0.30708  1.0000
  S   S218      1.0  0.82812  0.90402  0.23091  1.0000
  S   S219      1.0  0.89159  0.91574  0.22790  1.0000
  C   C552      1.0  0.89901  0.88621  0.23125  1.0000
  C   C553      1.0  0.88948  0.84749  0.22585  1.0000
  C   C554      1.0  0.88373  0.87096  0.22155  1.0000
  H   H890      1.0  0.87754  0.83580  0.21840  1.0000
  H   H891      1.0  0.86758  0.87719  0.21022  1.0000
  Fe  Fe110     1.0  0.81247  0.91655  0.17872  1.0000
  Fe  Fe111     1.0  0.85469  0.92660  0.21799  1.0000
  H   H892      1.0  0.84324  0.86818  0.28355  1.0000
  H   H893      1.0  0.86563  0.90110  0.28424  1.0000
  C   C555      1.0  0.85937  0.90535  0.31192  1.0000
  C   C556      1.0  0.91071  0.83910  0.23924  1.0000
  H   H894      1.0  0.88195  0.86374  0.30746  1.0000
  H   H895      1.0  0.84424  0.91800  0.30916  1.0000
  H   H896      1.0  0.90670  0.84509  0.10817  1.0000
  H   H897      1.0  0.91229  0.81918  0.16177  1.0000
  Fe  Fe112     1.0  0.80939  0.93525  0.25531  1.0000
  S   S220      1.0  0.84064  0.93667  0.16350  1.0000
  C   C557      1.0  0.83699  0.87375  0.31088  1.0000
  C   C558      1.0  0.80417  0.90893  0.09576  1.0000
  H   H898      1.0  0.92271  0.82427  0.08009  1.0000
  S   S221      1.0  0.80152  0.89358  0.13552  1.0000
  S   S222      1.0  0.98003  0.81357  0.21866  1.0000
  H   H899      1.0  0.03043  0.81537  0.21817  1.0000
  C   C559      1.0  0.92402  0.83869  0.09913  1.0000
  H   H900      1.0  0.97277  0.81687  0.13978  1.0000
  H   H901      1.0  0.94736  0.86535  0.14093  1.0000
  C   C560      1.0  0.92031  0.87780  0.24447  1.0000
  C   C561      1.0  0.92619  0.85426  0.24839  1.0000
  N   N57       1.0  0.93865  0.83156  0.13030  1.0000
  S   S223      1.0  0.02173  0.83961  0.28498  1.0000
  H   H902      1.0  0.93223  0.88952  0.25195  1.0000
  H   H903      1.0  0.94262  0.84789  0.25881  1.0000
  C   C562      1.0  0.94000  0.85122  0.15473  1.0000
  H   H904      1.0  0.95058  0.84644  0.17890  1.0000
  H   H905      1.0  0.92308  0.85810  0.16492  1.0000
  C   C563      1.0  0.92907  0.81322  0.15012  1.0000
  H   H906      1.0  0.93072  0.85260  0.08367  1.0000
  C   C564      1.0  0.04562  0.82222  0.22661  1.0000
  C   C565      1.0  0.96141  0.82311  0.11714  1.0000
  H   H907      1.0  0.96943  0.83664  0.10286  1.0000
  C   C566      1.0  0.04560  0.83606  0.25733  1.0000
  H   H908      1.0  0.81387  0.04637  0.14777  1.0000
  H   H909      1.0  0.82288  0.03864  0.24489  1.0000
  C   C567      1.0  0.86139  0.04964  0.19760  1.0000
  Fe  Fe113     1.0  0.82019  0.96519  0.19221  1.0000
  S   S224      1.0  0.83704  0.95730  0.24589  1.0000
  C   C568      1.0  0.86607  0.02669  0.20691  1.0000
  C   C569      1.0  0.82853  0.04084  0.16404  1.0000
  C   C570      1.0  0.83260  0.01807  0.17491  1.0000
  C   C571      1.0  0.85165  0.01090  0.19561  1.0000
  H   H910      1.0  0.85507  0.99327  0.20352  1.0000
  H   H911      1.0  0.88047  0.02118  0.22376  1.0000
  S   S225      1.0  0.81272  0.99936  0.16516  1.0000
  H   H912      1.0  0.84072  0.02659  0.07884  1.0000
  C   C572      1.0  0.80573  0.03685  0.25524  1.0000
  C   C573      1.0  0.84293  0.05665  0.17544  1.0000
  H   H913      1.0  0.80781  0.02695  0.28083  1.0000
  H   H914      1.0  0.81652  0.01125  0.08103  1.0000
  C   C574      1.0  0.80084  0.93269  0.09683  1.0000
  H   H915      1.0  0.92872  0.05950  0.22428  1.0000
  H   H916      1.0  0.95312  0.06172  0.25196  1.0000
  H   H917      1.0  0.95569  0.06044  0.20345  1.0000
  H   H918      1.0  0.89836  0.63309  0.34661  1.0000
  H   H919      1.0  0.85768  0.64688  0.34364  1.0000
  H   H920      1.0  0.85097  0.62036  0.36210  1.0000
  H   H921      1.0  0.89177  0.60640  0.36535  1.0000
  C   C575      1.0  0.85532  0.63763  0.36935  1.0000
  H   H922      1.0  0.84059  0.64675  0.38356  1.0000
  C   C576      1.0  0.89482  0.62415  0.37214  1.0000
  H   H923      1.0  0.91043  0.62310  0.38856  1.0000
  H   H924      1.0  0.86863  0.60605  0.42018  1.0000
  H   H925      1.0  0.85768  0.63236  0.44162  1.0000
  H   H926      1.0  0.88716  0.62265  0.44374  1.0000
  C   C577      1.0  0.87205  0.62386  0.42586  1.0000
  S   S226      1.0  0.91150  0.57431  0.44567  1.0000
  S   S227      1.0  0.93492  0.63071  0.45631  1.0000
  N   N58       1.0  0.87578  0.63631  0.39212  1.0000
  H   H927      1.0  0.89646  0.65918  0.41804  1.0000
  C   C578      1.0  0.88101  0.65955  0.40104  1.0000
  Fe  Fe114     1.0  0.94092  0.59426  0.43845  1.0000
  H   H928      1.0  0.93827  0.62418  0.54075  1.0000
  S   S228      1.0  0.93501  0.66492  0.36583  1.0000
  H   H929      1.0  0.86705  0.66935  0.41608  1.0000
  H   H930      1.0  0.88430  0.66929  0.37618  1.0000
  C   C579      1.0  0.94735  0.62254  0.56613  1.0000
  H   H931      1.0  0.93352  0.57770  0.55243  1.0000
  C   C580      1.0  0.04841  0.61570  0.47482  1.0000
  H   H932      1.0  0.03565  0.64868  0.40197  1.0000
  C   C581      1.0  0.04071  0.59734  0.41806  1.0000
  Fe  Fe115     1.0  0.95095  0.63796  0.40349  1.0000
  S   S229      1.0  0.95472  0.60179  0.38396  1.0000
  S   S230      1.0  0.97460  0.58768  0.46546  1.0000
  S   S231      1.0  0.98556  0.63593  0.42692  1.0000
  Fe  Fe116     1.0  0.98794  0.59903  0.41257  1.0000
  S   S232      1.0  0.02139  0.58570  0.38978  1.0000
  Fe  Fe117     1.0  0.97001  0.62498  0.47801  1.0000
  S   S233      1.0  0.98322  0.63752  0.53016  1.0000
  C   C582      1.0  0.03438  0.60387  0.45327  1.0000
  H   H933      1.0  0.01841  0.60024  0.46389  1.0000
  H   H934      1.0  0.02033  0.67619  0.40813  1.0000
  C   C583      1.0  0.03058  0.66527  0.38841  1.0000
  H   H935      1.0  0.01932  0.66197  0.36535  1.0000
  H   H936      1.0  0.04298  0.62111  0.50164  1.0000
  H   H937      1.0  0.97032  0.68186  0.40829  1.0000
  C   C584      1.0  0.95218  0.68671  0.35802  1.0000
  C   C585      1.0  0.96936  0.62846  0.56824  1.0000
  H   H938      1.0  0.02169  0.65622  0.55918  1.0000
  C   C586      1.0  0.03878  0.66202  0.55841  1.0000
  H   H939      1.0  0.03657  0.68092  0.55758  1.0000
  H   H940      1.0  0.04670  0.65595  0.53244  1.0000
  C   C587      1.0  0.84533  0.89129  0.36760  1.0000
  S   S234      1.0  0.99941  0.74064  0.33508  1.0000
  C   C588      1.0  0.04859  0.80035  0.34563  1.0000
  H   H941      1.0  0.03508  0.79812  0.32557  1.0000
  C   C589      1.0  0.04291  0.69774  0.35765  1.0000
  H   H942      1.0  0.03353  0.71015  0.37628  1.0000
  H   H943      1.0  0.03145  0.69518  0.33449  1.0000
  C   C590      1.0  0.94939  0.69976  0.32638  1.0000
  C   C591      1.0  0.98273  0.70812  0.37623  1.0000
  C   C592      1.0  0.98043  0.72068  0.34408  1.0000
  H   H944      1.0  0.99509  0.71179  0.39614  1.0000
  C   C593      1.0  0.96870  0.69113  0.38314  1.0000
  H   H945      1.0  0.04144  0.79792  0.37291  1.0000
  H   H946      1.0  0.87259  0.91389  0.32604  1.0000
  H   H947      1.0  0.85772  0.89986  0.38369  1.0000
  H   H948      1.0  0.82961  0.90333  0.36559  1.0000
  H   H949      1.0  0.88821  0.87643  0.34987  1.0000
  H   H950      1.0  0.83227  0.85845  0.32515  1.0000
  C   C594      1.0  0.87487  0.86873  0.33460  1.0000
  N   N59       1.0  0.85415  0.88476  0.33129  1.0000
  H   H951      1.0  0.87161  0.85284  0.34876  1.0000
  H   H952      1.0  0.84119  0.87620  0.38313  1.0000
  H   H953      1.0  0.91993  0.61039  0.59578  1.0000
  S   S235      1.0  0.93716  0.60046  0.66802  1.0000
  C   C595      1.0  0.93700  0.61477  0.59720  1.0000
  H   H954      1.0  0.94036  0.56490  0.61529  1.0000
  S   S236      1.0  0.03964  0.61783  0.68869  1.0000
  C   C596      1.0  0.94892  0.61233  0.62994  1.0000
  Fe  Fe118     1.0  0.01073  0.60783  0.72050  1.0000
  S   S237      1.0  0.01353  0.59604  0.77793  1.0000
  Fe  Fe119     1.0  0.96308  0.59882  0.71223  1.0000
  S   S238      1.0  0.96050  0.58580  0.76894  1.0000
  Fe  Fe120     1.0  0.97933  0.61521  0.78490  1.0000
  S   S239      1.0  0.97847  0.63020  0.72902  1.0000
  S   S240      1.0  0.99551  0.57729  0.70081  1.0000
  C   C597      1.0  0.97087  0.61828  0.63171  1.0000
  H   H955      1.0  0.98032  0.61640  0.65653  1.0000
  H   H956      1.0  0.97877  0.66481  0.78459  1.0000
  H   H957      1.0  0.99789  0.63111  0.60293  1.0000
  C   C598      1.0  0.98093  0.62659  0.60114  1.0000
  Fe  Fe121     1.0  0.99481  0.56757  0.75910  1.0000
  C   C599      1.0  0.97601  0.67348  0.81017  1.0000
  H   H958      1.0  0.03005  0.63935  0.75823  1.0000
  H   H959      1.0  0.97157  0.57842  0.58010  1.0000
  H   H960      1.0  0.03878  0.68118  0.62375  1.0000
  C   C600      1.0  0.04150  0.66228  0.62357  1.0000
  C   C601      1.0  0.04716  0.64139  0.75068  1.0000
  H   H961      1.0  0.03780  0.62187  0.59126  1.0000
  H   H962      1.0  0.02482  0.65588  0.62728  1.0000
  H   H963      1.0  0.97866  0.70659  0.78749  1.0000
  C   C602      1.0  0.97592  0.69718  0.81187  1.0000
  H   H964      1.0  0.88138  0.89111  0.75558  1.0000
  C   C603      1.0  0.89401  0.88789  0.77772  1.0000
  N   N60       1.0  0.88454  0.89590  0.81297  1.0000
  H   H965      1.0  0.90889  0.89669  0.77046  1.0000
  H   H966      1.0  0.89952  0.86927  0.77822  1.0000
  H   H967      1.0  0.85121  0.88735  0.80077  1.0000
  C   C604      1.0  0.86480  0.88385  0.82133  1.0000
  C   C605      1.0  0.87754  0.92064  0.81128  1.0000
  H   H968      1.0  0.86441  0.92489  0.79017  1.0000
  H   H969      1.0  0.89194  0.93039  0.80510  1.0000
  H   H970      1.0  0.82325  0.00672  0.81020  1.0000
  S   S241      1.0  0.82886  0.95833  0.82196  1.0000
  H   H971      1.0  0.93443  0.57549  0.88283  1.0000
  H   H972      1.0  0.94743  0.58821  0.84544  1.0000
  C   C606      1.0  0.95031  0.58171  0.87350  1.0000
  H   H973      1.0  0.95340  0.59670  0.89040  1.0000
  H   H974      1.0  0.97620  0.56989  0.93133  1.0000
  H   H975      1.0  0.99407  0.58757  0.87968  1.0000
  H   H976      1.0  0.98804  0.57928  0.83464  1.0000
  S   S242      1.0  0.97210  0.63141  0.83964  1.0000
  C   C607      1.0  0.97233  0.66117  0.84141  1.0000
  C   C608      1.0  0.96885  0.67271  0.87453  1.0000
  H   H977      1.0  0.96599  0.66328  0.89882  1.0000
  C   C609      1.0  0.99010  0.57290  0.86276  1.0000
  H   H978      1.0  0.03521  0.68546  0.88882  1.0000
  H   H979      1.0  0.87820  0.80356  0.04852  1.0000
  C   C610      1.0  0.88887  0.77599  0.96856  1.0000
  H   H980      1.0  0.90411  0.76473  0.97731  1.0000
  H   H981      1.0  0.87444  0.76563  0.96881  1.0000
  C   C611      1.0  0.88136  0.78877  0.02987  1.0000
  H   H982      1.0  0.86676  0.77867  0.03179  1.0000
  H   H983      1.0  0.89640  0.77780  0.04013  1.0000
  H   H984      1.0  0.89157  0.78098  0.93997  1.0000
  H   H985      1.0  0.91994  0.79912  0.00112  1.0000
  N   N61       1.0  0.88476  0.79618  0.99229  1.0000
  H   H986      1.0  0.84923  0.80141  0.98080  1.0000
  C   C612      1.0  0.86447  0.81060  0.97964  1.0000
  C   C613      1.0  0.90440  0.80931  0.99105  1.0000
  H   H987      1.0  0.04448  0.74981  0.84181  1.0000
  H   H988      1.0  0.02358  0.73306  0.82375  1.0000
  H   H989      1.0  0.04199  0.73238  0.91950  1.0000
  H   H990      1.0  0.04327  0.80035  0.07105  1.0000
  H   H991      1.0  0.04067  0.78281  0.89487  1.0000
  H   H992      1.0  0.01924  0.69531  0.84967  1.0000
  S   S243      1.0  0.04107  0.77349  0.97226  1.0000
  C   C614      1.0  0.03248  0.73744  0.84894  1.0000
  C   C615      1.0  0.02733  0.70097  0.87481  1.0000
  H   H993      1.0  0.01950  0.74640  0.86699  1.0000
  C   C616      1.0  0.96892  0.69647  0.87630  1.0000
  S   S244      1.0  0.94232  0.75703  0.02817  1.0000
  H   H994      1.0  0.96619  0.70528  0.90187  1.0000
  C   C617      1.0  0.97238  0.70874  0.84486  1.0000
  S   S245      1.0  0.94260  0.77585  0.92509  1.0000
  Fe  Fe122     1.0  0.00564  0.77587  0.95094  1.0000
  S   S246      1.0  0.98883  0.74383  0.95051  1.0000
  Fe  Fe123     1.0  0.97323  0.75748  0.89856  1.0000
  Fe  Fe124     1.0  0.96016  0.76529  0.97720  1.0000
  S   S247      1.0  0.99229  0.78819  0.89692  1.0000
  S   S248      1.0  0.97816  0.79630  0.98151  1.0000
  H   H995      1.0  0.99034  0.75824  0.03025  1.0000
  S   S249      1.0  0.97364  0.73831  0.84576  1.0000
  H   H996      1.0  0.01364  0.70906  0.89248  1.0000
  C   C618      1.0  0.98403  0.75966  0.05761  1.0000
  C   C619      1.0  0.96119  0.75862  0.06448  1.0000
  Fe  Fe125     1.0  0.96288  0.80549  0.92750  1.0000
  N   N62       1.0  0.04396  0.71694  0.86660  1.0000
  H   H997      1.0  0.86932  0.86509  0.82259  1.0000
  H   H998      1.0  0.90698  0.87260  0.84442  1.0000
  H   H999      1.0  0.85749  0.88917  0.84801  1.0000
  H   H1000     1.0  0.86114  0.82637  0.99616  1.0000
  C   C620      1.0  0.90175  0.89119  0.84159  1.0000
  H   H1001     1.0  0.89529  0.89756  0.86838  1.0000
  H   H1002     1.0  0.90792  0.81443  0.96297  1.0000
  H   H1003     1.0  0.90167  0.82512  0.00752  1.0000
  H   H1004     1.0  0.86628  0.81599  0.95107  1.0000
  H   H1005     1.0  0.81904  0.90181  0.00733  1.0000
  C   C621      1.0  0.81356  0.91043  0.03206  1.0000
  S   S250      1.0  0.80437  0.90160  0.85075  1.0000
  H   H1006     1.0  0.87801  0.81844  0.87139  1.0000
  S   S251      1.0  0.84159  0.91935  0.90803  1.0000
  Fe  Fe126     1.0  0.82481  0.88769  0.89854  1.0000
  S   S252      1.0  0.84309  0.85241  0.89392  1.0000
  C   C622      1.0  0.87225  0.85005  0.90081  1.0000
  C   C623      1.0  0.88219  0.86644  0.92068  1.0000
  C   C624      1.0  0.88567  0.83117  0.88677  1.0000
  H   H1007     1.0  0.87189  0.88074  0.93235  1.0000
  C   C625      1.0  0.90555  0.86404  0.92621  1.0000
  C   C626      1.0  0.90900  0.82870  0.89247  1.0000
  C   C627      1.0  0.81037  0.89774  0.06331  1.0000
  Fe  Fe127     1.0  0.81214  0.92961  0.94400  1.0000
  Fe  Fe128     1.0  0.81887  0.93402  0.86366  1.0000
  H   H1008     1.0  0.91322  0.87666  0.94182  1.0000
  H   H1009     1.0  0.81323  0.87936  0.06263  1.0000
  C   C628      1.0  0.81020  0.93421  0.03328  1.0000
  H   H1010     1.0  0.91932  0.81419  0.88131  1.0000
  C   C629      1.0  0.91895  0.84510  0.91233  1.0000
  H   H1011     1.0  0.87025  0.92721  0.83745  1.0000
  H   H1012     1.0  0.91713  0.89955  0.83583  1.0000
  S   S253      1.0  0.94790  0.84187  0.92110  1.0000
  H   H1013     1.0  0.81178  0.00356  0.98130  1.0000
  H   H1014     1.0  0.80109  0.96368  0.06676  1.0000
  C   C630      1.0  0.83991  0.98072  0.84464  1.0000
  S   S254      1.0  0.80230  0.05585  0.92466  1.0000
  H   H1015     1.0  0.81386  0.03965  0.06328  1.0000
  C   C631      1.0  0.83392  0.00320  0.83365  1.0000
  C   C632      1.0  0.80381  0.94532  0.06564  1.0000
  C   C633      1.0  0.84163  0.03061  0.00630  1.0000
  C   C634      1.0  0.84125  0.02122  0.85361  1.0000
  C   C635      1.0  0.84451  0.99240  0.02997  1.0000
  C   C636      1.0  0.80868  0.01061  0.00906  1.0000
  H   H1016     1.0  0.83636  0.97972  0.04608  1.0000
  S   S255      1.0  0.86412  0.03907  0.90932  1.0000
  H   H1017     1.0  0.83616  0.03860  0.84558  1.0000
  H   H1018     1.0  0.84808  0.98478  0.00270  1.0000
  H   H1019     1.0  0.83116  0.04731  0.00384  1.0000
  C   C637      1.0  0.86209  0.99421  0.89373  1.0000
  C   C638      1.0  0.85404  0.97626  0.87465  1.0000
  C   C639      1.0  0.82508  0.02334  0.06423  1.0000
  H   H1020     1.0  0.84539  0.02429  0.97829  1.0000
  H   H1021     1.0  0.87305  0.99070  0.91688  1.0000
  H   H1022     1.0  0.85904  0.95901  0.88302  1.0000
  H   H1023     1.0  0.86088  0.99455  0.04319  1.0000
  H   H1024     1.0  0.85785  0.03377  0.01909  1.0000
  N   N63       1.0  0.82999  0.01425  0.02743  1.0000
  S   S256      1.0  0.81317  0.95037  0.99445  1.0000
  C   C640      1.0  0.85544  0.01671  0.88357  1.0000
  N   N64       1.0  0.96950  0.56366  0.87523  1.0000
