data_image0
_chemical_formula_structural       H3FeHCH3S2HC5HSHCH3C2H2SHCSHS2FeCFeH2FeHC6H5SH2NH6NHNH2C2HFeC2HC2HC2HSFeH2FeSH2CS2CHCH3C4SH3CNH2CH2C2SHFeHCFeHSCH2FeHC2HC2HSCH2C2SHC2H3SH2SH2NC2H3FeS2FeH2CSHCSC6H4SHFeH2NSCS2HCHCH2FeNCHSHCHSHFeH2CH3CHCFeHSH4CH4FeCHS2HCHC3H2SHCHC5HSHS2H4CSHCH3C2HSCH2CH2CHFeCHC2SHFeSHC6H3SH5C2H3SHSHFeH3SHCSH2C2HC2HFeCNFeCNCHSFeH4FeSH2NHCHC3H2CSC2HC2H3SCHCH11CH2FeHSCSH2NC2HC2H4CFeH2FeS2C2HCSC2H2CH3C2SCH4NC2SCHCH2FeHSFeH2S2CHFeCNHSC2H2NSCH3CH2SH6SH2CHSCSHFeCHCFeCHSH2C2HFeSFeHSHCH2C2NH6C2SFeH3CSFeSCSHC6H4SNCH2NH3CH9CSHCHFeSC2FeHSHCHSHC2FeHSC5H4C3H2SFeC3NCSH3CH3SHCH2CHFeCH2SHCH6NSCHSHCHC2SFeS2H4C6H7CFeSHNCH2FeH3CSHC2H2NCFeSFeSHCH4C5H3SCHC2H4CH4CH2C2H6C5H3CH2CH6CHSC2SNHCSHCH2C4H9CHCH3CHSCHNH3CHFeSHC3H3SFeCH2C3HC2HCNH2C3H2FeHSCHSHNCHNHSNH2CH5SCHFeH3SH3CHCH8CH3SC2HCHCH2FeHS2FeHSCH2CH2SC3HCH2CSFeCHNCHCHSC2NFeSCHCH2CHCHCSC2H4C3H3CHCH8CHCHSCHC2H2SFeCHSNSCSHC4H4C2H4FeH3C2H2SHFeCH3SHC2H6C3SHCH2CH4CFeHSHS2HC4H4SFeH5SNHFeCH2CH5CHNHC3H3S2HNSHC2H2C5HFeHCHCHS2FeNFeC4H2CH2CFeSC3HSCH3CHCFeHSHCH2CH5C2HSHNC3H2CHSC2H3CHCSNH4CH3CHSCHCHCH3CH3SFeSHCH6C2HCH3CH2FeHFeNCHC2SHC4H4SH2CNCFeSCHC2HC2HSHFeS2HFeC3H4SHSHFeC2HFeC2HCSHFeH2S3FeSC2H4S2H5SHCSFeH5NHCH2CH2SH2CH2CH3Fe2H2CHCH2CHSHCHNH2C2SHNFeCHSC8HCH2CH3FeHFeH2SH2C2HSHCFeCSCHSCHSHCHC2SHSHCHSC3HC2HSCHFeCH2SCHCH3SH4CHCHC2NFeCNHSH2CHCH3CHSFeH6CHCSHFeC2SCHCHSH2FeH2CHSCH3NC2HNC2HFeC3HFeHC2SFeCSC2H5SHCH3CH2C2HCS2HFeSC2HFeH2CSCSC4HCH3CSHNHCHCFeCSFeCH5SH2SFeH3FeHCSNSCH4CHC3H4NH5SH2
_chemical_formula_sum              "H768 Fe96 C480 S192 N48"
_cell_length_a       36.5776
_cell_length_b       38.1568
_cell_length_c       32.6724
_cell_angle_alpha    90.1096
_cell_angle_beta     89.1318
_cell_angle_gamma    90.4517

_space_group_name_H-M_alt    "P 1"
_space_group_IT_number       1

loop_
  _space_group_symop_operation_xyz
  'x, y, z'

loop_
  _atom_site_type_symbol
  _atom_site_label
  _atom_site_symmetry_multiplicity
  _atom_site_fract_x
  _atom_site_fract_y
  _atom_site_fract_z
  _atom_site_occupancy
  H   H1        1.0  0.10684  0.26273  0.17303  1.0000
  H   H2        1.0  0.57947  0.31274  0.19070  1.0000
  H   H3        1.0  0.27180  0.09367  0.14603  1.0000
  Fe  Fe1       1.0  0.14034  0.13540  0.21184  1.0000
  H   H4        1.0  0.21578  0.17679  0.20082  1.0000
  C   C1        1.0  0.17467  0.20584  0.11481  1.0000
  H   H5        1.0  0.26976  0.17832  0.15401  1.0000
  H   H6        1.0  0.28994  0.12585  0.11099  1.0000
  H   H7        1.0  0.60475  0.27645  0.26841  1.0000
  S   S1        1.0  0.19070  0.10294  0.20322  1.0000
  S   S2        1.0  0.13958  0.18993  0.18688  1.0000
  H   H8        1.0  0.27012  0.26886  0.09472  1.0000
  C   C2        1.0  0.17832  0.19447  0.15516  1.0000
  C   C3        1.0  0.60596  0.32061  0.20449  1.0000
  C   C4        1.0  0.56720  0.11283  0.12524  1.0000
  C   C5        1.0  0.24327  0.18597  0.14295  1.0000
  C   C6        1.0  0.21274  0.18500  0.16938  1.0000
  H   H9        1.0  0.31378  0.29147  0.56897  1.0000
  S   S3        1.0  0.59104  0.14390  0.23198  1.0000
  H   H10       1.0  0.14373  0.27733  0.11019  1.0000
  C   C7        1.0  0.23945  0.19649  0.10226  1.0000
  H   H11       1.0  0.59228  0.10399  0.14100  1.0000
  H   H12       1.0  0.29072  0.27376  0.14366  1.0000
  H   H13       1.0  0.31356  0.08529  0.11777  1.0000
  C   C8        1.0  0.14462  0.29872  0.08860  1.0000
  C   C9        1.0  0.21987  0.29203  0.14846  1.0000
  H   H14       1.0  0.38940  0.09050  0.55508  1.0000
  H   H15       1.0  0.33928  0.27250  0.52740  1.0000
  S   S4        1.0  0.50538  0.15961  0.57386  1.0000
  H   H16       1.0  0.14806  0.21279  0.10348  1.0000
  C   C10       1.0  0.27995  0.28861  0.11722  1.0000
  S   S5        1.0  0.12985  0.11950  0.27703  1.0000
  H   H17       1.0  0.56101  0.13950  0.13738  1.0000
  S   S6        1.0  0.56456  0.14341  0.35042  1.0000
  S   S7        1.0  0.46251  0.12283  0.39235  1.0000
  Fe  Fe2       1.0  0.57057  0.11686  0.28935  1.0000
  C   C11       1.0  0.33046  0.29782  0.54119  1.0000
  Fe  Fe3       1.0  0.51486  0.10928  0.35931  1.0000
  H   H18       1.0  0.37554  0.08580  0.42439  1.0000
  H   H19       1.0  0.31188  0.31088  0.51939  1.0000
  Fe  Fe4       1.0  0.17707  0.08347  0.26632  1.0000
  H   H20       1.0  0.27419  0.32461  0.18798  1.0000
  C   C12       1.0  0.47347  0.13504  0.44252  1.0000
  C   C13       1.0  0.50968  0.14315  0.45212  1.0000
  C   C14       1.0  0.51899  0.15181  0.49229  1.0000
  C   C15       1.0  0.49224  0.15182  0.52327  1.0000
  C   C16       1.0  0.45592  0.14364  0.51389  1.0000
  C   C17       1.0  0.44648  0.13548  0.47341  1.0000
  H   H21       1.0  0.53070  0.14274  0.42867  1.0000
  H   H22       1.0  0.54713  0.15801  0.49940  1.0000
  H   H23       1.0  0.43516  0.14330  0.53779  1.0000
  H   H24       1.0  0.22879  0.27708  0.17572  1.0000
  H   H25       1.0  0.54989  0.10160  0.54569  1.0000
  S   S8        1.0  0.51722  0.08743  0.29552  1.0000
  H   H26       1.0  0.30321  0.30304  0.10246  1.0000
  H   H27       1.0  0.12811  0.09225  0.10160  1.0000
  N   N1        1.0  0.25026  0.31257  0.12991  1.0000
  H   H28       1.0  0.58569  0.25437  0.22482  1.0000
  H   H29       1.0  0.52187  0.11109  0.19040  1.0000
  H   H30       1.0  0.41845  0.12908  0.46622  1.0000
  H   H31       1.0  0.39375  0.30382  0.49886  1.0000
  H   H32       1.0  0.21277  0.09360  0.11083  1.0000
  H   H33       1.0  0.57400  0.11566  0.09209  1.0000
  N   N2        1.0  0.36210  0.32044  0.55126  1.0000
  H   H34       1.0  0.39562  0.27669  0.56816  1.0000
  N   N3        1.0  0.53623  0.08826  0.13213  1.0000
  H   H35       1.0  0.19674  0.30915  0.15818  1.0000
  H   H36       1.0  0.49563  0.12791  0.12334  1.0000
  C   C18       1.0  0.50341  0.10158  0.11156  1.0000
  C   C19       1.0  0.28588  0.09718  0.11587  1.0000
  H   H37       1.0  0.20890  0.27263  0.12635  1.0000
  Fe  Fe5       1.0  0.59559  0.09719  0.37354  1.0000
  C   C20       1.0  0.38565  0.30213  0.58062  1.0000
  C   C21       1.0  0.23699  0.33159  0.09372  1.0000
  H   H38       1.0  0.48565  0.08472  0.55978  1.0000
  C   C22       1.0  0.20524  0.20689  0.08844  1.0000
  C   C23       1.0  0.52873  0.08518  0.17660  1.0000
  H   H39       1.0  0.47944  0.08370  0.11619  1.0000
  C   C24       1.0  0.13207  0.33187  0.10054  1.0000
  C   C25       1.0  0.38335  0.32826  0.51350  1.0000
  H   H40       1.0  0.18939  0.10312  0.70998  1.0000
  S   S9        1.0  0.25334  0.26984  0.90619  1.0000
  Fe  Fe6       1.0  0.30294  0.26918  0.94543  1.0000
  H   H41       1.0  0.28721  0.11636  0.03694  1.0000
  H   H42       1.0  0.56105  0.12425  0.81118  1.0000
  Fe  Fe7       1.0  0.25070  0.21212  0.91811  1.0000
  S   S10       1.0  0.24501  0.17471  0.86510  1.0000
  H   H43       1.0  0.56158  0.15249  0.72207  1.0000
  H   H44       1.0  0.20205  0.21511  0.05725  1.0000
  C   C26       1.0  0.29778  0.30098  0.65543  1.0000
  S   S11       1.0  0.30280  0.21099  0.95339  1.0000
  S   S12       1.0  0.21436  0.21696  0.97391  1.0000
  C   C27       1.0  0.24752  0.16175  0.66450  1.0000
  H   H45       1.0  0.52397  0.13402  0.75051  1.0000
  C   C28       1.0  0.60509  0.09682  0.72453  1.0000
  H   H46       1.0  0.34161  0.19009  0.86856  1.0000
  H   H47       1.0  0.34744  0.21747  0.75959  1.0000
  H   H48       1.0  0.33236  0.18351  0.79414  1.0000
  C   C29       1.0  0.15426  0.13119  0.81597  1.0000
  C   C30       1.0  0.19082  0.14031  0.82371  1.0000
  C   C31       1.0  0.19916  0.16383  0.85528  1.0000
  C   C32       1.0  0.17087  0.17827  0.87890  1.0000
  S   S13       1.0  0.35354  0.29814  0.92427  1.0000
  H   H49       1.0  0.48342  0.26350  0.94132  1.0000
  H   H50       1.0  0.16850  0.26782  0.03959  1.0000
  H   H51       1.0  0.17690  0.19697  0.90266  1.0000
  C   C33       1.0  0.30455  0.26529  0.64894  1.0000
  N   N4        1.0  0.23496  0.12650  0.67745  1.0000
  H   H52       1.0  0.38987  0.19610  0.85898  1.0000
  H   H53       1.0  0.28638  0.24995  0.63001  1.0000
  C   C34       1.0  0.35217  0.30510  0.69672  1.0000
  H   H54       1.0  0.37829  0.27115  0.78741  1.0000
  H   H55       1.0  0.53665  0.11557  0.70207  1.0000
  C   C35       1.0  0.15859  0.29332  0.04874  1.0000
  C   C36       1.0  0.58480  0.11916  0.79025  1.0000
  S   S14       1.0  0.59508  0.18843  0.06648  1.0000
  H   H56       1.0  0.27404  0.16039  0.64727  1.0000
  Fe  Fe8       1.0  0.22178  0.27494  0.96522  1.0000
  H   H57       1.0  0.29709  0.22774  0.83459  1.0000
  C   C37       1.0  0.26269  0.11055  0.70393  1.0000
  Fe  Fe9       1.0  0.45828  0.15723  0.61817  1.0000
  H   H58       1.0  0.47943  0.08594  0.98486  1.0000
  S   S15       1.0  0.27175  0.27971  0.00359  1.0000
  C   C38       1.0  0.32122  0.32076  0.67996  1.0000
  H   H59       1.0  0.48285  0.22746  0.04707  1.0000
  H   H60       1.0  0.55932  0.24182  0.01142  1.0000
  Fe  Fe10      1.0  0.26689  0.22124  0.00830  1.0000
  H   H61       1.0  0.35244  0.27852  0.00938  1.0000
  C   C39       1.0  0.12605  0.14516  0.84026  1.0000
  C   C40       1.0  0.37981  0.31223  0.96570  1.0000
  H   H62       1.0  0.28940  0.10781  0.68740  1.0000
  C   C41       1.0  0.35979  0.26981  0.68863  1.0000
  C   C42       1.0  0.35376  0.20398  0.78879  1.0000
  H   H63       1.0  0.52813  0.30633  0.96817  1.0000
  S   S16       1.0  0.13566  0.08362  0.64155  1.0000
  C   C43       1.0  0.38414  0.25553  0.81528  1.0000
  H   H64       1.0  0.52648  0.21115  0.99180  1.0000
  H   H65       1.0  0.21264  0.12905  0.80541  1.0000
  C   C44       1.0  0.15954  0.32102  0.02069  1.0000
  C   C45       1.0  0.33560  0.24971  0.66542  1.0000
  S   S17       1.0  0.27739  0.19539  0.06883  1.0000
  H   H66       1.0  0.41125  0.24307  0.81030  1.0000
  C   C46       1.0  0.19993  0.12936  0.70040  1.0000
  C   C47       1.0  0.13446  0.16868  0.87170  1.0000
  H   H67       1.0  0.38041  0.19051  0.78426  1.0000
  H   H68       1.0  0.34128  0.22241  0.65927  1.0000
  H   H69       1.0  0.51551  0.25856  0.06652  1.0000
  S   S18       1.0  0.17838  0.31601  0.97131  1.0000
  H   H70       1.0  0.49717  0.31784  0.00897  1.0000
  H   H71       1.0  0.20742  0.11427  0.62135  1.0000
  S   S19       1.0  0.40511  0.18521  0.61035  1.0000
  H   H72       1.0  0.32001  0.26643  0.85280  1.0000
  H   H73       1.0  0.42151  0.09310  0.02417  1.0000
  N   N5        1.0  0.35519  0.22906  0.82326  1.0000
  C   C48       1.0  0.36324  0.20997  0.86136  1.0000
  C   C49       1.0  0.49305  0.25492  0.04424  1.0000
  H   H74       1.0  0.26745  0.12668  0.73180  1.0000
  H   H75       1.0  0.36475  0.22818  0.88798  1.0000
  H   H76       1.0  0.25408  0.08387  0.71410  1.0000
  Fe  Fe11      1.0  0.54490  0.15668  0.93282  1.0000
  S   S20       1.0  0.50543  0.19016  0.89915  1.0000
  S   S21       1.0  0.38129  0.15164  0.70007  1.0000
  Fe  Fe12      1.0  0.43654  0.12714  0.70065  1.0000
  H   H77       1.0  0.45160  0.27490  0.98150  1.0000
  H   H78       1.0  0.47036  0.27257  0.05390  1.0000
  C   C50       1.0  0.22971  0.10425  0.64088  1.0000
  S   S22       1.0  0.45384  0.09491  0.75400  1.0000
  H   H79       1.0  0.38654  0.27427  0.84134  1.0000
  C   C51       1.0  0.51900  0.29925  0.99975  1.0000
  S   S23       1.0  0.56855  0.10611  0.90972  1.0000
  C   C52       1.0  0.48504  0.16397  0.86164  1.0000
  C   C53       1.0  0.48523  0.12749  0.86546  1.0000
  C   C54       1.0  0.47391  0.10625  0.83295  1.0000
  C   C55       1.0  0.46170  0.12149  0.79684  1.0000
  C   C56       1.0  0.45892  0.15801  0.79416  1.0000
  C   C57       1.0  0.47082  0.17928  0.82648  1.0000
  H   H80       1.0  0.49426  0.11554  0.89342  1.0000
  H   H81       1.0  0.14801  0.11328  0.79146  1.0000
  H   H82       1.0  0.44879  0.16996  0.76672  1.0000
  H   H83       1.0  0.47041  0.20751  0.82354  1.0000
  S   S24       1.0  0.32986  0.10986  0.61062  1.0000
  H   H84       1.0  0.54247  0.30384  0.02050  1.0000
  Fe  Fe13      1.0  0.38082  0.13490  0.63426  1.0000
  H   H85       1.0  0.25156  0.17938  0.69126  1.0000
  H   H86       1.0  0.40993  0.31826  0.58887  1.0000
  N   N6        1.0  0.50565  0.26268  0.00199  1.0000
  S   S25       1.0  0.40089  0.25184  0.70495  1.0000
  C   C58       1.0  0.39476  0.30930  0.03764  1.0000
  S   S26       1.0  0.26244  0.32095  0.62864  1.0000
  S   S27       1.0  0.43355  0.10573  0.63693  1.0000
  H   H87       1.0  0.17835  0.14134  0.68131  1.0000
  C   C59       1.0  0.54777  0.12739  0.73052  1.0000
  H   H88       1.0  0.38995  0.29817  0.06770  1.0000
  C   C60       1.0  0.31957  0.24678  0.82760  1.0000
  H   H89       1.0  0.50808  0.10392  0.07792  1.0000
  H   H90       1.0  0.46470  0.23008  0.97394  1.0000
  Fe  Fe14      1.0  0.58716  0.15513  0.01115  1.0000
  N   N7        1.0  0.57289  0.10328  0.75129  1.0000
  C   C61       1.0  0.37343  0.29825  0.00469  1.0000
  H   H91       1.0  0.25485  0.10306  0.62148  1.0000
  S   S28       1.0  0.46680  0.17588  0.68225  1.0000
  H   H92       1.0  0.59930  0.14453  0.78507  1.0000
  C   C62       1.0  0.53571  0.23889  0.99049  1.0000
  H   H93       1.0  0.54559  0.24388  0.95862  1.0000
  S   S29       1.0  0.53118  0.13695  0.99554  1.0000
  H   H94       1.0  0.31233  0.26091  0.79910  1.0000
  Fe  Fe15      1.0  0.41109  0.19911  0.67674  1.0000
  H   H95       1.0  0.20275  0.14578  0.72839  1.0000
  H   H96       1.0  0.22735  0.17431  0.64411  1.0000
  C   C63       1.0  0.28397  0.08772  0.04301  1.0000
  H   H97       1.0  0.21086  0.08560  0.05692  1.0000
  H   H98       1.0  0.37056  0.29627  0.60956  1.0000
  H   H99       1.0  0.22979  0.12610  0.07553  1.0000
  C   C64       1.0  0.22793  0.09739  0.08136  1.0000
  H   H100      1.0  0.37089  0.32065  0.71473  1.0000
  C   C65       1.0  0.47500  0.25763  0.97349  1.0000
  Fe  Fe16      1.0  0.55899  0.08795  0.97430  1.0000
  H   H101      1.0  0.60381  0.10162  0.80668  1.0000
  S   S30       1.0  0.59892  0.17942  0.95019  1.0000
  H   H102      1.0  0.11273  0.17979  0.89033  1.0000
  H   H103      1.0  0.22719  0.31312  0.06987  1.0000
  H   H104      1.0  0.59702  0.08479  0.69491  1.0000
  H   H105      1.0  0.37196  0.37135  0.57776  1.0000
  C   C66       1.0  0.59241  0.47555  0.17817  1.0000
  H   H106      1.0  0.58222  0.48872  0.11529  1.0000
  H   H107      1.0  0.36636  0.34203  0.49065  1.0000
  H   H108      1.0  0.13511  0.42106  0.57776  1.0000
  H   H109      1.0  0.30244  0.54137  0.55347  1.0000
  Fe  Fe17      1.0  0.55672  0.41916  0.11135  1.0000
  C   C67       1.0  0.16345  0.55630  0.58429  1.0000
  H   H110      1.0  0.50271  0.56559  0.41836  1.0000
  S   S31       1.0  0.12531  0.44097  0.14112  1.0000
  S   S32       1.0  0.20034  0.46331  0.54139  1.0000
  H   H111      1.0  0.60541  0.47070  0.24195  1.0000
  C   C68       1.0  0.60650  0.48749  0.21529  1.0000
  H   H112      1.0  0.24229  0.35654  0.17012  1.0000
  C   C69       1.0  0.14831  0.51043  0.51979  1.0000
  C   C70       1.0  0.17604  0.50244  0.54723  1.0000
  C   C71       1.0  0.59373  0.49745  0.14385  1.0000
  H   H113      1.0  0.14243  0.49275  0.49473  1.0000
  H   H114      1.0  0.28720  0.35392  0.14719  1.0000
  S   S33       1.0  0.56488  0.57018  0.36451  1.0000
  H   H115      1.0  0.26321  0.54774  0.48582  1.0000
  C   C72       1.0  0.31771  0.54274  0.58147  1.0000
  H   H116      1.0  0.19807  0.56294  0.48995  1.0000
  C   C73       1.0  0.26914  0.57550  0.47724  1.0000
  C   C74       1.0  0.12795  0.54117  0.52481  1.0000
  C   C75       1.0  0.13556  0.56410  0.55708  1.0000
  C   C76       1.0  0.18384  0.52565  0.57913  1.0000
  C   C77       1.0  0.26413  0.33804  0.16016  1.0000
  H   H117      1.0  0.29753  0.58159  0.48711  1.0000
  S   S34       1.0  0.54838  0.36274  0.09515  1.0000
  H   H118      1.0  0.33062  0.36786  0.54871  1.0000
  S   S35       1.0  0.57601  0.43230  0.17448  1.0000
  S   S36       1.0  0.11683  0.33942  0.15108  1.0000
  H   H119      1.0  0.12237  0.56129  0.29223  1.0000
  H   H120      1.0  0.59971  0.33427  0.23387  1.0000
  H   H121      1.0  0.14954  0.56320  0.14048  1.0000
  H   H122      1.0  0.21370  0.34909  0.10181  1.0000
  C   C78       1.0  0.34892  0.35353  0.56973  1.0000
  S   S37       1.0  0.11485  0.50873  0.22977  1.0000
  H   H123      1.0  0.40742  0.34533  0.52000  1.0000
  C   C79       1.0  0.52427  0.57956  0.43402  1.0000
  H   H124      1.0  0.23924  0.56882  0.55117  1.0000
  H   H125      1.0  0.19609  0.57852  0.13868  1.0000
  H   H126      1.0  0.26880  0.57717  0.44325  1.0000
  C   C80       1.0  0.34387  0.56925  0.58689  1.0000
  C   C81       1.0  0.10676  0.43127  0.57566  1.0000
  H   H127      1.0  0.10776  0.45295  0.55294  1.0000
  S   S38       1.0  0.19631  0.39659  0.62907  1.0000
  C   C82       1.0  0.13248  0.35921  0.07215  1.0000
  H   H128      1.0  0.15631  0.36995  0.91385  1.0000
  H   H129      1.0  0.53481  0.50760  0.82271  1.0000
  C   C83       1.0  0.35811  0.54470  0.65334  1.0000
  H   H130      1.0  0.48835  0.47659  0.86711  1.0000
  H   H131      1.0  0.20639  0.53911  0.73236  1.0000
  C   C84       1.0  0.40769  0.33718  0.95968  1.0000
  H   H132      1.0  0.29845  0.57305  0.69837  1.0000
  Fe  Fe18      1.0  0.49917  0.38031  0.06142  1.0000
  C   C85       1.0  0.53216  0.53060  0.84346  1.0000
  H   H133      1.0  0.13203  0.42736  0.97358  1.0000
  C   C86       1.0  0.26824  0.56985  0.70092  1.0000
  C   C87       1.0  0.13757  0.42634  0.86967  1.0000
  S   S39       1.0  0.20395  0.53912  0.86425  1.0000
  H   H134      1.0  0.16146  0.48195  0.91127  1.0000
  Fe  Fe19      1.0  0.20130  0.42650  0.68744  1.0000
  S   S40       1.0  0.15130  0.43649  0.72599  1.0000
  H   H135      1.0  0.46093  0.50162  0.90269  1.0000
  C   C88       1.0  0.18757  0.50949  0.82790  1.0000
  C   C89       1.0  0.21077  0.48309  0.81355  1.0000
  C   C90       1.0  0.19957  0.46076  0.78212  1.0000
  C   C91       1.0  0.16455  0.46381  0.76611  1.0000
  C   C92       1.0  0.14074  0.48937  0.78144  1.0000
  C   C93       1.0  0.15247  0.51261  0.81198  1.0000
  H   H136      1.0  0.23782  0.48038  0.82611  1.0000
  H   H137      1.0  0.21788  0.44079  0.77070  1.0000
  H   H138      1.0  0.12659  0.56936  0.94877  1.0000
  S   S41       1.0  0.44999  0.34577  0.07328  1.0000
  H   H139      1.0  0.53876  0.55453  0.82529  1.0000
  H   H140      1.0  0.18665  0.45858  0.94909  1.0000
  H   H141      1.0  0.13441  0.53290  0.82306  1.0000
  H   H142      1.0  0.41259  0.34808  0.92952  1.0000
  H   H143      1.0  0.18520  0.39277  0.94890  1.0000
  C   C94       1.0  0.42894  0.34840  0.99275  1.0000
  C   C95       1.0  0.12179  0.42723  0.94169  1.0000
  H   H144      1.0  0.11909  0.40243  0.64937  1.0000
  H   H145      1.0  0.46871  0.51257  0.80858  1.0000
  H   H146      1.0  0.31613  0.34833  0.68501  1.0000
  S   S42       1.0  0.22449  0.47429  0.65746  1.0000
  H   H147      1.0  0.47210  0.55944  0.81111  1.0000
  S   S43       1.0  0.28026  0.42146  0.60671  1.0000
  H   H148      1.0  0.30333  0.53824  0.76117  1.0000
  Fe  Fe20      1.0  0.27891  0.44994  0.66704  1.0000
  H   H149      1.0  0.51306  0.56205  0.91443  1.0000
  H   H150      1.0  0.55822  0.56170  0.97058  1.0000
  H   H151      1.0  0.20034  0.45657  0.89611  1.0000
  S   S44       1.0  0.32327  0.48719  0.68653  1.0000
  H   H152      1.0  0.26417  0.51217  0.74891  1.0000
  C   C96       1.0  0.17624  0.45712  0.91728  1.0000
  S   S45       1.0  0.25606  0.40455  0.70353  1.0000
  H   H153      1.0  0.14635  0.37515  0.01083  1.0000
  H   H154      1.0  0.55352  0.52820  0.86716  1.0000
  C   C97       1.0  0.31155  0.51747  0.61190  1.0000
  C   C98       1.0  0.33187  0.51822  0.64780  1.0000
  H   H155      1.0  0.37377  0.54552  0.68116  1.0000
  C   C99       1.0  0.48793  0.50054  0.88657  1.0000
  C   C100      1.0  0.42252  0.33434  0.03173  1.0000
  H   H156      1.0  0.11902  0.40354  0.86449  1.0000
  Fe  Fe21      1.0  0.22375  0.44282  0.59980  1.0000
  C   C101      1.0  0.60261  0.55360  0.92764  1.0000
  N   N8        1.0  0.25605  0.56784  0.74419  1.0000
  Fe  Fe22      1.0  0.25282  0.37797  0.64212  1.0000
  C   C102      1.0  0.21580  0.56425  0.74624  1.0000
  N   N9        1.0  0.15230  0.42616  0.91154  1.0000
  C   C103      1.0  0.46763  0.53538  0.82981  1.0000
  H   H157      1.0  0.29116  0.49732  0.60732  1.0000
  S   S46       1.0  0.52973  0.38904  0.00190  1.0000
  Fe  Fe23      1.0  0.57971  0.37612  0.03800  1.0000
  H   H158      1.0  0.45015  0.36794  0.98809  1.0000
  H   H159      1.0  0.26098  0.54548  0.68396  1.0000
  H   H160      1.0  0.12184  0.45063  0.86375  1.0000
  H   H161      1.0  0.13150  0.50820  0.97054  1.0000
  Fe  Fe24      1.0  0.53838  0.44359  0.02646  1.0000
  S   S47       1.0  0.53135  0.49379  0.99199  1.0000
  H   H162      1.0  0.43945  0.53672  0.84301  1.0000
  H   H163      1.0  0.26540  0.53555  0.79679  1.0000
  N   N10       1.0  0.49520  0.53254  0.86225  1.0000
  H   H164      1.0  0.50892  0.49703  0.91044  1.0000
  C   C104      1.0  0.17361  0.39388  0.91761  1.0000
  H   H165      1.0  0.10855  0.47981  0.66304  1.0000
  C   C105      1.0  0.11362  0.52570  0.98722  1.0000
  C   C106      1.0  0.59243  0.48216  0.94382  1.0000
  C   C107      1.0  0.56960  0.50683  0.96269  1.0000
  H   H166      1.0  0.19681  0.39192  0.89532  1.0000
  H   H167      1.0  0.58816  0.45450  0.94961  1.0000
  C   C108      1.0  0.57525  0.54254  0.95520  1.0000
  S   S48       1.0  0.59149  0.43167  0.05627  1.0000
  C   C109      1.0  0.14592  0.35373  0.03234  1.0000
  C   C110      1.0  0.36394  0.57032  0.62302  1.0000
  H   H168      1.0  0.14578  0.46169  0.63415  1.0000
  C   C111      1.0  0.11720  0.47114  0.63182  1.0000
  C   C112      1.0  0.27295  0.53715  0.76369  1.0000
  H   H169      1.0  0.11362  0.49180  0.76901  1.0000
  H   H170      1.0  0.20564  0.56473  0.77847  1.0000
  H   H171      1.0  0.15988  0.42496  0.84621  1.0000
  S   S49       1.0  0.50414  0.43584  0.08350  1.0000
  C   C113      1.0  0.49308  0.56365  0.88921  1.0000
  H   H172      1.0  0.19525  0.57477  0.06218  1.0000
  C   C114      1.0  0.11083  0.56052  0.97489  1.0000
  H   H173      1.0  0.12276  0.38484  0.08076  1.0000
  H   H174      1.0  0.46547  0.56626  0.90360  1.0000
  H   H175      1.0  0.33289  0.34857  0.59838  1.0000
  H   H176      1.0  0.14853  0.55994  0.06462  1.0000
  H   H177      1.0  0.16972  0.57427  0.60892  1.0000
  H   H178      1.0  0.11770  0.49452  0.61154  1.0000
  H   H179      1.0  0.25896  0.34794  0.07930  1.0000
  H   H180      1.0  0.20637  0.52069  0.59901  1.0000
  H   H181      1.0  0.51781  0.70964  0.44819  1.0000
  H   H182      1.0  0.51637  0.66028  0.33049  1.0000
  H   H183      1.0  0.18568  0.77609  0.33129  1.0000
  C   C115      1.0  0.37618  0.79983  0.46356  1.0000
  H   H184      1.0  0.35520  0.71531  0.48794  1.0000
  H   H185      1.0  0.59660  0.79179  0.24330  1.0000
  Fe  Fe25      1.0  0.11684  0.71247  0.17650  1.0000
  H   H186      1.0  0.18410  0.60752  0.49709  1.0000
  S   S50       1.0  0.47535  0.70672  0.55812  1.0000
  C   C116      1.0  0.58614  0.60260  0.43492  1.0000
  S   S51       1.0  0.17391  0.73137  0.18670  1.0000
  H   H187      1.0  0.50554  0.66427  0.44360  1.0000
  H   H188      1.0  0.27097  0.60468  0.55314  1.0000
  N   N11       1.0  0.24243  0.59966  0.49633  1.0000
  C   C117      1.0  0.55822  0.58476  0.41465  1.0000
  C   C118      1.0  0.58005  0.61541  0.47455  1.0000
  H   H189      1.0  0.34362  0.82490  0.55533  1.0000
  C   C119      1.0  0.24383  0.59639  0.54135  1.0000
  C   C120      1.0  0.14547  0.78956  0.39888  1.0000
  H   H190      1.0  0.49137  0.58968  0.48796  1.0000
  H   H191      1.0  0.16175  0.60358  0.16532  1.0000
  H   H192      1.0  0.11844  0.79268  0.38414  1.0000
  H   H193      1.0  0.33719  0.76352  0.57888  1.0000
  C   C121      1.0  0.34173  0.81494  0.47042  1.0000
  Fe  Fe26      1.0  0.17754  0.73566  0.11868  1.0000
  H   H194      1.0  0.30796  0.79084  0.12985  1.0000
  H   H195      1.0  0.15155  0.80775  0.31936  1.0000
  Fe  Fe27      1.0  0.14989  0.78499  0.18463  1.0000
  S   S52       1.0  0.15823  0.79100  0.11687  1.0000
  S   S53       1.0  0.12224  0.71211  0.10812  1.0000
  C   C122      1.0  0.31717  0.75805  0.48956  1.0000
  C   C123      1.0  0.25259  0.81978  0.08966  1.0000
  H   H196      1.0  0.45767  0.68134  0.39521  1.0000
  C   C124      1.0  0.31234  0.79402  0.48383  1.0000
  S   S54       1.0  0.23077  0.71917  0.09022  1.0000
  C   C125      1.0  0.17762  0.80390  0.33596  1.0000
  C   C126      1.0  0.12113  0.61788  0.10007  1.0000
  H   H197      1.0  0.55045  0.64858  0.36659  1.0000
  H   H198      1.0  0.29440  0.74184  0.49974  1.0000
  C   C127      1.0  0.40419  0.79202  0.58108  1.0000
  H   H199      1.0  0.46976  0.70470  0.34908  1.0000
  H   H200      1.0  0.50380  0.63581  0.37560  1.0000
  H   H201      1.0  0.42402  0.81405  0.57716  1.0000
  C   C128      1.0  0.25156  0.63610  0.48449  1.0000
  C   C129      1.0  0.51780  0.59331  0.47319  1.0000
  S   S55       1.0  0.60367  0.72606  0.28472  1.0000
  C   C130      1.0  0.54565  0.61139  0.49326  1.0000
  H   H202      1.0  0.20284  0.59355  0.44862  1.0000
  H   H203      1.0  0.22265  0.61279  0.55676  1.0000
  H   H204      1.0  0.11387  0.72871  0.25415  1.0000
  H   H205      1.0  0.21331  0.63035  0.09583  1.0000
  N   N12       1.0  0.15968  0.60659  0.09961  1.0000
  C   C131      1.0  0.52168  0.65738  0.36376  1.0000
  C   C132      1.0  0.53984  0.71809  0.36937  1.0000
  S   S56       1.0  0.42506  0.74601  0.46822  1.0000
  C   C133      1.0  0.16711  0.58711  0.13766  1.0000
  H   H206      1.0  0.55205  0.67778  0.43477  1.0000
  C   C134      1.0  0.20893  0.80747  0.40055  1.0000
  H   H207      1.0  0.47135  0.72643  0.39785  1.0000
  H   H208      1.0  0.60163  0.69344  0.09659  1.0000
  Fe  Fe28      1.0  0.47978  0.64904  0.54789  1.0000
  H   H209      1.0  0.23198  0.65501  0.49852  1.0000
  S   S57       1.0  0.53749  0.63058  0.54085  1.0000
  Fe  Fe29      1.0  0.39810  0.63775  0.55474  1.0000
  H   H210      1.0  0.18006  0.65543  0.12378  1.0000
  H   H211      1.0  0.53468  0.72275  0.33631  1.0000
  S   S58       1.0  0.26974  0.81215  0.49575  1.0000
  S   S59       1.0  0.43594  0.64702  0.50071  1.0000
  C   C135      1.0  0.47687  0.70118  0.38180  1.0000
  H   H212      1.0  0.56916  0.71070  0.37174  1.0000
  Fe  Fe30      1.0  0.42839  0.70375  0.51553  1.0000
  C   C136      1.0  0.35159  0.74309  0.48319  1.0000
  N   N13       1.0  0.51537  0.69050  0.38626  1.0000
  H   H213      1.0  0.53613  0.74344  0.38574  1.0000
  S   S60       1.0  0.38685  0.69480  0.56566  1.0000
  C   C137      1.0  0.52309  0.68537  0.43011  1.0000
  C   C138      1.0  0.38120  0.76399  0.47065  1.0000
  H   H214      1.0  0.15285  0.76136  0.39591  1.0000
  H   H215      1.0  0.25079  0.63959  0.45070  1.0000
  N   N14       1.0  0.17365  0.81264  0.37994  1.0000
  S   S61       1.0  0.59350  0.62601  0.27102  1.0000
  C   C139      1.0  0.18393  0.63772  0.09695  1.0000
  H   H216      1.0  0.60160  0.62939  0.49019  1.0000
  H   H217      1.0  0.11244  0.74339  0.32782  1.0000
  H   H218      1.0  0.58838  0.69491  0.17160  1.0000
  C   C140      1.0  0.20526  0.59059  0.48236  1.0000
  H   H219      1.0  0.39611  0.78333  0.54999  1.0000
  H   H220      1.0  0.23084  0.82458  0.38724  1.0000
  S   S62       1.0  0.34995  0.60103  0.54837  1.0000
  H   H221      1.0  0.27956  0.64361  0.49460  1.0000
  H   H222      1.0  0.19865  0.82069  0.32046  1.0000
  H   H223      1.0  0.20691  0.81387  0.43383  1.0000
  H   H224      1.0  0.21826  0.77985  0.39795  1.0000
  H   H225      1.0  0.39914  0.81608  0.45402  1.0000
  H   H226      1.0  0.25084  0.82308  0.12349  1.0000
  S   S63       1.0  0.17299  0.82508  0.22774  1.0000
  H   H227      1.0  0.29430  0.76204  0.08941  1.0000
  H   H228      1.0  0.11517  0.63538  0.12662  1.0000
  C   C141      1.0  0.30853  0.78725  0.09602  1.0000
  H   H229      1.0  0.14174  0.79525  0.43210  1.0000
  S   S64       1.0  0.11147  0.60322  0.56272  1.0000
  C   C142      1.0  0.10695  0.70864  0.27622  1.0000
  S   S65       1.0  0.18019  0.62077  0.92677  1.0000
  H   H230      1.0  0.25458  0.62378  0.75265  1.0000
  Fe  Fe31      1.0  0.12023  0.63090  0.92304  1.0000
  C   C143      1.0  0.53294  0.65261  0.64000  1.0000
  H   H231      1.0  0.52940  0.67231  0.61538  1.0000
  C   C144      1.0  0.23065  0.71061  0.95125  1.0000
  Fe  Fe32      1.0  0.12392  0.64378  0.83184  1.0000
  C   C145      1.0  0.23018  0.71628  0.03679  1.0000
  H   H232      1.0  0.56692  0.59880  0.67575  1.0000
  S   S66       1.0  0.18433  0.63440  0.82746  1.0000
  H   H233      1.0  0.49910  0.58825  0.87195  1.0000
  H   H234      1.0  0.32133  0.77972  0.62756  1.0000
  C   C146      1.0  0.19739  0.71205  0.97303  1.0000
  C   C147      1.0  0.19715  0.71559  0.01578  1.0000
  H   H235      1.0  0.57892  0.70730  0.64607  1.0000
  Fe  Fe33      1.0  0.18639  0.66654  0.88476  1.0000
  S   S67       1.0  0.23109  0.70473  0.89812  1.0000
  Fe  Fe34      1.0  0.43483  0.69252  0.60718  1.0000
  H   H236      1.0  0.29749  0.60381  0.76481  1.0000
  S   S68       1.0  0.12698  0.67990  0.88595  1.0000
  H   H237      1.0  0.59357  0.66134  0.59399  1.0000
  C   C148      1.0  0.26728  0.60007  0.76602  1.0000
  H   H238      1.0  0.27614  0.78635  0.02241  1.0000
  H   H239      1.0  0.28893  0.71447  0.03128  1.0000
  C   C149      1.0  0.26337  0.71435  0.01507  1.0000
  C   C150      1.0  0.26362  0.71225  0.97226  1.0000
  N   N15       1.0  0.37202  0.80251  0.60603  1.0000
  H   H240      1.0  0.28929  0.71064  0.95549  1.0000
  H   H241      1.0  0.59331  0.70474  0.99306  1.0000
  H   H242      1.0  0.17145  0.71719  0.03241  1.0000
  H   H243      1.0  0.17188  0.71074  0.95682  1.0000
  H   H244      1.0  0.51368  0.65935  0.66527  1.0000
  H   H245      1.0  0.60223  0.62479  0.69872  1.0000
  C   C151      1.0  0.29150  0.81067  0.03042  1.0000
  C   C152      1.0  0.57403  0.62555  0.68690  1.0000
  S   S69       1.0  0.44306  0.63459  0.60079  1.0000
  Fe  Fe35      1.0  0.17246  0.58932  0.86965  1.0000
  H   H246      1.0  0.38381  0.59090  0.62777  1.0000
  H   H247      1.0  0.56332  0.69460  0.69625  1.0000
  H   H248      1.0  0.52427  0.62665  0.62776  1.0000
  C   C153      1.0  0.34627  0.77258  0.60958  1.0000
  S   S70       1.0  0.11148  0.59557  0.86886  1.0000
  Fe  Fe36      1.0  0.57316  0.63005  0.80095  1.0000
  S   S71       1.0  0.51363  0.61966  0.78971  1.0000
  C   C154      1.0  0.38406  0.81306  0.64729  1.0000
  S   S72       1.0  0.59675  0.63203  0.86384  1.0000
  H   H249      1.0  0.39819  0.79114  0.66296  1.0000
  C   C155      1.0  0.49155  0.64961  0.75792  1.0000
  C   C156      1.0  0.46216  0.63795  0.73442  1.0000
  C   C157      1.0  0.44542  0.66069  0.70688  1.0000
  C   C158      1.0  0.45748  0.69544  0.70339  1.0000
  C   C159      1.0  0.48614  0.70749  0.72785  1.0000
  C   C160      1.0  0.50349  0.68445  0.75476  1.0000
  H   H250      1.0  0.11440  0.63242  0.07161  1.0000
  H   H251      1.0  0.42311  0.65132  0.68836  1.0000
  H   H252      1.0  0.49550  0.73438  0.72526  1.0000
  H   H253      1.0  0.52581  0.69373  0.77333  1.0000
  S   S73       1.0  0.43913  0.72275  0.66586  1.0000
  N   N16       1.0  0.29092  0.81685  0.07511  1.0000
  C   C161      1.0  0.58134  0.68681  0.67006  1.0000
  H   H254      1.0  0.58914  0.61599  0.60736  1.0000
  H   H255      1.0  0.45278  0.61105  0.73681  1.0000
  N   N17       1.0  0.57104  0.65188  0.65415  1.0000
  H   H256      1.0  0.25886  0.59905  0.79897  1.0000
  H   H257      1.0  0.16078  0.59769  0.03455  1.0000
  H   H258      1.0  0.17863  0.65335  0.06892  1.0000
  C   C162      1.0  0.59580  0.64246  0.61975  1.0000
  H   H259      1.0  0.31993  0.80785  0.01833  1.0000
  H   H260      1.0  0.25570  0.59236  0.68492  1.0000
  H   H261      1.0  0.55540  0.63154  0.71314  1.0000
  H   H262      1.0  0.20212  0.58611  0.73017  1.0000
  H   H263      1.0  0.41896  0.76989  0.59544  1.0000
  H   H264      1.0  0.35914  0.74993  0.62516  1.0000
  H   H265      1.0  0.36048  0.82093  0.66710  1.0000
  H   H266      1.0  0.23645  0.79586  0.08196  1.0000
  H   H267      1.0  0.33759  0.78439  0.08607  1.0000
  C   C163      1.0  0.16639  0.58372  0.06372  1.0000
  S   S74       1.0  0.21043  0.89034  0.50737  1.0000
  H   H268      1.0  0.28327  0.88979  0.18676  1.0000
  C   C164      1.0  0.25502  0.00863  0.25480  1.0000
  H   H269      1.0  0.19016  0.90239  0.10985  1.0000
  Fe  Fe37      1.0  0.22592  0.92942  0.45935  1.0000
  S   S75       1.0  0.18446  0.93997  0.41144  1.0000
  C   C165      1.0  0.19800  0.85454  0.19708  1.0000
  C   C166      1.0  0.18216  0.86890  0.16231  1.0000
  Fe  Fe38      1.0  0.26746  0.87090  0.49818  1.0000
  H   H270      1.0  0.24880  0.98421  0.40985  1.0000
  S   S76       1.0  0.28164  0.90756  0.44658  1.0000
  H   H271      1.0  0.21199  0.94151  0.20656  1.0000
  C   C167      1.0  0.26073  0.04319  0.08928  1.0000
  H   H272      1.0  0.56540  0.94738  0.18563  1.0000
  S   S77       1.0  0.16283  0.02821  0.12647  1.0000
  H   H273      1.0  0.15208  0.04124  0.32936  1.0000
  C   C168      1.0  0.54554  0.93824  0.20954  1.0000
  C   C169      1.0  0.54042  0.01328  0.55498  1.0000
  Fe  Fe39      1.0  0.23475  0.92839  0.55147  1.0000
  H   H274      1.0  0.37225  0.85518  0.58232  1.0000
  S   S78       1.0  0.29090  0.90535  0.54710  1.0000
  C   C170      1.0  0.17331  0.02870  0.34647  1.0000
  C   C171      1.0  0.16559  0.99752  0.36756  1.0000
  C   C172      1.0  0.19293  0.98119  0.38990  1.0000
  C   C173      1.0  0.22764  0.99673  0.39246  1.0000
  C   C174      1.0  0.23552  0.02760  0.37069  1.0000
  H   H275      1.0  0.23268  0.02784  0.25056  1.0000
  H   H276      1.0  0.54087  0.87162  0.27837  1.0000
  H   H277      1.0  0.43051  0.04982  0.41503  1.0000
  H   H278      1.0  0.18999  0.99172  0.55714  1.0000
  C   C175      1.0  0.25512  0.88422  0.17994  1.0000
  C   C176      1.0  0.23443  0.86239  0.20608  1.0000
  C   C177      1.0  0.59394  0.91574  0.25117  1.0000
  H   H279      1.0  0.20260  0.93758  0.27988  1.0000
  H   H280      1.0  0.13596  0.85465  0.36945  1.0000
  S   S79       1.0  0.24493  0.96983  0.50397  1.0000
  Fe  Fe40      1.0  0.29979  0.94450  0.49655  1.0000
  C   C178      1.0  0.31674  0.01589  0.55544  1.0000
  C   C179      1.0  0.20268  0.89110  0.13654  1.0000
  C   C180      1.0  0.22452  0.96796  0.20995  1.0000
  N   N18       1.0  0.52862  0.04891  0.54375  1.0000
  C   C181      1.0  0.23919  0.89874  0.14526  1.0000
  S   S80       1.0  0.60429  0.93000  0.09965  1.0000
  H   H281      1.0  0.35087  0.04897  0.44562  1.0000
  H   H282      1.0  0.54094  0.96040  0.23112  1.0000
  H   H283      1.0  0.26298  0.92010  0.25407  1.0000
  C   C182      1.0  0.20862  0.04298  0.34674  1.0000
  H   H284      1.0  0.24482  0.97158  0.18456  1.0000
  H   H285      1.0  0.19073  0.98309  0.28159  1.0000
  H   H286      1.0  0.59022  0.93724  0.27401  1.0000
  S   S81       1.0  0.35070  0.97855  0.49401  1.0000
  H   H287      1.0  0.15393  0.86303  0.15536  1.0000
  C   C183      1.0  0.21400  0.96460  0.28280  1.0000
  H   H288      1.0  0.33803  0.84277  0.46590  1.0000
  H   H289      1.0  0.57542  0.85433  0.21607  1.0000
  C   C184      1.0  0.16255  0.84966  0.38441  1.0000
  H   H290      1.0  0.26270  0.03890  0.37134  1.0000
  Fe  Fe41      1.0  0.32001  0.94252  0.13340  1.0000
  C   C185      1.0  0.27242  0.94783  0.25448  1.0000
  H   H291      1.0  0.13863  0.98576  0.36601  1.0000
  H   H292      1.0  0.29288  0.95129  0.22929  1.0000
  S   S82       1.0  0.26395  0.92709  0.11289  1.0000
  H   H293      1.0  0.51854  0.99348  0.54957  1.0000
  C   C186      1.0  0.34701  0.01371  0.52896  1.0000
  H   H294      1.0  0.26653  0.01339  0.28569  1.0000
  H   H295      1.0  0.27688  0.01480  0.23188  1.0000
  H   H296      1.0  0.47243  0.03946  0.56149  1.0000
  H   H297      1.0  0.22611  0.96671  0.31369  1.0000
  H   H298      1.0  0.20234  0.98729  0.20519  1.0000
  H   H299      1.0  0.28710  0.95209  0.28373  1.0000
  N   N19       1.0  0.24151  0.97225  0.25044  1.0000
  S   S83       1.0  0.14332  0.03826  0.24367  1.0000
  C   C187      1.0  0.33784  0.07245  0.58030  1.0000
  H   H300      1.0  0.54541  0.04384  0.48067  1.0000
  S   S84       1.0  0.54533  0.06534  0.38784  1.0000
  H   H301      1.0  0.57012  0.04242  0.12997  1.0000
  C   C188      1.0  0.36921  0.06965  0.55535  1.0000
  H   H302      1.0  0.24687  0.85088  0.23266  1.0000
  C   C189      1.0  0.54558  0.05347  0.11510  1.0000
  C   C190      1.0  0.35506  0.00787  0.37925  1.0000
  S   S85       1.0  0.32863  0.99461  0.16363  1.0000
  Fe  Fe42      1.0  0.36796  0.96563  0.20286  1.0000
  S   S86       1.0  0.37075  0.97199  0.27092  1.0000
  S   S87       1.0  0.35543  0.91279  0.17624  1.0000
  H   H303      1.0  0.18313  0.86782  0.37031  1.0000
  H   H304      1.0  0.34719  0.99349  0.40771  1.0000
  H   H305      1.0  0.30988  0.85585  0.11759  1.0000
  H   H306      1.0  0.49885  0.03086  0.49134  1.0000
  C   C191      1.0  0.49149  0.98459  0.30133  1.0000
  C   C192      1.0  0.47616  0.00488  0.27049  1.0000
  C   C193      1.0  0.43902  0.00107  0.26125  1.0000
  C   C194      1.0  0.41706  0.97716  0.28304  1.0000
  C   C195      1.0  0.43227  0.95720  0.31429  1.0000
  C   C196      1.0  0.46957  0.96060  0.32308  1.0000
  H   H307      1.0  0.49306  0.02311  0.25325  1.0000
  H   H308      1.0  0.42726  0.01699  0.23756  1.0000
  H   H309      1.0  0.41540  0.93859  0.33112  1.0000
  H   H310      1.0  0.48135  0.94488  0.34699  1.0000
  H   H311      1.0  0.42831  0.00940  0.38688  1.0000
  H   H312      1.0  0.29698  0.99483  0.55690  1.0000
  H   H313      1.0  0.52713  0.91624  0.28552  1.0000
  C   C197      1.0  0.41246  0.02708  0.40756  1.0000
  Fe  Fe43      1.0  0.40080  0.92519  0.13164  1.0000
  S   S88       1.0  0.60476  0.07262  0.31197  1.0000
  H   H314      1.0  0.50492  0.88957  0.24793  1.0000
  N   N20       1.0  0.37834  0.03870  0.38826  1.0000
  C   C198      1.0  0.53181  0.89552  0.26204  1.0000
  H   H315      1.0  0.33278  0.07205  0.40277  1.0000
  H   H316      1.0  0.58589  0.88623  0.17726  1.0000
  Fe  Fe44      1.0  0.15178  0.06181  0.18158  1.0000
  H   H317      1.0  0.40655  0.01250  0.43646  1.0000
  H   H318      1.0  0.47359  0.95062  0.11399  1.0000
  H   H319      1.0  0.36947  0.98901  0.35877  1.0000
  C   C199      1.0  0.37366  0.04039  0.52947  1.0000
  S   S89       1.0  0.43913  0.88220  0.11259  1.0000
  H   H320      1.0  0.39738  0.03876  0.50945  1.0000
  C   C200      1.0  0.53114  0.94166  0.10635  1.0000
  C   C201      1.0  0.49535  0.05804  0.56758  1.0000
  H   H321      1.0  0.53958  0.87140  0.18496  1.0000
  H   H322      1.0  0.56569  0.07366  0.58567  1.0000
  N   N21       1.0  0.55914  0.90697  0.23097  1.0000
  C   C202      1.0  0.35851  0.06247  0.41648  1.0000
  Fe  Fe45      1.0  0.37612  0.99977  0.12007  1.0000
  S   S90       1.0  0.41666  0.97562  0.16226  1.0000
  Fe  Fe46      1.0  0.55103  0.04543  0.32364  1.0000
  S   S91       1.0  0.53817  0.98870  0.31223  1.0000
  H   H323      1.0  0.32944  0.01557  0.36387  1.0000
  C   C203      1.0  0.52065  0.04998  0.49955  1.0000
  H   H324      1.0  0.56485  0.00519  0.53677  1.0000
  H   H325      1.0  0.50464  0.84346  0.09650  1.0000
  H   H326      1.0  0.28786  0.03012  0.08957  1.0000
  H   H327      1.0  0.51130  0.07640  0.49017  1.0000
  C   C204      1.0  0.49440  0.93124  0.10938  1.0000
  C   C205      1.0  0.56526  0.87844  0.20104  1.0000
  C   C206      1.0  0.12887  0.03660  0.09045  1.0000
  C   C207      1.0  0.51200  0.87089  0.09928  1.0000
  C   C208      1.0  0.48478  0.89582  0.10652  1.0000
  H   H328      1.0  0.55305  0.07545  0.19313  1.0000
  H   H329      1.0  0.58323  0.06894  0.53445  1.0000
  H   H330      1.0  0.51905  0.93268  0.19438  1.0000
  S   S92       1.0  0.22028  0.07750  0.31373  1.0000
  C   C209      1.0  0.54878  0.88130  0.09614  1.0000
  H   H331      1.0  0.60510  0.89273  0.26759  1.0000
  C   C210      1.0  0.31180  0.04541  0.58042  1.0000
  C   C211      1.0  0.55840  0.91665  0.10045  1.0000
  H   H332      1.0  0.15965  0.85741  0.41720  1.0000
  H   H333      1.0  0.53843  0.96908  0.10909  1.0000
  H   H334      1.0  0.16155  0.04959  0.56843  1.0000
  H   H335      1.0  0.52259  0.03445  0.11938  1.0000
  C   C212      1.0  0.55811  0.07435  0.55286  1.0000
  H   H336      1.0  0.40483  0.08092  0.35554  1.0000
  H   H337      1.0  0.24653  0.03747  0.11894  1.0000
  H   H338      1.0  0.50549  0.06693  0.18317  1.0000
  H   H339      1.0  0.36232  0.06634  0.33416  1.0000
  C   C213      1.0  0.38739  0.05741  0.34979  1.0000
  H   H340      1.0  0.40266  0.04029  0.32799  1.0000
  H   H341      1.0  0.56953  0.86189  0.09043  1.0000
  C   C214      1.0  0.35356  0.83223  0.58622  1.0000
  C   C215      1.0  0.18313  0.99011  0.66091  1.0000
  H   H342      1.0  0.60337  0.93898  0.01236  1.0000
  H   H343      1.0  0.18945  0.97373  0.68681  1.0000
  H   H344      1.0  0.12707  0.94694  0.60191  1.0000
  H   H345      1.0  0.56262  0.96341  0.02315  1.0000
  H   H346      1.0  0.32930  0.84104  0.60438  1.0000
  H   H347      1.0  0.12286  0.05863  0.93248  1.0000
  C   C216      1.0  0.19202  0.97896  0.62121  1.0000
  C   C217      1.0  0.16551  0.02216  0.66720  1.0000
  C   C218      1.0  0.47153  0.06665  0.00742  1.0000
  C   C219      1.0  0.11513  0.07046  0.08618  1.0000
  C   C220      1.0  0.15757  0.04354  0.63386  1.0000
  H   H348      1.0  0.15864  0.03049  0.69790  1.0000
  H   H349      1.0  0.11814  0.88626  0.62329  1.0000
  H   H350      1.0  0.55154  0.05495  0.08158  1.0000
  C   C221      1.0  0.16760  0.03304  0.59428  1.0000
  H   H351      1.0  0.23876  0.84263  0.07569  1.0000
  H   H352      1.0  0.43851  0.99365  0.08137  1.0000
  C   C222      1.0  0.44796  0.01434  0.06144  1.0000
  H   H353      1.0  0.12385  0.98272  0.07153  1.0000
  H   H354      1.0  0.40354  0.83559  0.64576  1.0000
  H   H355      1.0  0.24426  0.03044  0.06495  1.0000
  H   H356      1.0  0.52803  0.88198  0.97428  1.0000
  H   H357      1.0  0.52964  0.07351  0.78036  1.0000
  H   H358      1.0  0.59723  0.93734  0.91993  1.0000
  C   C223      1.0  0.43834  0.07032  0.02903  1.0000
  H   H359      1.0  0.50048  0.05785  0.60106  1.0000
  S   S93       1.0  0.20920  0.93663  0.61375  1.0000
  C   C224      1.0  0.49375  0.03763  0.01427  1.0000
  C   C225      1.0  0.48156  0.01112  0.04068  1.0000
  S   S94       1.0  0.53747  0.03482  0.99170  1.0000
  N   N22       1.0  0.55956  0.92979  0.97036  1.0000
  H   H360      1.0  0.49820  0.98827  0.04550  1.0000
  C   C226      1.0  0.53002  0.94988  0.95109  1.0000
  S   S95       1.0  0.38620  0.04938  0.08513  1.0000
  H   H361      1.0  0.54113  0.97261  0.93339  1.0000
  C   C227      1.0  0.42673  0.04430  0.05645  1.0000
  H   H362      1.0  0.56494  0.88514  0.00979  1.0000
  H   H363      1.0  0.34035  0.84802  0.07496  1.0000
  C   C228      1.0  0.11288  0.00887  0.06888  1.0000
  C   C229      1.0  0.55392  0.06968  0.75992  1.0000
  C   C230      1.0  0.58033  0.95303  0.99796  1.0000
  C   C231      1.0  0.54344  0.90044  0.99414  1.0000
  H   H364      1.0  0.29913  0.87237  0.06795  1.0000
  H   H365      1.0  0.51076  0.96075  0.97452  1.0000
  H   H366      1.0  0.47527  0.07802  0.83554  1.0000
  H   H367      1.0  0.51381  0.93328  0.92989  1.0000
  H   H368      1.0  0.11325  0.96226  0.69367  1.0000
  H   H369      1.0  0.28783  0.04703  0.60010  1.0000
  H   H370      1.0  0.11802  0.02583  0.86669  1.0000
  H   H371      1.0  0.52404  0.91009  0.01816  1.0000
  H   H372      1.0  0.59196  0.97610  0.98135  1.0000
  C   C232      1.0  0.11316  0.93463  0.68256  1.0000
  H   H373      1.0  0.56977  0.89815  0.91689  1.0000
  C   C233      1.0  0.58448  0.91582  0.93834  1.0000
  H   H374      1.0  0.22253  0.07686  0.64951  1.0000
  H   H375      1.0  0.54391  0.05717  0.73136  1.0000
  H   H376      1.0  0.57239  0.05069  0.77501  1.0000
  C   C234      1.0  0.31099  0.84965  0.08430  1.0000
  H   H377      1.0  0.14177  0.92774  0.67381  1.0000
  S   S96       1.0  0.36413  0.95017  0.08605  1.0000
  C   C235      1.0  0.18428  0.00049  0.58791  1.0000
  H   H378      1.0  0.31192  0.07622  0.04297  1.0000
  N   N23       1.0  0.26459  0.08135  0.08238  1.0000
  H   H379      1.0  0.26888  0.07607  0.01692  1.0000
  H   H380      1.0  0.27856  0.83266  0.01377  1.0000
  H   H381      1.0  0.54814  0.01182  0.58776  1.0000
  C   C236      1.0  0.88864  0.25607  0.28370  1.0000
  H   H382      1.0  0.02515  0.16812  0.42262  1.0000
  Fe  Fe47      1.0  0.77118  0.24373  0.21660  1.0000
  S   S97       1.0  0.74303  0.21722  0.27014  1.0000
  H   H383      1.0  0.78444  0.14717  0.32307  1.0000
  C   C237      1.0  0.76067  0.22387  0.55671  1.0000
  C   C238      1.0  0.80877  0.24173  0.50971  1.0000
  C   C239      1.0  0.73419  0.15417  0.38306  1.0000
  H   H384      1.0  0.70565  0.15209  0.39530  1.0000
  H   H385      1.0  0.95132  0.27639  0.31828  1.0000
  H   H386      1.0  0.65520  0.24968  0.17417  1.0000
  S   S98       1.0  0.81168  0.29369  0.12185  1.0000
  Fe  Fe48      1.0  0.77045  0.31168  0.16857  1.0000
  C   C240      1.0  0.01559  0.09248  0.28760  1.0000
  H   H387      1.0  0.80297  0.13232  0.37057  1.0000
  H   H388      1.0  0.72723  0.08690  0.31521  1.0000
  C   C241      1.0  0.70073  0.19761  0.25823  1.0000
  C   C242      1.0  0.67677  0.18832  0.29021  1.0000
  C   C243      1.0  0.64360  0.17134  0.28204  1.0000
  H   H389      1.0  0.85779  0.31858  0.58044  1.0000
  C   C244      1.0  0.65680  0.17464  0.20947  1.0000
  C   C245      1.0  0.69074  0.19063  0.21774  1.0000
  H   H390      1.0  0.68390  0.19398  0.32152  1.0000
  C   C246      1.0  0.63328  0.16461  0.24174  1.0000
  N   N24       1.0  0.62995  0.29007  0.21059  1.0000
  H   H391      1.0  0.70942  0.19672  0.19279  1.0000
  H   H392      1.0  0.99161  0.24283  0.17727  1.0000
  C   C247      1.0  0.81006  0.14409  0.58374  1.0000
  C   C248      1.0  0.74524  0.09257  0.39365  1.0000
  C   C249      1.0  0.80190  0.13615  0.51067  1.0000
  H   H393      1.0  0.72134  0.13265  0.30532  1.0000
  H   H394      1.0  0.82916  0.24249  0.53466  1.0000
  Fe  Fe49      1.0  0.84062  0.27244  0.17639  1.0000
  H   H395      1.0  0.71741  0.25467  0.50191  1.0000
  S   S99       1.0  0.64213  0.10733  0.41628  1.0000
  C   C250      1.0  0.76967  0.11721  0.51872  1.0000
  H   H396      1.0  0.01207  0.27299  0.21278  1.0000
  S   S100      1.0  0.81522  0.14423  0.45967  1.0000
  H   H397      1.0  0.67768  0.10861  0.49414  1.0000
  N   N25       1.0  0.05634  0.12100  0.41437  1.0000
  C   C251      1.0  0.82224  0.14935  0.54328  1.0000
  H   H398      1.0  0.86582  0.32231  0.34877  1.0000
  N   N26       1.0  0.77175  0.24998  0.52540  1.0000
  H   H399      1.0  0.06312  0.14043  0.47569  1.0000
  S   S101      1.0  0.73675  0.26290  0.16591  1.0000
  N   N27       1.0  0.74573  0.12117  0.36315  1.0000
  H   H400      1.0  0.88144  0.23382  0.30434  1.0000
  H   H401      1.0  0.75362  0.10704  0.49377  1.0000
  C   C252      1.0  0.78316  0.12563  0.34611  1.0000
  H   H402      1.0  0.62922  0.24153  0.24386  1.0000
  H   H403      1.0  0.79286  0.10129  0.33080  1.0000
  H   H404      1.0  0.03974  0.30603  0.15237  1.0000
  H   H405      1.0  0.64922  0.16932  0.17814  1.0000
  H   H406      1.0  0.75336  0.26824  0.46709  1.0000
  S   S102      1.0  0.81320  0.21952  0.17489  1.0000
  C   C253      1.0  0.92580  0.28359  0.33514  1.0000
  H   H407      1.0  0.75936  0.19694  0.54354  1.0000
  Fe  Fe50      1.0  0.78076  0.24285  0.12416  1.0000
  H   H408      1.0  0.93134  0.30756  0.35360  1.0000
  H   H409      1.0  0.03196  0.21094  0.12699  1.0000
  H   H410      1.0  0.71753  0.08898  0.40766  1.0000
  S   S103      1.0  0.90168  0.27743  0.18067  1.0000
  H   H411      1.0  0.08649  0.24099  0.21634  1.0000
  H   H412      1.0  0.83809  0.30191  0.31022  1.0000
  H   H413      1.0  0.02017  0.22692  0.21729  1.0000
  C   C254      1.0  0.02524  0.09789  0.42589  1.0000
  H   H414      1.0  0.81806  0.26075  0.48581  1.0000
  C   C255      1.0  0.94992  0.14890  0.57105  1.0000
  H   H415      1.0  0.73537  0.17647  0.36112  1.0000
  H   H416      1.0  0.73326  0.09635  0.56520  1.0000
  H   H417      1.0  0.75215  0.16092  0.40915  1.0000
  H   H418      1.0  0.97337  0.30610  0.17106  1.0000
  H   H419      1.0  0.06700  0.28272  0.11578  1.0000
  H   H420      1.0  0.73322  0.22970  0.57007  1.0000
  H   H421      1.0  0.79108  0.28716  0.56995  1.0000
  H   H422      1.0  0.84730  0.16361  0.53752  1.0000
  C   C256      1.0  0.01684  0.24855  0.19491  1.0000
  H   H423      1.0  0.80969  0.21513  0.49570  1.0000
  H   H424      1.0  0.02490  0.15065  0.37162  1.0000
  H   H425      1.0  0.86607  0.25901  0.26160  1.0000
  S   S104      1.0  0.80167  0.29474  0.22337  1.0000
  C   C257      1.0  0.05568  0.21848  0.14614  1.0000
  C   C258      1.0  0.04327  0.28003  0.13732  1.0000
  H   H426      1.0  0.85412  0.27685  0.35273  1.0000
  C   C259      1.0  0.07912  0.12756  0.45065  1.0000
  H   H427      1.0  0.69153  0.11054  0.34130  1.0000
  C   C260      1.0  0.86858  0.32387  0.47684  1.0000
  H   H428      1.0  0.00791  0.10998  0.45037  1.0000
  H   H429      1.0  0.88561  0.28626  0.52166  1.0000
  Fe  Fe51      1.0  0.92550  0.18822  0.38343  1.0000
  H   H430      1.0  0.62592  0.16378  0.30715  1.0000
  S   S105      1.0  0.94570  0.18741  0.31844  1.0000
  S   S106      1.0  0.87097  0.21075  0.39909  1.0000
  Fe  Fe52      1.0  0.90145  0.24519  0.44238  1.0000
  H   H431      1.0  0.92805  0.15986  0.55349  1.0000
  S   S107      1.0  0.89525  0.20864  0.49572  1.0000
  C   C261      1.0  0.75810  0.11107  0.55918  1.0000
  H   H432      1.0  0.74438  0.29292  0.55553  1.0000
  H   H433      1.0  0.74530  0.22240  0.47652  1.0000
  C   C262      1.0  0.66468  0.30177  0.22897  1.0000
  H   H434      1.0  0.88180  0.32207  0.25655  1.0000
  H   H435      1.0  0.91338  0.24822  0.26572  1.0000
  S   S108      1.0  0.99608  0.16726  0.50712  1.0000
  C   C263      1.0  0.02342  0.12499  0.26975  1.0000
  C   C264      1.0  0.00130  0.15387  0.27878  1.0000
  C   C265      1.0  0.97198  0.15055  0.30653  1.0000
  H   H436      1.0  0.07840  0.28690  0.20784  1.0000
  C   C266      1.0  0.66333  0.08385  0.49128  1.0000
  H   H437      1.0  0.04635  0.12788  0.24872  1.0000
  H   H438      1.0  0.00725  0.17894  0.26479  1.0000
  C   C267      1.0  0.98573  0.14917  0.55532  1.0000
  S   S109      1.0  0.95639  0.22511  0.42339  1.0000
  Fe  Fe53      1.0  0.86906  0.17220  0.45046  1.0000
  C   C268      1.0  0.86176  0.29788  0.33063  1.0000
  H   H439      1.0  0.08033  0.22004  0.12577  1.0000
  N   N28       1.0  0.04931  0.25204  0.16767  1.0000
  C   C269      1.0  0.87111  0.31040  0.51649  1.0000
  H   H440      1.0  0.06046  0.19677  0.16814  1.0000
  C   C270      1.0  0.96440  0.11814  0.32484  1.0000
  H   H441      1.0  0.91968  0.26205  0.35702  1.0000
  S   S110      1.0  0.88713  0.30172  0.43446  1.0000
  C   C271      1.0  0.08158  0.26105  0.19240  1.0000
  C   C272      1.0  0.04224  0.15464  0.39896  1.0000
  N   N29       1.0  0.89512  0.28876  0.30696  1.0000
  Fe  Fe54      1.0  0.94738  0.18458  0.47197  1.0000
  S   S111      1.0  0.92087  0.14552  0.43023  1.0000
  C   C273      1.0  0.90435  0.31754  0.27837  1.0000
  H   H442      1.0  0.65222  0.29147  0.14927  1.0000
  C   C274      1.0  0.85549  0.32871  0.54968  1.0000
  H   H443      1.0  0.04165  0.13501  0.56632  1.0000
  H   H444      1.0  0.06487  0.17285  0.39004  1.0000
  C   C275      1.0  0.61153  0.26456  0.23814  1.0000
  H   H445      1.0  0.94154  0.11542  0.34601  1.0000
  C   C276      1.0  0.72034  0.11241  0.32978  1.0000
  H   H446      1.0  0.76443  0.09809  0.41899  1.0000
  C   C277      1.0  0.74575  0.24880  0.49121  1.0000
  S   S112      1.0  0.10203  0.09546  0.18562  1.0000
  C   C278      1.0  0.63768  0.27321  0.17068  1.0000
  C   C279      1.0  0.01391  0.13486  0.57829  1.0000
  H   H447      1.0  0.68316  0.27924  0.23461  1.0000
  H   H448      1.0  0.92929  0.31145  0.25985  1.0000
  H   H449      1.0  0.10279  0.14501  0.44315  1.0000
  H   H450      1.0  0.09005  0.10272  0.46325  1.0000
  C   C280      1.0  0.07869  0.10394  0.38203  1.0000
  C   C281      1.0  0.91703  0.32086  0.17458  1.0000
  C   C282      1.0  0.95459  0.32760  0.17186  1.0000
  H   H451      1.0  0.78089  0.30572  0.52117  1.0000
  H   H452      1.0  0.01853  0.27474  0.11878  1.0000
  H   H453      1.0  0.61207  0.26437  0.15571  1.0000
  C   C283      1.0  0.77195  0.28544  0.54379  1.0000
  H   H454      1.0  0.65994  0.31520  0.25880  1.0000
  C   C284      1.0  0.98593  0.08896  0.31491  1.0000
  H   H455      1.0  0.00732  0.09264  0.39932  1.0000
  H   H456      1.0  0.06237  0.09860  0.35421  1.0000
  H   H457      1.0  0.10237  0.12068  0.37251  1.0000
  H   H458      1.0  0.67974  0.32047  0.20858  1.0000
  H   H459      1.0  0.78041  0.22314  0.58233  1.0000
  H   H460      1.0  0.63852  0.24806  0.08851  1.0000
  H   H461      1.0  0.70558  0.25751  0.08811  1.0000
  H   H462      1.0  0.74317  0.32187  0.08966  1.0000
  C   C285      1.0  0.70360  0.17175  0.06023  1.0000
  H   H463      1.0  0.66035  0.26791  0.00836  1.0000
  C   C286      1.0  0.69267  0.09477  0.82478  1.0000
  H   H464      1.0  0.71146  0.11648  0.82003  1.0000
  S   S113      1.0  0.06180  0.12428  0.71507  1.0000
  C   C287      1.0  0.72376  0.24565  0.97530  1.0000
  H   H465      1.0  0.65611  0.22256  0.99466  1.0000
  C   C288      1.0  0.71804  0.20440  0.07106  1.0000
  C   C289      1.0  0.69089  0.28917  0.93707  1.0000
  H   H466      1.0  0.70875  0.22964  0.89718  1.0000
  H   H467      1.0  0.63184  0.25540  0.96680  1.0000
  S   S114      1.0  0.76437  0.11619  0.64236  1.0000
  Fe  Fe55      1.0  0.06926  0.10054  0.77701  1.0000
  C   C290      1.0  0.68545  0.22780  0.91940  1.0000
  H   H468      1.0  0.62042  0.12146  0.71763  1.0000
  S   S115      1.0  0.67472  0.12571  0.89812  1.0000
  N   N30       1.0  0.68957  0.25308  0.95343  1.0000
  S   S116      1.0  0.96139  0.10267  0.68161  1.0000
  C   C291      1.0  0.64224  0.19369  0.07171  1.0000
  S   S117      1.0  0.76528  0.21137  0.06895  1.0000
  H   H469      1.0  0.72411  0.21823  0.98687  1.0000
  C   C292      1.0  0.97078  0.12070  0.63310  1.0000
  C   C293      1.0  0.94253  0.13496  0.61009  1.0000
  C   C294      1.0  0.76540  0.09523  0.92800  1.0000
  C   C295      1.0  0.65808  0.24954  0.98201  1.0000
  H   H470      1.0  0.02840  0.10944  0.63435  1.0000
  H   H471      1.0  0.65981  0.23233  0.90233  1.0000
  H   H472      1.0  0.66551  0.29552  0.92031  1.0000
  H   H473      1.0  0.69337  0.30889  0.96207  1.0000
  C   C296      1.0  0.69166  0.32908  0.05979  1.0000
  C   C297      1.0  0.69456  0.23178  0.08182  1.0000
  H   H474      1.0  0.85780  0.10610  0.64135  1.0000
  H   H475      1.0  0.75759  0.12186  0.93886  1.0000
  H   H476      1.0  0.77196  0.10245  0.00984  1.0000
  H   H477      1.0  0.71454  0.29304  0.91569  1.0000
  Fe  Fe56      1.0  0.62163  0.12706  0.93339  1.0000
  H   H478      1.0  0.09770  0.09432  0.91116  1.0000
  H   H479      1.0  0.68437  0.20027  0.93078  1.0000
  H   H480      1.0  0.72725  0.26309  0.00235  1.0000
  C   C298      1.0  0.66572  0.16635  0.06084  1.0000
  C   C299      1.0  0.00642  0.12049  0.61699  1.0000
  H   H481      1.0  0.07300  0.10237  0.06025  1.0000
  H   H482      1.0  0.91506  0.13567  0.62261  1.0000
  S   S118      1.0  0.08017  0.13298  0.83294  1.0000
  H   H483      1.0  0.65479  0.14091  0.05334  1.0000
  Fe  Fe57      1.0  0.01415  0.08723  0.71057  1.0000
  C   C300      1.0  0.65664  0.22640  0.08229  1.0000
  H   H484      1.0  0.72175  0.15057  0.05190  1.0000
  H   H485      1.0  0.74830  0.24916  0.95516  1.0000
  H   H486      1.0  0.82564  0.15469  0.60884  1.0000
  S   S119      1.0  0.61441  0.10421  0.99609  1.0000
  H   H487      1.0  0.69961  0.31409  0.03324  1.0000
  C   C301      1.0  0.77823  0.12449  0.59172  1.0000
  C   C302      1.0  0.67181  0.09262  0.86101  1.0000
  H   H488      1.0  0.70941  0.09469  0.98152  1.0000
  H   H489      1.0  0.03727  0.08356  0.88045  1.0000
  H   H490      1.0  0.79494  0.09601  0.91927  1.0000
  H   H491      1.0  0.83550  0.08378  0.68289  1.0000
  H   H492      1.0  0.88446  0.08904  0.68231  1.0000
  H   H493      1.0  0.74959  0.08993  0.89972  1.0000
  C   C303      1.0  0.86037  0.08372  0.66278  1.0000
  C   C304      1.0  0.70673  0.35375  0.12604  1.0000
  C   C305      1.0  0.67218  0.36871  0.12865  1.0000
  S   S120      1.0  0.73765  0.36063  0.16554  1.0000
  H   H494      1.0  0.69042  0.55605  0.49785  1.0000
  C   C306      1.0  0.83738  0.36042  0.54313  1.0000
  H   H495      1.0  0.96897  0.57591  0.17588  1.0000
  H   H496      1.0  0.96167  0.57401  0.43645  1.0000
  C   C307      1.0  0.83489  0.37372  0.50347  1.0000
  H   H497      1.0  0.82066  0.39794  0.49808  1.0000
  H   H498      1.0  0.66420  0.38361  0.15546  1.0000
  H   H499      1.0  0.63666  0.51766  0.51046  1.0000
  H   H500      1.0  0.64123  0.50160  0.39801  1.0000
  C   C308      1.0  0.62262  0.52088  0.21790  1.0000
  Fe  Fe58      1.0  0.08057  0.45457  0.09824  1.0000
  H   H501      1.0  0.61599  0.49462  0.46860  1.0000
  S   S121      1.0  0.79533  0.48494  0.42148  1.0000
  H   H502      1.0  0.67626  0.46885  0.44987  1.0000
  S   S122      1.0  0.84246  0.46973  0.52669  1.0000
  S   S123      1.0  0.68749  0.50659  0.58277  1.0000
  H   H503      1.0  0.02490  0.55650  0.26676  1.0000
  C   C309      1.0  0.74774  0.56053  0.35521  1.0000
  C   C310      1.0  0.76117  0.52808  0.36794  1.0000
  C   C311      1.0  0.78196  0.52592  0.40340  1.0000
  C   C312      1.0  0.79074  0.55640  0.42507  1.0000
  H   H504      1.0  0.76148  0.49421  0.11189  1.0000
  H   H505      1.0  0.73186  0.56212  0.32774  1.0000
  H   H506      1.0  0.80789  0.55503  0.45159  1.0000
  H   H507      1.0  0.86862  0.53684  0.42209  1.0000
  S   S124      1.0  0.77907  0.53105  0.52701  1.0000
  Fe  Fe59      1.0  0.82476  0.51410  0.56701  1.0000
  H   H508      1.0  0.01816  0.52623  0.22544  1.0000
  H   H509      1.0  0.94676  0.55167  0.39146  1.0000
  H   H510      1.0  0.69614  0.49182  0.49213  1.0000
  H   H511      1.0  0.10645  0.54709  0.50359  1.0000
  H   H512      1.0  0.95981  0.49476  0.42346  1.0000
  S   S125      1.0  0.06078  0.41748  0.20696  1.0000
  N   N31       1.0  0.70812  0.47142  0.12169  1.0000
  H   H513      1.0  0.63397  0.52950  0.24647  1.0000
  Fe  Fe60      1.0  0.79375  0.48370  0.48993  1.0000
  C   C313      1.0  0.61026  0.53071  0.14635  1.0000
  H   H514      1.0  0.68037  0.47821  0.17964  1.0000
  H   H515      1.0  0.71518  0.49699  0.44147  1.0000
  C   C314      1.0  0.68909  0.49410  0.45922  1.0000
  H   H516      1.0  0.70867  0.56118  0.44674  1.0000
  H   H517      1.0  0.75488  0.50458  0.35073  1.0000
  H   H518      1.0  0.87775  0.49577  0.44623  1.0000
  H   H519      1.0  0.08942  0.40991  0.56294  1.0000
  H   H520      1.0  0.98055  0.55182  0.24455  1.0000
  C   C315      1.0  0.68889  0.50100  0.10262  1.0000
  H   H521      1.0  0.89784  0.50566  0.39720  1.0000
  N   N32       1.0  0.66449  0.52399  0.45239  1.0000
  H   H522      1.0  0.69977  0.43556  0.17175  1.0000
  C   C316      1.0  0.01036  0.55257  0.23738  1.0000
  C   C317      1.0  0.68303  0.55678  0.46488  1.0000
  C   C318      1.0  0.62513  0.54231  0.18328  1.0000
  H   H523      1.0  0.61890  0.34026  0.18362  1.0000
  H   H524      1.0  0.90036  0.52641  0.50870  1.0000
  H   H525      1.0  0.63681  0.54811  0.40215  1.0000
  S   S126      1.0  0.86787  0.55245  0.58581  1.0000
  S   S127      1.0  0.65885  0.57616  0.30759  1.0000
  H   H526      1.0  0.68031  0.52951  0.38901  1.0000
  N   N33       1.0  0.01982  0.58053  0.20772  1.0000
  S   S128      1.0  0.75552  0.44745  0.52364  1.0000
  H   H527      1.0  0.93457  0.56013  0.50382  1.0000
  C   C319      1.0  0.10048  0.54362  0.30147  1.0000
  C   C320      1.0  0.85059  0.35556  0.47044  1.0000
  H   H528      1.0  0.00500  0.54916  0.15572  1.0000
  H   H529      1.0  0.61163  0.54736  0.11959  1.0000
  C   C321      1.0  0.65535  0.52587  0.40851  1.0000
  C   C322      1.0  0.74384  0.48362  0.13707  1.0000
  C   C323      1.0  0.94350  0.39012  0.17115  1.0000
  C   C324      1.0  0.89250  0.34883  0.17510  1.0000
  C   C325      1.0  0.90577  0.38348  0.17358  1.0000
  H   H530      1.0  0.99699  0.36703  0.16828  1.0000
  Fe  Fe61      1.0  0.09144  0.39301  0.15404  1.0000
  H   H531      1.0  0.88685  0.40513  0.17427  1.0000
  C   C326      1.0  0.96787  0.36209  0.17012  1.0000
  H   H532      1.0  0.65880  0.44770  0.14574  1.0000
  C   C327      1.0  0.95049  0.50593  0.45336  1.0000
  H   H533      1.0  0.84860  0.36606  0.43981  1.0000
  S   S129      1.0  0.96017  0.43336  0.16993  1.0000
  S   S130      1.0  0.02800  0.53367  0.39605  1.0000
  Fe  Fe62      1.0  0.09060  0.46709  0.18914  1.0000
  N   N34       1.0  0.92233  0.53299  0.44771  1.0000
  Fe  Fe63      1.0  0.74511  0.49374  0.56434  1.0000
  C   C328      1.0  0.64757  0.36416  0.09680  1.0000
  C   C329      1.0  0.05286  0.52684  0.35035  1.0000
  C   C330      1.0  0.04388  0.49821  0.32549  1.0000
  C   C331      1.0  0.06306  0.49232  0.28864  1.0000
  H   H534      1.0  0.90949  0.34261  0.29483  1.0000
  H   H535      1.0  0.97521  0.51702  0.46827  1.0000
  C   C332      1.0  0.08110  0.54967  0.33824  1.0000
  H   H536      1.0  0.02206  0.48047  0.33472  1.0000
  H   H537      1.0  0.05581  0.47026  0.26965  1.0000
  C   C333      1.0  0.71638  0.33353  0.09185  1.0000
  Fe  Fe64      1.0  0.02094  0.43398  0.15919  1.0000
  S   S131      1.0  0.04868  0.48517  0.14479  1.0000
  C   C334      1.0  0.91119  0.54732  0.48804  1.0000
  C   C335      1.0  0.05940  0.57940  0.19808  1.0000
  C   C336      1.0  0.99898  0.57512  0.16978  1.0000
  H   H538      1.0  0.86339  0.34384  0.17724  1.0000
  S   S132      1.0  0.04863  0.40498  0.10794  1.0000
  C   C337      1.0  0.68583  0.45761  0.15622  1.0000
  H   H539      1.0  0.66530  0.57994  0.46019  1.0000
  H   H540      1.0  0.88955  0.56742  0.48518  1.0000
  H   H541      1.0  0.62125  0.37613  0.09948  1.0000
  C   C338      1.0  0.63065  0.51916  0.47714  1.0000
  H   H542      1.0  0.08818  0.57183  0.35726  1.0000
  C   C339      1.0  0.89027  0.51717  0.42747  1.0000
  Fe  Fe65      1.0  0.80302  0.43759  0.56436  1.0000
  H   H543      1.0  0.72926  0.42112  0.10414  1.0000
  S   S133      1.0  0.81728  0.38310  0.58429  1.0000
  H   H544      1.0  0.94000  0.48390  0.47261  1.0000
  C   C340      1.0  0.93749  0.56157  0.42196  1.0000
  H   H545      1.0  0.72796  0.57198  0.58309  1.0000
  H   H546      1.0  0.61136  0.54120  0.47281  1.0000
  C   C341      1.0  0.09147  0.51494  0.27659  1.0000
  H   H547      1.0  0.74035  0.50469  0.16043  1.0000
  H   H548      1.0  0.68461  0.52285  0.12482  1.0000
  H   H549      1.0  0.75893  0.46179  0.15172  1.0000
  H   H550      1.0  0.06732  0.55390  0.18417  1.0000
  H   H551      1.0  0.66147  0.49274  0.09151  1.0000
  C   C342      1.0  0.71392  0.44343  0.09099  1.0000
  C   C343      1.0  0.71056  0.55068  0.77028  1.0000
  H   H552      1.0  0.05528  0.52707  0.06909  1.0000
  S   S134      1.0  0.78947  0.48101  0.60857  1.0000
  H   H553      1.0  0.73834  0.55562  0.69380  1.0000
  N   N35       1.0  0.74955  0.55370  0.75816  1.0000
  C   C344      1.0  0.68519  0.54339  0.61477  1.0000
  C   C345      1.0  0.65963  0.54402  0.64704  1.0000
  C   C346      1.0  0.65790  0.57297  0.67342  1.0000
  H   H554      1.0  0.70455  0.51177  0.07599  1.0000
  H   H555      1.0  0.64160  0.52175  0.65207  1.0000
  C   C347      1.0  0.70838  0.57221  0.60819  1.0000
  H   H556      1.0  0.10497  0.45121  0.93819  1.0000
  S   S135      1.0  0.65483  0.54263  0.86811  1.0000
  C   C348      1.0  0.06797  0.57159  0.03044  1.0000
  C   C349      1.0  0.07104  0.53653  0.04312  1.0000
  H   H557      1.0  0.63865  0.57271  0.69867  1.0000
  H   H558      1.0  0.07333  0.39220  0.63403  1.0000
  H   H559      1.0  0.04433  0.46716  0.64111  1.0000
  C   C350      1.0  0.65716  0.34457  0.06206  1.0000
  H   H560      1.0  0.70594  0.55946  0.80244  1.0000
  C   C351      1.0  0.09382  0.51360  0.02122  1.0000
  S   S136      1.0  0.62619  0.34024  0.02163  1.0000
  N   N36       1.0  0.09277  0.44341  0.61592  1.0000
  H   H561      1.0  0.76373  0.50464  0.78572  1.0000
  H   H562      1.0  0.03640  0.43739  0.59940  1.0000
  H   H563      1.0  0.08145  0.42203  0.67578  1.0000
  H   H564      1.0  0.63661  0.47416  0.90025  1.0000
  C   C352      1.0  0.77179  0.53283  0.78643  1.0000
  H   H565      1.0  0.76837  0.54210  0.81862  1.0000
  H   H566      1.0  0.79594  0.56475  0.62079  1.0000
  H   H567      1.0  0.70046  0.52315  0.76826  1.0000
  C   C353      1.0  0.61976  0.49329  0.91590  1.0000
  H   H568      1.0  0.69312  0.56703  0.75047  1.0000
  S   S137      1.0  0.09850  0.46964  0.03489  1.0000
  C   C354      1.0  0.75469  0.54042  0.71592  1.0000
  H   H569      1.0  0.60703  0.58120  0.92255  1.0000
  C   C355      1.0  0.09148  0.41370  0.64492  1.0000
  H   H570      1.0  0.74602  0.51249  0.71317  1.0000
  C   C356      1.0  0.62421  0.52903  0.90701  1.0000
  H   H571      1.0  0.78384  0.54227  0.70577  1.0000
  H   H572      1.0  0.80142  0.53465  0.77827  1.0000
  H   H573      1.0  0.72989  0.45310  0.06401  1.0000
  C   C357      1.0  0.05560  0.45765  0.61128  1.0000
  H   H574      1.0  0.05562  0.48011  0.58953  1.0000
  H   H575      1.0  0.68743  0.43286  0.07967  1.0000
  H   H576      1.0  0.10336  0.40403  0.93881  1.0000
  S   S138      1.0  0.67920  0.65274  0.26576  1.0000
  Fe  Fe66      1.0  0.68588  0.62651  0.32664  1.0000
  S   S139      1.0  0.73641  0.63116  0.36466  1.0000
  H   H577      1.0  0.07605  0.58279  0.22608  1.0000
  C   C358      1.0  0.67846  0.68040  0.15172  1.0000
  H   H578      1.0  0.98084  0.61722  0.23238  1.0000
  H   H579      1.0  0.61250  0.60625  0.42029  1.0000
  H   H580      1.0  0.76342  0.64177  0.52941  1.0000
  H   H581      1.0  0.80552  0.69802  0.57961  1.0000
  H   H582      1.0  0.86279  0.62527  0.53891  1.0000
  H   H583      1.0  0.78441  0.61238  0.42877  1.0000
  C   C359      1.0  0.67381  0.74706  0.26529  1.0000
  C   C360      1.0  0.92245  0.67765  0.57835  1.0000
  H   H584      1.0  0.68288  0.72460  0.28225  1.0000
  C   C361      1.0  0.08870  0.65721  0.33400  1.0000
  H   H585      1.0  0.01872  0.63688  0.20468  1.0000
  H   H586      1.0  0.90516  0.65507  0.58355  1.0000
  H   H587      1.0  0.66386  0.74319  0.11864  1.0000
  C   C362      1.0  0.64469  0.73386  0.14313  1.0000
  H   H588      1.0  0.08423  0.62223  0.28263  1.0000
  H   H589      1.0  0.81807  0.60616  0.54369  1.0000
  Fe  Fe67      1.0  0.10203  0.76742  0.11278  1.0000
  H   H590      1.0  0.06771  0.60052  0.17643  1.0000
  Fe  Fe68      1.0  0.62628  0.67196  0.29271  1.0000
  N   N37       1.0  0.81860  0.66156  0.53120  1.0000
  C   C363      1.0  0.10627  0.71697  0.31803  1.0000
  H   H591      1.0  0.02521  0.61960  0.25479  1.0000
  C   C364      1.0  0.96897  0.73514  0.56598  1.0000
  C   C365      1.0  0.63657  0.75493  0.26386  1.0000
  S   S140      1.0  0.63519  0.64958  0.35482  1.0000
  H   H592      1.0  0.84394  0.68084  0.47566  1.0000
  C   C366      1.0  0.03096  0.83086  0.12145  1.0000
  C   C367      1.0  0.78141  0.66161  0.51407  1.0000
  C   C368      1.0  0.77772  0.58885  0.41202  1.0000
  C   C369      1.0  0.83451  0.62622  0.52672  1.0000
  H   H593      1.0  0.08176  0.63724  0.35623  1.0000
  H   H594      1.0  0.00578  0.59559  0.14660  1.0000
  H   H595      1.0  0.72828  0.76176  0.24529  1.0000
  H   H596      1.0  0.83095  0.71433  0.51181  1.0000
  S   S141      1.0  0.09177  0.76592  0.18076  1.0000
  H   H597      1.0  0.04530  0.81670  0.14470  1.0000
  H   H598      1.0  0.62528  0.69312  0.20697  1.0000
  C   C370      1.0  0.69959  0.76846  0.24496  1.0000
  N   N38       1.0  0.64204  0.69519  0.14372  1.0000
  C   C371      1.0  0.08980  0.64879  0.29221  1.0000
  Fe  Fe69      1.0  0.64709  0.60460  0.24916  1.0000
  S   S142      1.0  0.09443  0.70226  0.39902  1.0000
  C   C372      1.0  0.84184  0.68726  0.50887  1.0000
  H   H599      1.0  0.67732  0.65122  0.15315  1.0000
  C   C373      1.0  0.62532  0.78535  0.24394  1.0000
  C   C374      1.0  0.68816  0.79784  0.22319  1.0000
  H   H600      1.0  0.61769  0.74600  0.13726  1.0000
  C   C375      1.0  0.65113  0.80684  0.22377  1.0000
  C   C376      1.0  0.09823  0.67466  0.26317  1.0000
  H   H601      1.0  0.87019  0.68771  0.52068  1.0000
  S   S143      1.0  0.71979  0.82156  0.19301  1.0000
  H   H602      1.0  0.10220  0.59501  0.10233  1.0000
  Fe  Fe70      1.0  0.00142  0.63498  0.48314  1.0000
  S   S144      1.0  0.94511  0.64354  0.50930  1.0000
  S   S145      1.0  0.01465  0.63288  0.41607  1.0000
  H   H603      1.0  0.69859  0.68791  0.12735  1.0000
  Fe  Fe71      1.0  0.07720  0.61213  0.50749  1.0000
  C   C377      1.0  0.94558  0.67863  0.54395  1.0000
  C   C378      1.0  0.96871  0.70749  0.53758  1.0000
  C   C379      1.0  0.09671  0.69137  0.34691  1.0000
  H   H604      1.0  0.98615  0.70874  0.51059  1.0000
  H   H605      1.0  0.76827  0.68767  0.51786  1.0000
  H   H606      1.0  0.83612  0.61798  0.49407  1.0000
  H   H607      1.0  0.78195  0.65557  0.48073  1.0000
  S   S146      1.0  0.05212  0.66484  0.49953  1.0000
  H   H608      1.0  0.98716  0.75732  0.56125  1.0000
  S   S147      1.0  0.09708  0.66485  0.21063  1.0000
  H   H609      1.0  0.65470  0.74431  0.17272  1.0000
  Fe  Fe72      1.0  0.06813  0.65773  0.43355  1.0000
  C   C380      1.0  0.81649  0.67115  0.57505  1.0000
  C   C381      1.0  0.01062  0.61504  0.22561  1.0000
  H   H610      1.0  0.68929  0.68996  0.18145  1.0000
  Fe  Fe73      1.0  0.04250  0.58248  0.43093  1.0000
  C   C382      1.0  0.61612  0.68403  0.17640  1.0000
  C   C383      1.0  0.75542  0.59083  0.37771  1.0000
  H   H611      1.0  0.62660  0.65337  0.10306  1.0000
  C   C384      1.0  0.62895  0.68248  0.10371  1.0000
  S   S148      1.0  0.09749  0.60692  0.44264  1.0000
  H   H612      1.0  0.61348  0.65492  0.17770  1.0000
  Fe  Fe74      1.0  0.60761  0.60139  0.33069  1.0000
  H   H613      1.0  0.64245  0.83039  0.20869  1.0000
  H   H614      1.0  0.91706  0.58254  0.41703  1.0000
  S   S149      1.0  0.02522  0.58266  0.49702  1.0000
  S   S150      1.0  0.64870  0.58261  0.18527  1.0000
  S   S151      1.0  0.67753  0.63333  0.81707  1.0000
  Fe  Fe75      1.0  0.64734  0.63198  0.75822  1.0000
  S   S152      1.0  0.67947  0.63845  0.69948  1.0000
  C   C385      1.0  0.69157  0.73830  0.75072  1.0000
  C   C386      1.0  0.73480  0.76741  0.79477  1.0000
  H   H615      1.0  0.05001  0.58929  0.04684  1.0000
  H   H616      1.0  0.84381  0.67057  0.58944  1.0000
  H   H617      1.0  0.79047  0.59428  0.75132  1.0000
  H   H618      1.0  0.72316  0.62428  0.62808  1.0000
  S   S153      1.0  0.84898  0.73605  0.78418  1.0000
  S   S154      1.0  0.70841  0.80727  0.07676  1.0000
  H   H619      1.0  0.03973  0.61120  0.60791  1.0000
  H   H620      1.0  0.98025  0.68123  0.64733  1.0000
  H   H621      1.0  0.76912  0.70492  0.79065  1.0000
  H   H622      1.0  0.68325  0.76368  0.73712  1.0000
  H   H623      1.0  0.78309  0.74837  0.73700  1.0000
  S   S155      1.0  0.65775  0.72273  0.86163  1.0000
  H   H624      1.0  0.71658  0.76310  0.82196  1.0000
  C   C387      1.0  0.82722  0.63301  0.67834  1.0000
  S   S156      1.0  0.81113  0.66475  0.71285  1.0000
  Fe  Fe76      1.0  0.85243  0.70750  0.72443  1.0000
  H   H625      1.0  0.74741  0.77244  0.71362  1.0000
  H   H626      1.0  0.76344  0.76853  0.80581  1.0000
  H   H627      1.0  0.73582  0.68354  0.75938  1.0000
  H   H628      1.0  0.02648  0.68837  0.58891  1.0000
  H   H629      1.0  0.08573  0.63475  0.65526  1.0000
  N   N39       1.0  0.73006  0.73949  0.76379  1.0000
  H   H630      1.0  0.02785  0.77917  0.98406  1.0000
  C   C388      1.0  0.80274  0.60856  0.66195  1.0000
  H   H631      1.0  0.72858  0.79372  0.78206  1.0000
  H   H632      1.0  0.68290  0.77719  0.91453  1.0000
  C   C389      1.0  0.75401  0.74685  0.72798  1.0000
  H   H633      1.0  0.01375  0.70305  0.67726  1.0000
  H   H634      1.0  0.04013  0.67561  0.93670  1.0000
  S   S157      1.0  0.84973  0.75591  0.68596  1.0000
  H   H635      1.0  0.75181  0.72588  0.70436  1.0000
  H   H636      1.0  0.68708  0.71725  0.72762  1.0000
  C   C390      1.0  0.73989  0.70534  0.78165  1.0000
  H   H637      1.0  0.05971  0.70598  0.62325  1.0000
  H   H638      1.0  0.64775  0.69068  0.07827  1.0000
  C   C391      1.0  0.87653  0.60659  0.63905  1.0000
  H   H639      1.0  0.01803  0.74470  0.90057  1.0000
  H   H640      1.0  0.61007  0.68716  0.68089  1.0000
  H   H641      1.0  0.74500  0.60749  0.73913  1.0000
  Fe  Fe77      1.0  0.85064  0.78453  0.74583  1.0000
  Fe  Fe78      1.0  0.64855  0.80905  0.06431  1.0000
  H   H642      1.0  0.00670  0.60818  0.64921  1.0000
  H   H643      1.0  0.90520  0.60570  0.63043  1.0000
  C   C392      1.0  0.92216  0.70550  0.60636  1.0000
  H   H644      1.0  0.07591  0.67295  0.68559  1.0000
  C   C393      1.0  0.06347  0.64913  0.67159  1.0000
  H   H645      1.0  0.86936  0.82674  0.88278  1.0000
  H   H646      1.0  0.67275  0.73293  0.77708  1.0000
  C   C394      1.0  0.07616  0.72703  0.97822  1.0000
  H   H647      1.0  0.72303  0.69957  0.80954  1.0000
  S   S158      1.0  0.91173  0.79004  0.74728  1.0000
  H   H648      1.0  0.98620  0.73535  0.76082  1.0000
  C   C395      1.0  0.66337  0.76130  0.93158  1.0000
  H   H649      1.0  0.77420  0.60955  0.67063  1.0000
  N   N40       1.0  0.03361  0.65826  0.64362  1.0000
  H   H650      1.0  0.02204  0.68119  0.98750  1.0000
  H   H651      1.0  0.99141  0.67862  0.87387  1.0000
  C   C396      1.0  0.01836  0.62593  0.62530  1.0000
  C   C397      1.0  0.70566  0.60175  0.63367  1.0000
  S   S159      1.0  0.08601  0.62739  0.98069  1.0000
  H   H652      1.0  0.86642  0.81625  0.82932  1.0000
  N   N41       1.0  0.04017  0.72886  0.95829  1.0000
  Fe  Fe79      1.0  0.91083  0.75637  0.69080  1.0000
  C   C398      1.0  0.04478  0.74274  0.91628  1.0000
  H   H653      1.0  0.66805  0.79206  0.98655  1.0000
  S   S160      1.0  0.94374  0.72752  0.83542  1.0000
  C   C399      1.0  0.64679  0.73231  0.91293  1.0000
  C   C400      1.0  0.04821  0.68117  0.61071  1.0000
  C   C401      1.0  0.05139  0.67890  0.79321  1.0000
  C   C402      1.0  0.03321  0.70222  0.76773  1.0000
  C   C403      1.0  0.99996  0.71704  0.78047  1.0000
  C   C404      1.0  0.98510  0.70886  0.81903  1.0000
  C   C405      1.0  0.00341  0.68571  0.84463  1.0000
  C   C406      1.0  0.03661  0.67081  0.83183  1.0000
  H   H654      1.0  0.04536  0.70953  0.73866  1.0000
  C   C407      1.0  0.01596  0.75231  0.98216  1.0000
  H   H655      1.0  0.60872  0.68947  0.92103  1.0000
  H   H656      1.0  0.05037  0.65254  0.85149  1.0000
  C   C408      1.0  0.02364  0.69343  0.95660  1.0000
  H   H657      1.0  0.05351  0.63233  0.69735  1.0000
  H   H658      1.0  0.99504  0.66171  0.69402  1.0000
  H   H659      1.0  0.90422  0.70450  0.63292  1.0000
  Fe  Fe80      1.0  0.63530  0.67228  0.83682  1.0000
  H   H660      1.0  0.75746  0.60182  0.79155  1.0000
  Fe  Fe81      1.0  0.91000  0.73868  0.78037  1.0000
  H   H661      1.0  0.06250  0.72551  0.89711  1.0000
  H   H662      1.0  0.88320  0.65058  0.67934  1.0000
  S   S161      1.0  0.91378  0.70519  0.72413  1.0000
  H   H663      1.0  0.98854  0.75444  0.96814  1.0000
  H   H664      1.0  0.01209  0.74285  0.01418  1.0000
  C   C409      1.0  0.00446  0.67679  0.66662  1.0000
  C   C410      1.0  0.94588  0.73404  0.60053  1.0000
  H   H665      1.0  0.05754  0.76932  0.91638  1.0000
  S   S162      1.0  0.06297  0.78613  0.06514  1.0000
  H   H666      1.0  0.99551  0.69410  0.94421  1.0000
  C   C411      1.0  0.65487  0.76982  0.97236  1.0000
  Fe  Fe82      1.0  0.63704  0.59296  0.83895  1.0000
  C   C412      1.0  0.86411  0.63201  0.66678  1.0000
  S   S163      1.0  0.94847  0.76725  0.63746  1.0000
  C   C413      1.0  0.68093  0.60189  0.66681  1.0000
  H   H667      1.0  0.08967  0.75326  0.97967  1.0000
  S   S164      1.0  0.80894  0.82472  0.76414  1.0000
  C   C414      1.0  0.62171  0.71176  0.93523  1.0000
  H   H668      1.0  0.07345  0.71740  0.01030  1.0000
  S   S165      1.0  0.09254  0.65996  0.77663  1.0000
  H   H669      1.0  0.99613  0.63198  0.60347  1.0000
  C   C415      1.0  0.08805  0.58357  0.99631  1.0000
  H   H670      1.0  0.79854  0.65270  0.59258  1.0000
  C   C416      1.0  0.03505  0.82134  0.08023  1.0000
  C   C417      1.0  0.62946  0.74957  0.99451  1.0000
  S   S166      1.0  0.61803  0.76070  0.04521  1.0000
  H   H671      1.0  0.62484  0.64220  0.62933  1.0000
  S   S167      1.0  0.61054  0.58786  0.77797  1.0000
  H   H672      1.0  0.09490  0.70884  0.96177  1.0000
  C   C418      1.0  0.76112  0.59089  0.76016  1.0000
  H   H673      1.0  0.07037  0.66797  0.59285  1.0000
  S   S168      1.0  0.60782  0.67397  0.77599  1.0000
  C   C419      1.0  0.61299  0.72044  0.97601  1.0000
  C   C420      1.0  0.81504  0.58331  0.63379  1.0000
  C   C421      1.0  0.85202  0.58243  0.62233  1.0000
  H   H674      1.0  0.97725  0.98467  0.16766  1.0000
  C   C422      1.0  0.80633  0.86942  0.10826  1.0000
  C   C423      1.0  0.64416  0.02812  0.52055  1.0000
  H   H675      1.0  0.06678  0.96893  0.11519  1.0000
  S   S169      1.0  0.96234  0.91345  0.11609  1.0000
  C   C424      1.0  0.98952  0.87742  0.10264  1.0000
  H   H676      1.0  0.06431  0.00132  0.22168  1.0000
  Fe  Fe83      1.0  0.09683  0.07577  0.24978  1.0000
  C   C425      1.0  0.86634  0.86228  0.13697  1.0000
  H   H677      1.0  0.89625  0.86771  0.13356  1.0000
  H   H678      1.0  0.08970  0.07840  0.39250  1.0000
  S   S170      1.0  0.63399  0.83418  0.12417  1.0000
  C   C426      1.0  0.62544  0.04420  0.45211  1.0000
  H   H679      1.0  0.79532  0.88046  0.13748  1.0000
  C   C427      1.0  0.66331  0.05984  0.52380  1.0000
  H   H680      1.0  0.99713  0.99870  0.21520  1.0000
  H   H681      1.0  0.97987  0.06379  0.32875  1.0000
  H   H682      1.0  0.03801  0.93727  0.14029  1.0000
  S   S171      1.0  0.64034  0.99968  0.56248  1.0000
  H   H683      1.0  0.09340  0.99045  0.17881  1.0000
  H   H684      1.0  0.61510  0.92463  0.22852  1.0000
  H   H685      1.0  0.01829  0.96974  0.10793  1.0000
  H   H686      1.0  0.00012  0.95361  0.19908  1.0000
  C   C428      1.0  0.62568  0.02012  0.48445  1.0000
  H   H687      1.0  0.03184  0.04446  0.17814  1.0000
  C   C429      1.0  0.00105  0.98122  0.18812  1.0000
  H   H688      1.0  0.06806  0.95653  0.20521  1.0000
  C   C430      1.0  0.00795  0.85871  0.13270  1.0000
  C   C431      1.0  0.06677  0.98409  0.19427  1.0000
  N   N42       1.0  0.84576  0.87732  0.10268  1.0000
  Fe  Fe84      1.0  0.69431  0.83700  0.13385  1.0000
  C   C432      1.0  0.64383  0.07628  0.45571  1.0000
  N   N43       1.0  0.03584  0.98911  0.16633  1.0000
  H   H689      1.0  0.06176  0.03296  0.13635  1.0000
  S   S172      1.0  0.04402  0.05670  0.27759  1.0000
  H   H690      1.0  0.85724  0.87351  0.16686  1.0000
  H   H691      1.0  0.01328  0.03050  0.12997  1.0000
  C   C433      1.0  0.03562  0.02586  0.15208  1.0000
  H   H692      1.0  0.00490  0.86598  0.16458  1.0000
  C   C434      1.0  0.03993  0.96528  0.13088  1.0000
  H   H693      1.0  0.61130  0.03777  0.42427  1.0000
  H   H694      1.0  0.84099  0.92843  0.13013  1.0000
  H   H695      1.0  0.80086  0.84067  0.10879  1.0000
  C   C435      1.0  0.85154  0.91571  0.10171  1.0000
  H   H696      1.0  0.88113  0.92255  0.09866  1.0000
  S   S173      1.0  0.70192  0.88986  0.10518  1.0000
  Fe  Fe85      1.0  0.64233  0.88472  0.09054  1.0000
  H   H697      1.0  0.75329  0.06715  0.37965  1.0000
  H   H698      1.0  0.61137  0.99534  0.48154  1.0000
  H   H699      1.0  0.67727  0.06621  0.55178  1.0000
  H   H700      1.0  0.03477  0.07221  0.43758  1.0000
  H   H701      1.0  0.86259  0.83334  0.13871  1.0000
  H   H702      1.0  0.77483  0.05632  0.02081  1.0000
  C   C436      1.0  0.77713  0.91436  0.70969  1.0000
  H   H703      1.0  0.83227  0.01862  0.59922  1.0000
  C   C437      1.0  0.77777  0.91000  0.00128  1.0000
  S   S174      1.0  0.74883  0.02994  0.69932  1.0000
  H   H704      1.0  0.75584  0.93360  0.71407  1.0000
  Fe  Fe86      1.0  0.68885  0.01760  0.70313  1.0000
  C   C438      1.0  0.66346  0.04173  0.79970  1.0000
  C   C439      1.0  0.80902  0.91497  0.97670  1.0000
  S   S175      1.0  0.67314  0.05692  0.65564  1.0000
  C   C440      1.0  0.76811  0.03353  0.94373  1.0000
  H   H705      1.0  0.09393  0.06219  0.84602  1.0000
  C   C441      1.0  0.03580  0.05841  0.89767  1.0000
  H   H706      1.0  0.62450  0.07853  0.73907  1.0000
  S   S176      1.0  0.80119  0.95448  0.64467  1.0000
  H   H707      1.0  0.08150  0.87465  0.65812  1.0000
  H   H708      1.0  0.82890  0.06524  0.59138  1.0000
  Fe  Fe87      1.0  0.68070  0.01214  0.61175  1.0000
  H   H709      1.0  0.85330  0.90488  0.87473  1.0000
  H   H710      1.0  0.04833  0.96586  0.67172  1.0000
  C   C442      1.0  0.83213  0.86431  0.69853  1.0000
  H   H711      1.0  0.74148  0.93340  0.04591  1.0000
  S   S177      1.0  0.84624  0.00937  0.01351  1.0000
  C   C443      1.0  0.82931  0.94611  0.97941  1.0000
  H   H712      1.0  0.07150  0.88874  0.60700  1.0000
  H   H713      1.0  0.88937  0.88624  0.90435  1.0000
  H   H714      1.0  0.75937  0.88256  0.76085  1.0000
  N   N44       1.0  0.75778  0.06843  0.95968  1.0000
  C   C444      1.0  0.83034  0.89338  0.67240  1.0000
  C   C445      1.0  0.80274  0.91834  0.67778  1.0000
  H   H715      1.0  0.84217  0.01901  0.68987  1.0000
  N   N45       1.0  0.08819  0.92994  0.64780  1.0000
  C   C446      1.0  0.88210  0.89570  0.87330  1.0000
  C   C447      1.0  0.80652  0.86035  0.73040  1.0000
  H   H716      1.0  0.89606  0.07348  0.59169  1.0000
  Fe  Fe88      1.0  0.75108  0.98800  0.65134  1.0000
  C   C448      1.0  0.09040  0.03735  0.86334  1.0000
  C   C449      1.0  0.77916  0.88547  0.73612  1.0000
  C   C450      1.0  0.64338  0.03917  0.83638  1.0000
  H   H717      1.0  0.77764  0.98857  0.05101  1.0000
  Fe  Fe89      1.0  0.73369  0.06505  0.64739  1.0000
  H   H718      1.0  0.83374  0.84523  0.85225  1.0000
  C   C451      1.0  0.76589  0.93690  0.02732  1.0000
  C   C452      1.0  0.81838  0.97241  0.00666  1.0000
  S   S178      1.0  0.69233  0.97197  0.65976  1.0000
  Fe  Fe90      1.0  0.09462  0.07862  0.69270  1.0000
  C   C453      1.0  0.01618  0.83990  0.05036  1.0000
  S   S179      1.0  0.65514  0.01114  0.76083  1.0000
  C   C454      1.0  0.77926  0.07648  0.99658  1.0000
  C   C455      1.0  0.78616  0.96821  0.02991  1.0000
  H   H719      1.0  0.81803  0.89433  0.95625  1.0000
  H   H720      1.0  0.02192  0.06396  0.92756  1.0000
  H   H721      1.0  0.93429  0.84735  0.87213  1.0000
  H   H722      1.0  0.90009  0.02669  0.59581  1.0000
  H   H723      1.0  0.94435  0.87846  0.83249  1.0000
  S   S180      1.0  0.73974  0.02388  0.59886  1.0000
  H   H724      1.0  0.79806  0.03206  0.93716  1.0000
  C   C456      1.0  0.89708  0.05132  0.61376  1.0000
  H   H725      1.0  0.62421  0.01772  0.84090  1.0000
  H   H726      1.0  0.01793  0.04019  0.88036  1.0000
  H   H727      1.0  0.90003  0.91881  0.86668  1.0000
  C   C457      1.0  0.09943  0.95370  0.61411  1.0000
  H   H728      1.0  0.79004  0.88051  0.08293  1.0000
  H   H729      1.0  0.85016  0.89639  0.64771  1.0000
  C   C458      1.0  0.86312  0.83773  0.85217  1.0000
  C   C459      1.0  0.87765  0.88186  0.80142  1.0000
  H   H730      1.0  0.85364  0.94967  0.96060  1.0000
  C   C460      1.0  0.64761  0.06452  0.86702  1.0000
  S   S181      1.0  0.05631  0.96892  0.76134  1.0000
  S   S182      1.0  0.91577  0.93385  0.01242  1.0000
  H   H731      1.0  0.76145  0.01253  0.96626  1.0000
  Fe  Fe91      1.0  0.96034  0.94706  0.96727  1.0000
  S   S183      1.0  0.96926  0.90989  0.91498  1.0000
  C   C461      1.0  0.08121  0.01448  0.04601  1.0000
  C   C462      1.0  0.83153  0.04450  0.61504  1.0000
  H   H732      1.0  0.75349  0.02712  0.91498  1.0000
  Fe  Fe92      1.0  0.71046  0.86002  0.04664  1.0000
  H   H733      1.0  0.89504  0.90485  0.79291  1.0000
  H   H734      1.0  0.71166  0.04899  0.99468  1.0000
  C   C463      1.0  0.08985  0.89324  0.63340  1.0000
  S   S184      1.0  0.01823  0.06741  0.77499  1.0000
  C   C464      1.0  0.06621  0.04805  0.04372  1.0000
  S   S185      1.0  0.94257  0.00324  0.06408  1.0000
  C   C465      1.0  0.99391  0.92756  0.87336  1.0000
  C   C466      1.0  0.99172  0.96315  0.86339  1.0000
  C   C467      1.0  0.01046  0.97617  0.82867  1.0000
  C   C468      1.0  0.03181  0.95372  0.80442  1.0000
  H   H735      1.0  0.80626  0.04503  0.63423  1.0000
  C   C469      1.0  0.01481  0.90513  0.84872  1.0000
  H   H736      1.0  0.97492  0.98043  0.88178  1.0000
  H   H737      1.0  0.00806  0.00338  0.82039  1.0000
  H   H738      1.0  0.97930  0.88206  0.03810  1.0000
  C   C470      1.0  0.06929  0.01003  0.92589  1.0000
  S   S186      1.0  0.00315  0.95434  0.01492  1.0000
  H   H739      1.0  0.05027  0.90073  0.79583  1.0000
  N   N46       1.0  0.07258  0.04360  0.90357  1.0000
  H   H740      1.0  0.07403  0.01916  0.84410  1.0000
  C   C471      1.0  0.92566  0.85657  0.84145  1.0000
  H   H741      1.0  0.92229  0.05484  0.63200  1.0000
  C   C472      1.0  0.86716  0.02120  0.67008  1.0000
  Fe  Fe93      1.0  0.95697  0.94649  0.05988  1.0000
  C   C473      1.0  0.08403  0.07621  0.06260  1.0000
  S   S187      1.0  0.94623  0.00400  0.96292  1.0000
  Fe  Fe94      1.0  0.05503  0.02657  0.74781  1.0000
  C   C474      1.0  0.03386  0.91821  0.81450  1.0000
  H   H742      1.0  0.84411  0.87281  0.03714  1.0000
  H   H743      1.0  0.87034  0.99550  0.65424  1.0000
  H   H744      1.0  0.83742  0.92781  0.07540  1.0000
  H   H745      1.0  0.06839  0.99276  0.03054  1.0000
  H   H746      1.0  0.63207  0.06225  0.89529  1.0000
  S   S188      1.0  0.65128  0.85952  0.02922  1.0000
  H   H747      1.0  0.70142  0.06197  0.94324  1.0000
  H   H748      1.0  0.89110  0.02507  0.69029  1.0000
  S   S189      1.0  0.75577  0.86908  0.00056  1.0000
  Fe  Fe95      1.0  0.98547  0.01036  0.01489  1.0000
  H   H749      1.0  0.05341  0.99029  0.90823  1.0000
  H   H750      1.0  0.93028  0.83475  0.81941  1.0000
  H   H751      1.0  0.03065  0.93441  0.63600  1.0000
  Fe  Fe96      1.0  0.90479  0.99154  0.01223  1.0000
  H   H752      1.0  0.84856  0.89024  0.80057  1.0000
  C   C475      1.0  0.05044  0.93819  0.66117  1.0000
  S   S190      1.0  0.04648  0.04334  0.68308  1.0000
  N   N47       1.0  0.86409  0.05019  0.64041  1.0000
  S   S191      1.0  0.02512  0.05563  0.01803  1.0000
  C   C476      1.0  0.68834  0.06940  0.79396  1.0000
  H   H753      1.0  0.70383  0.07152  0.76559  1.0000
  H   H754      1.0  0.04142  0.92144  0.68739  1.0000
  H   H755      1.0  0.05498  0.01348  0.95583  1.0000
  H   H756      1.0  0.10058  0.98153  0.62453  1.0000
  C   C477      1.0  0.99360  0.86792  0.06150  1.0000
  H   H757      1.0  0.01651  0.87759  0.85627  1.0000
  C   C478      1.0  0.09487  0.06870  0.92733  1.0000
  C   C479      1.0  0.71834  0.06847  0.97033  1.0000
  C   C480      1.0  0.85898  0.86190  0.06369  1.0000
  H   H758      1.0  0.80918  0.07692  0.98957  1.0000
  H   H759      1.0  0.09657  0.99869  0.93208  1.0000
  H   H760      1.0  0.85337  0.84505  0.69398  1.0000
  H   H761      1.0  0.88132  0.86169  0.77707  1.0000
  N   N48       1.0  0.88712  0.86796  0.84209  1.0000
  H   H762      1.0  0.08214  0.07415  0.95783  1.0000
  H   H763      1.0  0.88871  0.86726  0.05862  1.0000
  H   H764      1.0  0.01945  0.83310  0.01842  1.0000
  H   H765      1.0  0.08023  0.95218  0.58809  1.0000
  H   H766      1.0  0.60703  0.90044  0.95199  1.0000
  S   S192      1.0  0.10654  0.05789  0.75510  1.0000
  H   H767      1.0  0.10484  0.91797  0.70910  1.0000
  H   H768      1.0  0.85483  0.83298  0.06317  1.0000
