data_image0
_chemical_formula_structural       CSHSH4C2HNC2H3SH2NCH3SC2HCHFe2SFeC2H4S2C6H5CH2FeH2C2HFeH3C3HCHS3H2C2HSC3HCHCHNH2CH4NCS2H2CH3NH7CH2S2HFeSH8C7H3CH2CFeNHCHSHCFe2H3SHCHSC2FeCS2HFeCH2SCH3SFeSHC3H2SHCFeC2HNH2C2HCHSHCFeSH4C2HCH2C3H10SHC2H2CNFeC2H4C3S2CH10CFeCSHSFeHSC2HCS2CSH4FeH2CHCSHFeH2C2NC4H2NCHC2SH2FeSH3C2HSH5FeSCS2FeCSCS2CFeSFeSCH4SC6H3C6H5C2H4SHCH2SHFeH3CSH3CHCH3FeH4CHSNC2SHCH2CFeH4CHC2HCHCHC2FeH2SHFeSH2C3H2FeCHNCH2NSCHC2HCH3CS2CHNFeCH2SHC2HFeCH2SHC2SH3C2HCH4FeSHCH9CH2CNCH2C2HS2H3SH3CHC4SH2CH2C3H2NCHSHC4SC2HC2HNSHSCHCH2SH3CHCHCH2CH2C2Fe2CNHNH2SFeS2FeSHSH2CHCHCHCH2FeH2CFeH2CH10SH2C2SFeCHC3SC2H2S2FeNH4SHS2H4SHNHC6H5FeHCHCHCFeCH2CSCH3FeSH2CSHCH5CHCH5C2SFeSHCHC2HNC2HSH7CHC3FeH3CH2CS2HNH2CSCFeC2FeCH3CNCSCH11SC2HC5H3CFeH3SHSFeNHSC2HCHCH6FeCSCHS2H2FeCHFeC2HCH3SHNSHCH2C2SCH4C2HSFeHCSHS2NHC6H6SH3FeH2SCSH2C6HC2H14NSHS2HFeH2CSH2CH2C2H2C2HFeCFeH2CH3Fe2SCH2NH2CHSFeHCHSC2SCHCSH5C5HC3SHFeCH2CH2SHSCH2SH2NH4CNH6FeHCH8C3FeH2SH2CNH2SFeCH5CHCH3C2NS2CFeSFeSHSFeHCH3SC2HC2H3Fe2H2CHCFeCHC2SC2H2S2H2CHNCH3C3SHC2H2CH4C3H3CH4CHC4SC2H5CH5CFeSCHFeHSC3HSHS2C2NCSFe2SC2SHNCHC2H2S2H2CH2CH2CSCFeH3SFeH2CHSCFeS2FeS2Fe2S2H2CHCSC4H8C3FeHCH5CH2CH3CH2CHCH2SH2NCHSNHCHCH2C2HCHC3HCH3CHC2HSH3SHCHCHS2FeCHCH3SC2HCH3SHCFeNH2FeSFeNSHFeCS3H3SH4C2HCHC6HCH2C2HC4SHSNHCH3C2H2NCHC2H5CH2CH6CHCH3SHC2SH2SH2C3FeH5CHC2HC3H2C6H2NH2SH3FeHCH8C2SC3NH4SHCHCHNH2SCFeC2H2SCH2Fe2H2SC2H6NCSC2H5FeHSHCNHCHCH2SCNHCH2CH2CSC2H2FeH3CFeCFeHSHS2CHC2H2CHSCHC3H2
_chemical_formula_sum              "C480 S192 H768 N48 Fe96"
_cell_length_a       44.974
_cell_length_b       37.1195
_cell_length_c       28.7069
_cell_angle_alpha    89.8126
_cell_angle_beta     90.1481
_cell_angle_gamma    90.3803

_space_group_name_H-M_alt    "P 1"
_space_group_IT_number       1

loop_
  _space_group_symop_operation_xyz
  'x, y, z'

loop_
  _atom_site_type_symbol
  _atom_site_label
  _atom_site_symmetry_multiplicity
  _atom_site_fract_x
  _atom_site_fract_y
  _atom_site_fract_z
  _atom_site_occupancy
  C   C1        1.0  0.09205  0.62896  0.19565  1.0000
  S   S1        1.0  0.15563  0.42923  0.56939  1.0000
  H   H1        1.0  0.04004  0.25020  0.26096  1.0000
  S   S2        1.0  0.07181  0.35793  0.31188  1.0000
  H   H2        1.0  0.05211  0.34936  0.15807  1.0000
  H   H3        1.0  0.01499  0.44704  0.43143  1.0000
  H   H4        1.0  0.06503  0.23172  0.18911  1.0000
  H   H5        1.0  0.99878  0.44275  0.13577  1.0000
  C   C2        1.0  0.18489  0.26319  0.60486  1.0000
  C   C3        1.0  0.03355  0.36680  0.30859  1.0000
  H   H6        1.0  0.10245  0.31320  0.23515  1.0000
  N   N1        1.0  0.02579  0.39513  0.13848  1.0000
  C   C4        1.0  0.10904  0.28774  0.25294  1.0000
  C   C5        1.0  0.01320  0.34267  0.32859  1.0000
  H   H7        1.0  0.12143  0.41496  0.48683  1.0000
  H   H8        1.0  0.18993  0.29322  0.54097  1.0000
  H   H9        1.0  0.11194  0.29439  0.29051  1.0000
  S   S3        1.0  0.23973  0.41105  0.57121  1.0000
  H   H10       1.0  0.09902  0.23130  0.30905  1.0000
  H   H11       1.0  0.10410  0.23996  0.18116  1.0000
  N   N2        1.0  0.08645  0.25908  0.24620  1.0000
  C   C6        1.0  0.19773  0.28966  0.57637  1.0000
  H   H12       1.0  0.09758  0.33164  0.56383  1.0000
  H   H13       1.0  0.02055  0.35727  0.19475  1.0000
  H   H14       1.0  0.03486  0.51251  0.33793  1.0000
  S   S4        1.0  0.15491  0.23756  0.58386  1.0000
  C   C7        1.0  0.22895  0.43048  0.22296  1.0000
  C   C8        1.0  0.13594  0.63596  0.14802  1.0000
  H   H15       1.0  0.99744  0.21088  0.16488  1.0000
  C   C9        1.0  0.00837  0.42359  0.16156  1.0000
  H   H16       1.0  0.08243  0.65411  0.18102  1.0000
  Fe  Fe1       1.0  0.13215  0.47409  0.31935  1.0000
  Fe  Fe2       1.0  0.09966  0.40580  0.29136  1.0000
  S   S5        1.0  0.14868  0.51022  0.37607  1.0000
  Fe  Fe3       1.0  0.09780  0.47098  0.22900  1.0000
  C   C10       1.0  0.11956  0.33626  0.58067  1.0000
  C   C11       1.0  0.04705  0.53248  0.20068  1.0000
  H   H17       1.0  0.11879  0.44635  0.41042  1.0000
  H   H18       1.0  0.07302  0.61135  0.20555  1.0000
  H   H19       1.0  0.02452  0.19029  0.61540  1.0000
  H   H20       1.0  0.07569  0.37164  0.62359  1.0000
  S   S6        1.0  0.08430  0.46227  0.30335  1.0000
  S   S7        1.0  0.14432  0.48841  0.24583  1.0000
  C   C12       1.0  0.22795  0.46597  0.23920  1.0000
  C   C13       1.0  0.15019  0.48778  0.42982  1.0000
  C   C14       1.0  0.13329  0.45656  0.43750  1.0000
  C   C15       1.0  0.15390  0.45165  0.51561  1.0000
  C   C16       1.0  0.17128  0.48238  0.50746  1.0000
  C   C17       1.0  0.16902  0.50079  0.46491  1.0000
  H   H21       1.0  0.02229  0.54206  0.13750  1.0000
  H   H22       1.0  0.18591  0.49253  0.53436  1.0000
  H   H23       1.0  0.18203  0.52502  0.45911  1.0000
  H   H24       1.0  0.03899  0.58010  0.30103  1.0000
  H   H25       1.0  0.11716  0.21553  0.25730  1.0000
  C   C18       1.0  0.01412  0.58936  0.23801  1.0000
  H   H26       1.0  0.06890  0.53077  0.26746  1.0000
  H   H27       1.0  0.13029  0.35967  0.56300  1.0000
  Fe  Fe4       1.0  0.15550  0.42984  0.24057  1.0000
  H   H28       1.0  0.13895  0.56370  0.15824  1.0000
  H   H29       1.0  0.07797  0.27612  0.17577  1.0000
  C   C19       1.0  0.05185  0.54336  0.24668  1.0000
  C   C20       1.0  0.02140  0.45787  0.39666  1.0000
  H   H30       1.0  0.14934  0.64457  0.17870  1.0000
  Fe  Fe5       1.0  0.20007  0.43664  0.60392  1.0000
  H   H31       1.0  0.02249  0.43971  0.18580  1.0000
  H   H32       1.0  0.04967  0.29585  0.24639  1.0000
  H   H33       1.0  0.20693  0.47958  0.24197  1.0000
  C   C21       1.0  0.01169  0.50186  0.33641  1.0000
  C   C22       1.0  0.00971  0.57892  0.19174  1.0000
  C   C23       1.0  0.02595  0.55024  0.17322  1.0000
  H   H34       1.0  0.03864  0.41654  0.27056  1.0000
  C   C24       1.0  0.05760  0.27125  0.26482  1.0000
  H   H35       1.0  0.07905  0.20414  0.26790  1.0000
  S   S8        1.0  0.19630  0.40744  0.20719  1.0000
  S   S9        1.0  0.06817  0.49778  0.17645  1.0000
  S   S10       1.0  0.11014  0.41360  0.21601  1.0000
  H   H36       1.0  0.02101  0.31842  0.34553  1.0000
  H   H37       1.0  0.12549  0.16769  0.55594  1.0000
  C   C25       1.0  0.03509  0.57145  0.26555  1.0000
  C   C26       1.0  0.02320  0.39810  0.28684  1.0000
  H   H38       1.0  0.09619  0.17857  0.51587  1.0000
  S   S11       1.0  0.14643  0.41650  0.31531  1.0000
  C   C27       1.0  0.08333  0.25133  0.19592  1.0000
  C   C28       1.0  0.13479  0.43883  0.48069  1.0000
  C   C29       1.0  0.00630  0.17245  0.62299  1.0000
  H   H39       1.0  0.99681  0.50796  0.45208  1.0000
  C   C30       1.0  0.12452  0.57837  0.18314  1.0000
  H   H40       1.0  0.10419  0.63631  0.22809  1.0000
  C   C31       1.0  0.22039  0.31200  0.59380  1.0000
  H   H41       1.0  0.01999  0.43508  0.37164  1.0000
  N   N3        1.0  0.11653  0.34244  0.63130  1.0000
  H   H42       1.0  0.23041  0.33219  0.57150  1.0000
  H   H43       1.0  0.05928  0.27810  0.30248  1.0000
  C   C32       1.0  0.09584  0.22613  0.27119  1.0000
  H   H44       1.0  0.13109  0.27970  0.23903  1.0000
  H   H45       1.0  0.05268  0.38558  0.19915  1.0000
  H   H46       1.0  0.22297  0.47969  0.34235  1.0000
  H   H47       1.0  0.22788  0.42928  0.45418  1.0000
  N   N4        1.0  0.11168  0.61105  0.16171  1.0000
  C   C33       1.0  0.03836  0.37078  0.17414  1.0000
  S   S12       1.0  0.01568  0.28487  0.15014  1.0000
  S   S13       1.0  0.22314  0.48881  0.61951  1.0000
  H   H48       1.0  0.20208  0.45723  0.38696  1.0000
  H   H49       1.0  0.04518  0.46640  0.39865  1.0000
  C   C34       1.0  0.22257  0.47341  0.38027  1.0000
  H   H50       1.0  0.05551  0.17053  0.20975  1.0000
  H   H51       1.0  0.22017  0.49937  0.39916  1.0000
  H   H52       1.0  0.99719  0.52417  0.32395  1.0000
  N   N5        1.0  0.00203  0.48801  0.38231  1.0000
  H   H53       1.0  0.23192  0.40235  0.37466  1.0000
  H   H54       1.0  0.13809  0.58500  0.21447  1.0000
  H   H55       1.0  0.13359  0.31233  0.57346  1.0000
  H   H56       1.0  0.10683  0.55923  0.19447  1.0000
  H   H57       1.0  0.10865  0.39920  0.62394  1.0000
  H   H58       1.0  0.02750  0.52732  0.42055  1.0000
  H   H59       1.0  0.01110  0.48044  0.30943  1.0000
  C   C35       1.0  0.00419  0.51726  0.41703  1.0000
  H   H60       1.0  0.06568  0.42722  0.13433  1.0000
  H   H61       1.0  0.17285  0.48410  0.79677  1.0000
  S   S14       1.0  0.07657  0.17359  0.73610  1.0000
  S   S15       1.0  0.12903  0.23365  0.71572  1.0000
  H   H62       1.0  0.04160  0.43102  0.08483  1.0000
  Fe  Fe6       1.0  0.07951  0.23047  0.71054  1.0000
  S   S16       1.0  0.04741  0.27085  0.73779  1.0000
  H   H63       1.0  0.16038  0.32369  0.64822  1.0000
  H   H64       1.0  0.09519  0.37974  0.67730  1.0000
  H   H65       1.0  0.01214  0.57731  0.77600  1.0000
  H   H66       1.0  0.07977  0.20256  0.88592  1.0000
  H   H67       1.0  0.10334  0.53826  0.80407  1.0000
  H   H68       1.0  0.17819  0.21780  0.76562  1.0000
  H   H69       1.0  0.11498  0.28590  0.64563  1.0000
  H   H70       1.0  0.01102  0.27640  0.81974  1.0000
  C   C36       1.0  0.19448  0.20276  0.78471  1.0000
  C   C37       1.0  0.07166  0.27856  0.89098  1.0000
  C   C38       1.0  0.04172  0.27732  0.87761  1.0000
  C   C39       1.0  0.03412  0.27713  0.83020  1.0000
  C   C40       1.0  0.05650  0.27677  0.79647  1.0000
  C   C41       1.0  0.08635  0.27842  0.80997  1.0000
  C   C42       1.0  0.10216  0.31071  0.65302  1.0000
  H   H71       1.0  0.02445  0.27663  0.90377  1.0000
  H   H72       1.0  0.08947  0.20131  0.97096  1.0000
  H   H73       1.0  0.10367  0.27893  0.78406  1.0000
  C   C43       1.0  0.00160  0.17727  0.76097  1.0000
  H   H74       1.0  0.11708  0.28102  0.86750  1.0000
  H   H75       1.0  0.15833  0.37064  0.63500  1.0000
  C   C44       1.0  0.21778  0.28101  0.66798  1.0000
  Fe  Fe7       1.0  0.04432  0.25156  0.99019  1.0000
  N   N6        1.0  0.11196  0.16908  0.92021  1.0000
  H   H76       1.0  0.18578  0.23778  0.67244  1.0000
  C   C45       1.0  0.05021  0.41181  0.11140  1.0000
  H   H77       1.0  0.22752  0.24490  0.77989  1.0000
  S   S17       1.0  0.08163  0.27582  0.94964  1.0000
  H   H78       1.0  0.15249  0.57266  0.74591  1.0000
  C   C46       1.0  0.14630  0.34794  0.65212  1.0000
  Fe  Fe8       1.0  0.12853  0.21346  0.64226  1.0000
  Fe  Fe9       1.0  0.15177  0.65645  0.86142  1.0000
  H   H79       1.0  0.20816  0.63980  0.82147  1.0000
  H   H80       1.0  0.10054  0.31358  0.69156  1.0000
  H   H81       1.0  0.14496  0.35397  0.68999  1.0000
  S   S18       1.0  0.05642  0.22775  0.05902  1.0000
  H   H82       1.0  0.01736  0.20036  0.76482  1.0000
  C   C47       1.0  0.09393  0.27983  0.85719  1.0000
  H   H83       1.0  0.12097  0.54450  0.86001  1.0000
  S   S19       1.0  0.01830  0.20351  0.96560  1.0000
  C   C48       1.0  0.09817  0.37467  0.63940  1.0000
  C   C49       1.0  0.08922  0.17497  0.88374  1.0000
  Fe  Fe10      1.0  0.10138  0.65404  0.79125  1.0000
  C   C50       1.0  0.09839  0.17367  0.96665  1.0000
  S   S20       1.0  0.17993  0.62379  0.90985  1.0000
  S   S21       1.0  0.20814  0.41367  0.67500  1.0000
  H   H84       1.0  0.07919  0.30636  0.63954  1.0000
  Fe  Fe11      1.0  0.02677  0.18217  0.03753  1.0000
  C   C51       1.0  0.21724  0.62410  0.89240  1.0000
  H   H85       1.0  0.12817  0.22368  0.91736  1.0000
  H   H86       1.0  0.11481  0.16920  0.99511  1.0000
  S   S22       1.0  0.06900  0.61314  0.76355  1.0000
  C   C52       1.0  0.22507  0.63331  0.84671  1.0000
  H   H87       1.0  0.17407  0.53270  0.73766  1.0000
  H   H88       1.0  0.06357  0.39114  0.09297  1.0000
  H   H89       1.0  0.01458  0.64407  0.95765  1.0000
  S   S23       1.0  0.15046  0.64656  0.78472  1.0000
  Fe  Fe12      1.0  0.01471  0.25317  0.08402  1.0000
  S   S24       1.0  0.07918  0.21644  0.63523  1.0000
  H   H90       1.0  0.13417  0.53082  0.73342  1.0000
  C   C53       1.0  0.17673  0.55210  0.82762  1.0000
  C   C54       1.0  0.15194  0.49587  0.81071  1.0000
  C   C55       1.0  0.13638  0.19554  0.91412  1.0000
  H   H91       1.0  0.19826  0.54139  0.81492  1.0000
  H   H92       1.0  0.17728  0.58168  0.82215  1.0000
  S   S25       1.0  0.23117  0.49688  0.75255  1.0000
  H   H93       1.0  0.13298  0.48221  0.79295  1.0000
  C   C56       1.0  0.12316  0.54990  0.82202  1.0000
  Fe  Fe13      1.0  0.12635  0.17498  0.73442  1.0000
  C   C57       1.0  0.03292  0.62971  0.77217  1.0000
  C   C58       1.0  0.15307  0.54318  0.75286  1.0000
  H   H94       1.0  0.15090  0.48896  0.84843  1.0000
  N   N7        1.0  0.15120  0.53528  0.80331  1.0000
  H   H95       1.0  0.17584  0.54739  0.86592  1.0000
  H   H96       1.0  0.12195  0.57961  0.81720  1.0000
  C   C59       1.0  0.22246  0.21821  0.79303  1.0000
  C   C60       1.0  0.00877  0.60608  0.77801  1.0000
  H   H97       1.0  0.22530  0.27784  0.70356  1.0000
  C   C61       1.0  0.18767  0.16838  0.80180  1.0000
  H   H98       1.0  0.15417  0.19178  0.94064  1.0000
  S   S26       1.0  0.10238  0.65865  0.86880  1.0000
  H   H99       1.0  0.14683  0.19311  0.87912  1.0000
  C   C62       1.0  0.19512  0.25865  0.65055  1.0000
  Fe  Fe14      1.0  0.23528  0.46335  0.68783  1.0000
  S   S27       1.0  0.00491  0.28144  0.01685  1.0000
  H   H100      1.0  0.09884  0.17196  0.84823  1.0000
  H   H101      1.0  0.99538  0.66223  0.00724  1.0000
  H   H102      1.0  0.00031  0.17073  0.72320  1.0000
  H   H103      1.0  0.08368  0.62488  0.10357  1.0000
  C   C63       1.0  0.23947  0.61615  0.92487  1.0000
  C   C64       1.0  0.23051  0.30763  0.63956  1.0000
  H   H104      1.0  0.10835  0.58793  0.09321  1.0000
  C   C65       1.0  0.24402  0.19903  0.81768  1.0000
  H   H105      1.0  0.01878  0.35254  0.08894  1.0000
  H   H106      1.0  0.23354  0.60950  0.96040  1.0000
  C   C66       1.0  0.09420  0.60089  0.12001  1.0000
  C   C67       1.0  0.00625  0.37425  0.10690  1.0000
  C   C68       1.0  0.23725  0.16475  0.83531  1.0000
  H   H107      1.0  0.03686  0.17401  0.12885  1.0000
  H   H108      1.0  0.99618  0.39172  0.07961  1.0000
  H   H109      1.0  0.07606  0.58158  0.12896  1.0000
  H   H110      1.0  0.15120  0.62329  0.12249  1.0000
  H   H111      1.0  0.12706  0.66080  0.13136  1.0000
  H   H112      1.0  0.10198  0.09353  0.58400  1.0000
  H   H113      1.0  0.20895  0.90138  0.25380  1.0000
  H   H114      1.0  0.23445  0.88145  0.39504  1.0000
  H   H115      1.0  0.09852  0.07063  0.17868  1.0000
  H   H116      1.0  0.13154  0.78648  0.60290  1.0000
  S   S28       1.0  0.24119  0.87461  0.62646  1.0000
  H   H117      1.0  0.10050  0.81661  0.60763  1.0000
  C   C69       1.0  0.20294  0.93872  0.42527  1.0000
  C   C70       1.0  0.04767  0.87850  0.27771  1.0000
  H   H118      1.0  0.07534  0.93526  0.23895  1.0000
  H   H119      1.0  0.12965  0.89798  0.47055  1.0000
  C   C71       1.0  0.07790  0.11033  0.50095  1.0000
  N   N8        1.0  0.06926  0.87798  0.23897  1.0000
  Fe  Fe15      1.0  0.20929  0.91186  0.59114  1.0000
  C   C72       1.0  0.06092  0.84921  0.20582  1.0000
  C   C73       1.0  0.23212  0.97056  0.36773  1.0000
  H   H120      1.0  0.17984  0.84132  0.61620  1.0000
  H   H121      1.0  0.15092  0.13438  0.49363  1.0000
  H   H122      1.0  0.11977  0.06855  0.53878  1.0000
  H   H123      1.0  0.00336  0.10798  0.17532  1.0000
  C   C74       1.0  0.09939  0.87121  0.25761  1.0000
  C   C75       1.0  0.06900  0.91317  0.21478  1.0000
  C   C76       1.0  0.12520  0.81522  0.60727  1.0000
  S   S29       1.0  0.03387  0.71045  0.22006  1.0000
  S   S30       1.0  0.17354  0.89171  0.54316  1.0000
  C   C77       1.0  0.99911  0.11207  0.26885  1.0000
  H   H124      1.0  0.01789  0.04389  0.27159  1.0000
  H   H125      1.0  0.20034  0.96338  0.44683  1.0000
  H   H126      1.0  0.05321  0.89989  0.30346  1.0000
  H   H127      1.0  0.06099  0.82223  0.22293  1.0000
  H   H128      1.0  0.08498  0.91390  0.18526  1.0000
  H   H129      1.0  0.02475  0.88399  0.26479  1.0000
  H   H130      1.0  0.10055  0.84469  0.27568  1.0000
  H   H131      1.0  0.07939  0.08339  0.48425  1.0000
  H   H132      1.0  0.12126  0.14412  0.45340  1.0000
  H   H133      1.0  0.13982  0.10368  0.56857  1.0000
  C   C78       1.0  0.05035  0.15151  0.13956  1.0000
  Fe  Fe16      1.0  0.12672  0.98788  0.28338  1.0000
  C   C79       1.0  0.21536  0.92931  0.24925  1.0000
  S   S31       1.0  0.01889  0.96683  0.27967  1.0000
  H   H134      1.0  0.23844  0.02907  0.23015  1.0000
  S   S32       1.0  0.11564  0.02795  0.44890  1.0000
  Fe  Fe17      1.0  0.09794  0.06193  0.28344  1.0000
  H   H135      1.0  0.01197  0.00738  0.36559  1.0000
  S   S33       1.0  0.09124  0.11868  0.25740  1.0000
  C   C80       1.0  0.16342  0.96386  0.53396  1.0000
  C   C81       1.0  0.08460  0.09283  0.16824  1.0000
  H   H136      1.0  0.00602  0.03134  0.21439  1.0000
  C   C82       1.0  0.06115  0.14970  0.18529  1.0000
  S   S34       1.0  0.06591  0.04671  0.33988  1.0000
  S   S35       1.0  0.13808  0.03951  0.32031  1.0000
  C   C83       1.0  0.19367  0.95617  0.24951  1.0000
  S   S36       1.0  0.08982  0.01204  0.24123  1.0000
  H   H137      1.0  0.10669  0.95142  0.43350  1.0000
  H   H138      1.0  0.13222  0.09850  0.46381  1.0000
  H   H139      1.0  0.06114  0.10797  0.52937  1.0000
  H   H140      1.0  0.04645  0.91954  0.20098  1.0000
  Fe  Fe18      1.0  0.10509  0.02006  0.37329  1.0000
  H   H141      1.0  0.21323  0.96972  0.34259  1.0000
  H   H142      1.0  0.17915  0.96760  0.56202  1.0000
  C   C84       1.0  0.13058  0.98968  0.47583  1.0000
  H   H143      1.0  0.15678  0.02072  0.52444  1.0000
  C   C85       1.0  0.15063  0.99403  0.51273  1.0000
  S   S37       1.0  0.15641  0.94380  0.25810  1.0000
  H   H144      1.0  0.03802  0.85325  0.19185  1.0000
  Fe  Fe19      1.0  0.06081  0.99513  0.30046  1.0000
  H   H145      1.0  0.13309  0.83019  0.57582  1.0000
  H   H146      1.0  0.18533  0.01308  0.24341  1.0000
  C   C86       1.0  0.23396  0.90570  0.37211  1.0000
  C   C87       1.0  0.07842  0.12048  0.19967  1.0000
  N   N9        1.0  0.23136  0.93916  0.39953  1.0000
  C   C88       1.0  0.10396  0.15795  0.54123  1.0000
  C   C89       1.0  0.15600  0.92922  0.51865  1.0000
  C   C90       1.0  0.11769  0.09591  0.55419  1.0000
  C   C91       1.0  0.23205  0.00126  0.23587  1.0000
  H   H147      1.0  0.23053  0.99634  0.38719  1.0000
  H   H148      1.0  0.07646  0.84823  0.17577  1.0000
  N   N10       1.0  0.10710  0.12227  0.51925  1.0000
  C   C92       1.0  0.12285  0.95501  0.46089  1.0000
  H   H149      1.0  0.04690  0.85222  0.29643  1.0000
  C   C93       1.0  0.13551  0.92475  0.48237  1.0000
  C   C94       1.0  0.20203  0.99225  0.24341  1.0000
  S   S38       1.0  0.09673  0.96686  0.33930  1.0000
  H   H150      1.0  0.18349  0.93725  0.40123  1.0000
  H   H151      1.0  0.11637  0.87150  0.22944  1.0000
  Fe  Fe20      1.0  0.03455  0.71052  0.14209  1.0000
  S   S39       1.0  0.00012  0.80358  0.25720  1.0000
  H   H152      1.0  0.10618  0.89234  0.28306  1.0000
  H   H153      1.0  0.03373  0.06600  0.22186  1.0000
  H   H154      1.0  0.21503  0.90252  0.34736  1.0000
  C   C95       1.0  0.12882  0.12500  0.48081  1.0000
  C   C96       1.0  0.01273  0.05469  0.23641  1.0000
  H   H155      1.0  0.06911  0.12945  0.47449  1.0000
  S   S40       1.0  0.24403  0.95062  0.56577  1.0000
  H   H156      1.0  0.08752  0.15687  0.57001  1.0000
  H   H157      1.0  0.20152  0.91511  0.44928  1.0000
  H   H158      1.0  0.13744  0.88490  0.62423  1.0000
  H   H159      1.0  0.00397  0.10243  0.30485  1.0000
  H   H160      1.0  0.01989  0.12478  0.25542  1.0000
  Fe  Fe21      1.0  0.99991  0.75392  0.21280  1.0000
  S   S41       1.0  0.00428  0.75781  0.13541  1.0000
  C   C97       1.0  0.01124  0.13566  0.62993  1.0000
  S   S42       1.0  0.04764  0.11867  0.63081  1.0000
  S   S43       1.0  0.99863  0.66891  0.13434  1.0000
  Fe  Fe22      1.0  0.99525  0.67255  0.21222  1.0000
  C   C98       1.0  0.12961  0.86872  0.65461  1.0000
  S   S44       1.0  0.10333  0.71371  0.77763  1.0000
  C   C99       1.0  0.23464  0.04962  0.77866  1.0000
  S   S45       1.0  0.23185  0.03827  0.64112  1.0000
  S   S46       1.0  0.15784  0.71616  0.85565  1.0000
  C   C100      1.0  0.05652  0.12387  0.10810  1.0000
  Fe  Fe23      1.0  0.10800  0.71768  0.85532  1.0000
  S   S47       1.0  0.08069  0.75622  0.89669  1.0000
  Fe  Fe24      1.0  0.15275  0.70662  0.77905  1.0000
  S   S48       1.0  0.18515  0.72948  0.72768  1.0000
  C   C101      1.0  0.12379  0.13216  0.91634  1.0000
  H   H161      1.0  0.07047  0.15544  0.88707  1.0000
  H   H162      1.0  0.10591  0.11158  0.92092  1.0000
  H   H163      1.0  0.99536  0.74031  0.97576  1.0000
  H   H164      1.0  0.22104  0.70801  0.89409  1.0000
  S   S49       1.0  0.22523  0.88929  0.76194  1.0000
  C   C102      1.0  0.07867  0.71824  0.04776  1.0000
  C   C103      1.0  0.10038  0.70531  0.01737  1.0000
  C   C104      1.0  0.10117  0.71720  0.97102  1.0000
  C   C105      1.0  0.08055  0.74248  0.95512  1.0000
  C   C106      1.0  0.05922  0.75599  0.98572  1.0000
  C   C107      1.0  0.05804  0.74355  0.03190  1.0000
  H   H165      1.0  0.11800  0.70706  0.94777  1.0000
  H   H166      1.0  0.04352  0.77592  0.97360  1.0000
  H   H167      1.0  0.04147  0.75397  0.05526  1.0000
  C   C108      1.0  0.21694  0.84332  0.75859  1.0000
  C   C109      1.0  0.23250  0.82168  0.72742  1.0000
  C   C110      1.0  0.22301  0.78633  0.71899  1.0000
  C   C111      1.0  0.19822  0.77238  0.74230  1.0000
  C   C112      1.0  0.18359  0.79327  0.77547  1.0000
  C   C113      1.0  0.19294  0.82887  0.78358  1.0000
  H   H168      1.0  0.10505  0.87170  0.65665  1.0000
  H   H169      1.0  0.07965  0.15438  0.97227  1.0000
  H   H170      1.0  0.16434  0.78258  0.79347  1.0000
  H   H171      1.0  0.18082  0.84564  0.80767  1.0000
  H   H172      1.0  0.18156  0.84133  0.67840  1.0000
  C   C114      1.0  0.00676  0.66943  0.97402  1.0000
  C   C115      1.0  0.00304  0.69948  0.89956  1.0000
  H   H173      1.0  0.07840  0.07304  0.09823  1.0000
  H   H174      1.0  0.20997  0.76932  0.86118  1.0000
  H   H175      1.0  0.23451  0.77007  0.69359  1.0000
  H   H176      1.0  0.10263  0.81028  0.69331  1.0000
  S   S50       1.0  0.04311  0.12636  0.05084  1.0000
  H   H177      1.0  0.13949  0.88120  0.68638  1.0000
  C   C116      1.0  0.07346  0.09438  0.12256  1.0000
  H   H178      1.0  0.21373  0.05169  0.79907  1.0000
  H   H179      1.0  0.02685  0.68570  0.98307  1.0000
  S   S51       1.0  0.19887  0.94281  0.65574  1.0000
  H   H180      1.0  0.04662  0.68526  0.76934  1.0000
  Fe  Fe25      1.0  0.23419  0.90937  0.68936  1.0000
  H   H181      1.0  0.14117  0.12693  0.94314  1.0000
  H   H182      1.0  0.11650  0.68590  0.02951  1.0000
  H   H183      1.0  0.02242  0.71736  0.90721  1.0000
  C   C117      1.0  0.12733  0.81004  0.69118  1.0000
  S   S52       1.0  0.12916  0.15481  0.66091  1.0000
  H   H184      1.0  0.22689  0.71825  0.81083  1.0000
  H   H185      1.0  0.13407  0.12762  0.88166  1.0000
  H   H186      1.0  0.01137  0.15353  0.77900  1.0000
  C   C118      1.0  0.20899  0.14955  0.82767  1.0000
  H   H187      1.0  0.20374  0.12314  0.84152  1.0000
  C   C119      1.0  0.23685  0.98511  0.78902  1.0000
  H   H188      1.0  0.24028  0.02509  0.86682  1.0000
  H   H189      1.0  0.01171  0.67529  0.88138  1.0000
  H   H190      1.0  0.21586  0.98463  0.80944  1.0000
  Fe  Fe26      1.0  0.07941  0.15945  0.66062  1.0000
  H   H191      1.0  0.13448  0.78134  0.69004  1.0000
  H   H192      1.0  0.99671  0.70927  0.78479  1.0000
  H   H193      1.0  0.23075  0.98061  0.75182  1.0000
  H   H194      1.0  0.13611  0.82165  0.72419  1.0000
  C   C120      1.0  0.99998  0.68045  0.78317  1.0000
  H   H195      1.0  0.17843  0.79946  0.64737  1.0000
  S   S53       1.0  0.07788  0.70226  0.10529  1.0000
  N   N11       1.0  0.13822  0.83049  0.65027  1.0000
  C   C121      1.0  0.17093  0.82799  0.64800  1.0000
  C   C122      1.0  0.02836  0.66685  0.77462  1.0000
  S   S54       1.0  0.15245  0.14893  0.79226  1.0000
  H   H196      1.0  0.22818  0.04616  0.74145  1.0000
  C   C123      1.0  0.23375  0.77665  0.86683  1.0000
  H   H197      1.0  0.23546  0.78978  0.90153  1.0000
  H   H198      1.0  0.23981  0.79717  0.84003  1.0000
  C   C124      1.0  0.24412  0.71815  0.89986  1.0000
  Fe  Fe27      1.0  0.23658  0.97858  0.63362  1.0000
  H   H199      1.0  0.24506  0.72995  0.93540  1.0000
  H   H200      1.0  0.48478  0.38140  0.38182  1.0000
  H   H201      1.0  0.46744  0.28733  0.31578  1.0000
  H   H202      1.0  0.25726  0.38570  0.20663  1.0000
  C   C125      1.0  0.44501  0.27666  0.30647  1.0000
  H   H203      1.0  0.31503  0.42137  0.55984  1.0000
  C   C126      1.0  0.48371  0.40873  0.23359  1.0000
  C   C127      1.0  0.27611  0.47644  0.38584  1.0000
  H   H204      1.0  0.32647  0.50759  0.46117  1.0000
  C   C128      1.0  0.41459  0.22413  0.29175  1.0000
  H   H205      1.0  0.27599  0.50156  0.40692  1.0000
  C   C129      1.0  0.28163  0.46660  0.24787  1.0000
  H   H206      1.0  0.42902  0.28641  0.33311  1.0000
  C   C130      1.0  0.42625  0.26921  0.15550  1.0000
  C   C131      1.0  0.28265  0.43104  0.23210  1.0000
  Fe  Fe28      1.0  0.26384  0.46134  0.59267  1.0000
  H   H207      1.0  0.48136  0.59489  0.16144  1.0000
  H   H208      1.0  0.44962  0.31888  0.16939  1.0000
  S   S55       1.0  0.29227  0.49311  0.54301  1.0000
  H   H209      1.0  0.27746  0.48439  0.34851  1.0000
  Fe  Fe29      1.0  0.44973  0.18779  0.14069  1.0000
  S   S56       1.0  0.31443  0.48916  0.26366  1.0000
  H   H210      1.0  0.39802  0.23303  0.31800  1.0000
  H   H211      1.0  0.45592  0.46548  0.43519  1.0000
  C   C132      1.0  0.39916  0.25075  0.15893  1.0000
  C   C133      1.0  0.45935  0.53449  0.19927  1.0000
  C   C134      1.0  0.31830  0.46685  0.51325  1.0000
  H   H212      1.0  0.30368  0.41725  0.22942  1.0000
  H   H213      1.0  0.35452  0.25146  0.18616  1.0000
  Fe  Fe30      1.0  0.36448  0.36986  0.26749  1.0000
  C   C135      1.0  0.45742  0.44083  0.41339  1.0000
  H   H214      1.0  0.41354  0.19418  0.28996  1.0000
  N   N12       1.0  0.47544  0.53759  0.15456  1.0000
  C   C136      1.0  0.37827  0.30049  0.20181  1.0000
  H   H215      1.0  0.32736  0.46452  0.16675  1.0000
  H   H216      1.0  0.36229  0.47059  0.41685  1.0000
  N   N13       1.0  0.48608  0.43908  0.38842  1.0000
  S   S57       1.0  0.40702  0.37450  0.30781  1.0000
  C   C137      1.0  0.47574  0.37253  0.23979  1.0000
  H   H217      1.0  0.45270  0.36500  0.24282  1.0000
  C   C138      1.0  0.42882  0.30426  0.17269  1.0000
  C   C139      1.0  0.28351  0.22882  0.62430  1.0000
  H   H218      1.0  0.35224  0.38512  0.51697  1.0000
  C   C140      1.0  0.48686  0.40603  0.35986  1.0000
  H   H219      1.0  0.30168  0.24514  0.60833  1.0000
  H   H220      1.0  0.46841  0.40563  0.33396  1.0000
  H   H221      1.0  0.43858  0.22927  0.37717  1.0000
  C   C141      1.0  0.33860  0.53336  0.14355  1.0000
  S   S58       1.0  0.33722  0.39895  0.32034  1.0000
  S   S59       1.0  0.37292  0.41818  0.22242  1.0000
  C   C142      1.0  0.45402  0.22132  0.34879  1.0000
  H   H222      1.0  0.40679  0.34682  0.20969  1.0000
  N   N14       1.0  0.44489  0.23688  0.30354  1.0000
  Fe  Fe31      1.0  0.38067  0.40857  0.35655  1.0000
  C   C143      1.0  0.25638  0.41317  0.21911  1.0000
  H   H223      1.0  0.43828  0.44113  0.38877  1.0000
  H   H224      1.0  0.26785  0.43146  0.45822  1.0000
  S   S60       1.0  0.34979  0.31762  0.23630  1.0000
  H   H225      1.0  0.48038  0.48021  0.14870  1.0000
  C   C144      1.0  0.40474  0.31993  0.19582  1.0000
  C   C145      1.0  0.34647  0.41174  0.50458  1.0000
  H   H226      1.0  0.39628  0.63322  0.14075  1.0000
  Fe  Fe32      1.0  0.34937  0.44804  0.27885  1.0000
  C   C146      1.0  0.35965  0.42542  0.46398  1.0000
  H   H227      1.0  0.33187  0.56136  0.13451  1.0000
  H   H228      1.0  0.29693  0.46173  0.39433  1.0000
  S   S61       1.0  0.38554  0.39950  0.43331  1.0000
  H   H229      1.0  0.49166  0.31817  0.24841  1.0000
  C   C147      1.0  0.32541  0.43221  0.52880  1.0000
  C   C148      1.0  0.37518  0.26628  0.18219  1.0000
  S   S62       1.0  0.39074  0.46050  0.31961  1.0000
  H   H230      1.0  0.45429  0.19127  0.34745  1.0000
  H   H231      1.0  0.39671  0.22434  0.14399  1.0000
  H   H232      1.0  0.43847  0.28913  0.27264  1.0000
  C   C149      1.0  0.46589  0.22530  0.26707  1.0000
  C   C150      1.0  0.35208  0.45980  0.44801  1.0000
  H   H233      1.0  0.47679  0.23041  0.35881  1.0000
  C   C151      1.0  0.33184  0.48073  0.47311  1.0000
  H   H234      1.0  0.27863  0.20563  0.60096  1.0000
  H   H235      1.0  0.45412  0.41713  0.43678  1.0000
  H   H236      1.0  0.24621  0.47122  0.46653  1.0000
  H   H237      1.0  0.44283  0.51207  0.19859  1.0000
  Fe  Fe33      1.0  0.41340  0.42553  0.26701  1.0000
  S   S63       1.0  0.45711  0.44302  0.23630  1.0000
  H   H238      1.0  0.40721  0.23492  0.25744  1.0000
  C   C152      1.0  0.48936  0.47091  0.35776  1.0000
  H   H239      1.0  0.47480  0.52896  0.22871  1.0000
  H   H240      1.0  0.27181  0.40436  0.37931  1.0000
  H   H241      1.0  0.47136  0.47202  0.33105  1.0000
  H   H242      1.0  0.33496  0.52951  0.18162  1.0000
  H   H243      1.0  0.26341  0.24602  0.62468  1.0000
  H   H244      1.0  0.44723  0.55969  0.20769  1.0000
  H   H245      1.0  0.45951  0.23623  0.23238  1.0000
  H   H246      1.0  0.28475  0.50646  0.16307  1.0000
  H   H247      1.0  0.46650  0.19536  0.26414  1.0000
  C   C153      1.0  0.25431  0.48419  0.25103  1.0000
  H   H248      1.0  0.25346  0.51175  0.26312  1.0000
  H   H249      1.0  0.25337  0.42502  0.33066  1.0000
  C   C154      1.0  0.24777  0.44603  0.44565  1.0000
  N   N15       1.0  0.24955  0.45394  0.39517  1.0000
  C   C155      1.0  0.25175  0.41988  0.36885  1.0000
  H   H250      1.0  0.48876  0.49651  0.37781  1.0000
  H   H251      1.0  0.48894  0.23481  0.27455  1.0000
  C   C156      1.0  0.49458  0.57014  0.15517  1.0000
  C   C157      1.0  0.49405  0.50536  0.14779  1.0000
  H   H252      1.0  0.36291  0.53156  0.13694  1.0000
  S   S64       1.0  0.41699  0.16498  0.19165  1.0000
  S   S65       1.0  0.45747  0.24717  0.13369  1.0000
  H   H253      1.0  0.34041  0.17766  0.05220  1.0000
  H   H254      1.0  0.35553  0.46605  0.12260  1.0000
  H   H255      1.0  0.30340  0.57433  0.65693  1.0000
  S   S66       1.0  0.27961  0.21781  0.82438  1.0000
  H   H256      1.0  0.39904  0.24984  0.05939  1.0000
  H   H257      1.0  0.33752  0.20822  0.65487  1.0000
  H   H258      1.0  0.32054  0.54017  0.05487  1.0000
  C   C158      1.0  0.46395  0.64726  0.09006  1.0000
  H   H259      1.0  0.47235  0.21720  0.70378  1.0000
  C   C159      1.0  0.45370  0.54035  0.11608  1.0000
  C   C160      1.0  0.25503  0.63416  0.83347  1.0000
  C   C161      1.0  0.37788  0.25725  0.04164  1.0000
  C   C162      1.0  0.32743  0.51262  0.06577  1.0000
  S   S67       1.0  0.25982  0.33430  0.66069  1.0000
  H   H260      1.0  0.46480  0.54522  0.08200  1.0000
  H   H261      1.0  0.27174  0.18646  0.72785  1.0000
  C   C163      1.0  0.47857  0.56261  0.94919  1.0000
  H   H262      1.0  0.36423  0.27248  0.06712  1.0000
  H   H263      1.0  0.27626  0.48999  0.10582  1.0000
  C   C164      1.0  0.44126  0.64899  0.12331  1.0000
  C   C165      1.0  0.30708  0.54706  0.67196  1.0000
  C   C166      1.0  0.35374  0.20140  0.06387  1.0000
  H   H264      1.0  0.34080  0.49761  0.71769  1.0000
  H   H265      1.0  0.28156  0.53750  0.11526  1.0000
  N   N16       1.0  0.29151  0.21664  0.67175  1.0000
  C   C167      1.0  0.45880  0.62870  0.04843  1.0000
  H   H266      1.0  0.30512  0.42057  0.83065  1.0000
  S   S68       1.0  0.32864  0.56252  0.95344  1.0000
  H   H267      1.0  0.33990  0.25380  0.96898  1.0000
  C   C168      1.0  0.28736  0.50606  0.86160  1.0000
  C   C169      1.0  0.26439  0.51231  0.82961  1.0000
  C   C170      1.0  0.29812  0.24825  0.70135  1.0000
  C   C171      1.0  0.27132  0.45283  0.79731  1.0000
  S   S69       1.0  0.41962  0.18249  0.89048  1.0000
  C   C172      1.0  0.26948  0.61826  0.91201  1.0000
  C   C173      1.0  0.30217  0.47303  0.86214  1.0000
  H   H268      1.0  0.29350  0.52691  0.88591  1.0000
  C   C174      1.0  0.34768  0.56887  0.71989  1.0000
  C   C175      1.0  0.29375  0.44617  0.83043  1.0000
  H   H269      1.0  0.28646  0.61447  0.93805  1.0000
  N   N17       1.0  0.32177  0.50652  0.11591  1.0000
  S   S70       1.0  0.27818  0.44006  0.66249  1.0000
  H   H270      1.0  0.31398  0.16937  0.64696  1.0000
  S   S71       1.0  0.31470  0.63228  0.85050  1.0000
  C   C176      1.0  0.27730  0.62710  0.86626  1.0000
  H   H271      1.0  0.26551  0.43236  0.77206  1.0000
  C   C177      1.0  0.26641  0.19603  0.69201  1.0000
  H   H272      1.0  0.35706  0.57099  0.75574  1.0000
  H   H273      1.0  0.31514  0.49292  0.04361  1.0000
  S   S72       1.0  0.33200  0.46599  0.90089  1.0000
  H   H274      1.0  0.43816  0.56295  0.12201  1.0000
  H   H275      1.0  0.33096  0.51242  0.77523  1.0000
  H   H276      1.0  0.48348  0.64555  0.94099  1.0000
  C   C178      1.0  0.33138  0.46987  0.12909  1.0000
  H   H277      1.0  0.31609  0.26538  0.68634  1.0000
  C   C179      1.0  0.41373  0.63194  0.11495  1.0000
  H   H278      1.0  0.27831  0.26573  0.70543  1.0000
  C   C180      1.0  0.29769  0.56819  0.75004  1.0000
  H   H279      1.0  0.29476  0.59669  0.73894  1.0000
  H   H280      1.0  0.28533  0.53246  0.67105  1.0000
  C   C181      1.0  0.31803  0.19340  0.66930  1.0000
  H   H281      1.0  0.48120  0.17762  0.91628  1.0000
  H   H282      1.0  0.30290  0.49603  0.73604  1.0000
  C   C182      1.0  0.38145  0.20521  0.99203  1.0000
  C   C183      1.0  0.33465  0.23611  0.99934  1.0000
  Fe  Fe34      1.0  0.24989  0.39200  0.64365  1.0000
  Fe  Fe35      1.0  0.34453  0.59764  0.89472  1.0000
  C   C184      1.0  0.28965  0.51030  0.12537  1.0000
  N   N18       1.0  0.36193  0.22500  0.02427  1.0000
  H   H283      1.0  0.31904  0.44888  0.10909  1.0000
  N   N19       1.0  0.31905  0.54910  0.71996  1.0000
  H   H284      1.0  0.34503  0.59682  0.70642  1.0000
  H   H285      1.0  0.30514  0.24000  0.73702  1.0000
  S   S73       1.0  0.36703  0.55318  0.85656  1.0000
  Fe  Fe36      1.0  0.37228  0.57611  0.98708  1.0000
  S   S74       1.0  0.38604  0.61562  0.93160  1.0000
  S   S75       1.0  0.37529  0.59019  0.06318  1.0000
  Fe  Fe37      1.0  0.40723  0.56738  0.89901  1.0000
  S   S76       1.0  0.45172  0.57239  0.86395  1.0000
  H   H286      1.0  0.45656  0.55833  0.96299  1.0000
  S   S77       1.0  0.39619  0.52870  0.95688  1.0000
  H   H287      1.0  0.32445  0.18322  0.70435  1.0000
  H   H288      1.0  0.26065  0.17205  0.67057  1.0000
  C   C185      1.0  0.40874  0.61358  0.07304  1.0000
  H   H289      1.0  0.26094  0.64087  0.79797  1.0000
  C   C186      1.0  0.48240  0.56904  0.90155  1.0000
  H   H290      1.0  0.35151  0.51030  0.05741  1.0000
  C   C187      1.0  0.25682  0.48609  0.79665  1.0000
  H   H291      1.0  0.42774  0.59767  0.00776  1.0000
  C   C188      1.0  0.32370  0.51223  0.73806  1.0000
  H   H292      1.0  0.37372  0.19073  0.08195  1.0000
  H   H293      1.0  0.37108  0.17948  0.98051  1.0000
  Fe  Fe38      1.0  0.35370  0.51905  0.91728  1.0000
  H   H294      1.0  0.32239  0.53236  0.64831  1.0000
  H   H295      1.0  0.32217  0.21234  0.98564  1.0000
  C   C189      1.0  0.43130  0.61216  0.03984  1.0000
  Fe  Fe39      1.0  0.31399  0.17521  0.83288  1.0000
  H   H296      1.0  0.34023  0.21594  0.09015  1.0000
  H   H297      1.0  0.44003  0.51539  0.11282  1.0000
  C   C190      1.0  0.47738  0.22762  0.73927  1.0000
  H   H298      1.0  0.38376  0.27596  0.01265  1.0000
  H   H299      1.0  0.30525  0.56862  0.78706  1.0000
  H   H300      1.0  0.47110  0.20607  0.76460  1.0000
  H   H301      1.0  0.40311  0.19836  0.00848  1.0000
  H   H302      1.0  0.38652  0.22139  0.96025  1.0000
  H   H303      1.0  0.47615  0.62652  0.02286  1.0000
  H   H304      1.0  0.25333  0.53812  0.82944  1.0000
  H   H305      1.0  0.31939  0.25117  0.02260  1.0000
  H   H306      1.0  0.46263  0.25100  0.74585  1.0000
  H   H307      1.0  0.27540  0.55506  0.74920  1.0000
  S   S78       1.0  0.35669  0.18041  0.79329  1.0000
  H   H308      1.0  0.36447  0.55517  0.69785  1.0000
  H   H309      1.0  0.24608  0.21281  0.69469  1.0000
  C   C191      1.0  0.47817  0.16467  0.88284  1.0000
  C   C192      1.0  0.45009  0.16377  0.86185  1.0000
  S   S79       1.0  0.31925  0.90271  0.57556  1.0000
  Fe  Fe40      1.0  0.27532  0.91614  0.60686  1.0000
  C   C193      1.0  0.45923  0.93046  0.22470  1.0000
  H   H310      1.0  0.25301  0.97133  0.34694  1.0000
  C   C194      1.0  0.32914  0.88130  0.43894  1.0000
  C   C195      1.0  0.31367  0.88538  0.51956  1.0000
  C   C196      1.0  0.30407  0.86025  0.42869  1.0000
  S   S80       1.0  0.29731  0.84650  0.37130  1.0000
  C   C197      1.0  0.28847  0.86448  0.50933  1.0000
  C   C198      1.0  0.28393  0.85138  0.46403  1.0000
  H   H311      1.0  0.40022  0.71557  0.34848  1.0000
  H   H312      1.0  0.26192  0.91749  0.24278  1.0000
  S   S81       1.0  0.32161  0.94141  0.33337  1.0000
  S   S82       1.0  0.29123  0.98559  0.22660  1.0000
  Fe  Fe41      1.0  0.32095  0.94278  0.25565  1.0000
  N   N20       1.0  0.48092  0.94527  0.25852  1.0000
  H   H313      1.0  0.40873  0.05940  0.24459  1.0000
  H   H314      1.0  0.27822  0.94025  0.41521  1.0000
  H   H315      1.0  0.26449  0.83513  0.45625  1.0000
  H   H316      1.0  0.27262  0.85814  0.53644  1.0000
  S   S83       1.0  0.48633  0.15084  0.16247  1.0000
  H   H317      1.0  0.33428  0.77568  0.36224  1.0000
  S   S84       1.0  0.40016  0.85687  0.19944  1.0000
  S   S85       1.0  0.43640  0.08505  0.15407  1.0000
  H   H318      1.0  0.35604  0.81503  0.37433  1.0000
  H   H319      1.0  0.40960  0.77935  0.41599  1.0000
  H   H320      1.0  0.46391  0.75154  0.21734  1.0000
  H   H321      1.0  0.38196  0.80504  0.29835  1.0000
  S   S86       1.0  0.37443  0.88093  0.32465  1.0000
  H   H322      1.0  0.36125  0.76444  0.28884  1.0000
  N   N21       1.0  0.38168  0.76839  0.35662  1.0000
  H   H323      1.0  0.35357  0.90973  0.49223  1.0000
  C   C199      1.0  0.46604  0.78598  0.27758  1.0000
  C   C200      1.0  0.45676  0.77662  0.23268  1.0000
  C   C201      1.0  0.43729  0.79920  0.20807  1.0000
  C   C202      1.0  0.42694  0.83093  0.22848  1.0000
  C   C203      1.0  0.43734  0.84101  0.27254  1.0000
  C   C204      1.0  0.45691  0.81861  0.29703  1.0000
  H   H324      1.0  0.41092  0.81307  0.37108  1.0000
  H   H325      1.0  0.42951  0.79147  0.17378  1.0000
  H   H326      1.0  0.43027  0.86599  0.28782  1.0000
  H   H327      1.0  0.46451  0.82623  0.33146  1.0000
  H   H328      1.0  0.42934  0.77073  0.36295  1.0000
  Fe  Fe42      1.0  0.32467  0.88174  0.32460  1.0000
  H   H329      1.0  0.35425  0.77950  0.41635  1.0000
  C   C205      1.0  0.38152  0.77565  0.30593  1.0000
  H   H330      1.0  0.34472  0.88849  0.41196  1.0000
  C   C206      1.0  0.40908  0.78355  0.37759  1.0000
  H   H331      1.0  0.45084  0.87459  0.42897  1.0000
  C   C207      1.0  0.35546  0.78524  0.37832  1.0000
  Fe  Fe43      1.0  0.36983  0.88689  0.24749  1.0000
  C   C208      1.0  0.38074  0.72905  0.36466  1.0000
  H   H332      1.0  0.40123  0.76371  0.28853  1.0000
  H   H333      1.0  0.36025  0.71677  0.34949  1.0000
  C   C209      1.0  0.45258  0.90277  0.41954  1.0000
  S   S87       1.0  0.31986  0.88264  0.24687  1.0000
  C   C210      1.0  0.33418  0.89336  0.48445  1.0000
  H   H334      1.0  0.38105  0.72252  0.40254  1.0000
  H   H335      1.0  0.44463  0.66402  0.15498  1.0000
  H   H336      1.0  0.45864  0.00392  0.38615  1.0000
  Fe  Fe44      1.0  0.45190  0.12457  0.20769  1.0000
  S   S88       1.0  0.45856  0.10936  0.28230  1.0000
  H   H337      1.0  0.31629  0.05048  0.27752  1.0000
  H   H338      1.0  0.37481  0.10979  0.22670  1.0000
  C   C211      1.0  0.25373  0.97431  0.23567  1.0000
  S   S89       1.0  0.40007  0.97988  0.36371  1.0000
  H   H339      1.0  0.35475  0.01382  0.20748  1.0000
  C   C212      1.0  0.48186  0.95720  0.41143  1.0000
  H   H340      1.0  0.46810  0.00058  0.24846  1.0000
  H   H341      1.0  0.25557  0.91912  0.45875  1.0000
  H   H342      1.0  0.48529  0.99115  0.30349  1.0000
  H   H343      1.0  0.39430  0.01877  0.27036  1.0000
  H   H344      1.0  0.37148  0.05289  0.18127  1.0000
  C   C213      1.0  0.42747  0.92123  0.40318  1.0000
  H   H345      1.0  0.36380  0.11048  0.28685  1.0000
  C   C214      1.0  0.35484  0.04370  0.20739  1.0000
  H   H346      1.0  0.34353  0.05473  0.32359  1.0000
  H   H347      1.0  0.39706  0.05895  0.30422  1.0000
  H   H348      1.0  0.49167  0.97660  0.59032  1.0000
  H   H349      1.0  0.33626  0.10670  0.24124  1.0000
  H   H350      1.0  0.44772  0.97695  0.29299  1.0000
  C   C215      1.0  0.45680  0.97573  0.39565  1.0000
  C   C216      1.0  0.42978  0.95755  0.39032  1.0000
  S   S90       1.0  0.48193  0.66523  0.23440  1.0000
  Fe  Fe45      1.0  0.37088  0.94099  0.32579  1.0000
  S   S91       1.0  0.37041  0.94702  0.24845  1.0000
  H   H351      1.0  0.40630  0.90751  0.40117  1.0000
  C   C217      1.0  0.48968  0.08119  0.28548  1.0000
  H   H352      1.0  0.33251  0.05210  0.19452  1.0000
  C   C218      1.0  0.35891  0.09819  0.25236  1.0000
  C   C219      1.0  0.39165  0.04848  0.26883  1.0000
  H   H353      1.0  0.34090  0.01413  0.29036  1.0000
  N   N22       1.0  0.36125  0.05854  0.25414  1.0000
  C   C220      1.0  0.33952  0.04398  0.28797  1.0000
  C   C221      1.0  0.48001  0.92062  0.42282  1.0000
  H   H354      1.0  0.29181  0.01593  0.62042  1.0000
  S   S92       1.0  0.48739  0.75626  0.31105  1.0000
  H   H355      1.0  0.48799  0.07509  0.36011  1.0000
  H   H356      1.0  0.49206  0.89278  0.28521  1.0000
  H   H357      1.0  0.25479  0.90554  0.35121  1.0000
  H   H358      1.0  0.43714  0.92566  0.24112  1.0000
  H   H359      1.0  0.46662  0.90411  0.21045  1.0000
  H   H360      1.0  0.25570  0.96712  0.45327  1.0000
  H   H361      1.0  0.46336  0.91555  0.31675  1.0000
  C   C222      1.0  0.46998  0.97999  0.27656  1.0000
  H   H362      1.0  0.45583  0.94910  0.19475  1.0000
  C   C223      1.0  0.48460  0.91962  0.29758  1.0000
  C   C224      1.0  0.25632  0.94161  0.43304  1.0000
  C   C225      1.0  0.24538  0.93842  0.24310  1.0000
  Fe  Fe46      1.0  0.40422  0.12799  0.13363  1.0000
  H   H363      1.0  0.27271  0.05049  0.85065  1.0000
  H   H364      1.0  0.47160  0.01132  0.94827  1.0000
  H   H365      1.0  0.24659  0.07590  0.78150  1.0000
  C   C226      1.0  0.28104  0.01838  0.76770  1.0000
  H   H366      1.0  0.43215  0.11578  0.94324  1.0000
  H   H367      1.0  0.48345  0.69171  0.00376  1.0000
  C   C227      1.0  0.26646  0.05783  0.65332  1.0000
  S   S93       1.0  0.33567  0.16119  0.90050  1.0000
  S   S94       1.0  0.27127  0.94778  0.67294  1.0000
  H   H368      1.0  0.25525  0.74803  0.78909  1.0000
  N   N23       1.0  0.25328  0.01944  0.79510  1.0000
  H   H369      1.0  0.24747  0.10302  0.68912  1.0000
  H   H370      1.0  0.41077  0.04322  0.97895  1.0000
  C   C228      1.0  0.29527  0.10272  0.69509  1.0000
  S   S95       1.0  0.35567  0.09989  0.70620  1.0000
  C   C229      1.0  0.32153  0.08487  0.68365  1.0000
  Fe  Fe47      1.0  0.37776  0.16047  0.85910  1.0000
  C   C230      1.0  0.41858  0.04516  0.94221  1.0000
  C   C231      1.0  0.44621  0.14651  0.81898  1.0000
  Fe  Fe48      1.0  0.33097  0.10415  0.87648  1.0000
  C   C232      1.0  0.26779  0.08954  0.67942  1.0000
  H   H371      1.0  0.29612  0.12661  0.71624  1.0000
  H   H372      1.0  0.29394  0.04395  0.77073  1.0000
  H   H373      1.0  0.41818  0.01754  0.92728  1.0000
  C   C233      1.0  0.32031  0.05414  0.65561  1.0000
  N   N24       1.0  0.25302  0.74465  0.86385  1.0000
  C   C234      1.0  0.29273  0.04035  0.64088  1.0000
  S   S96       1.0  0.30499  0.11808  0.81259  1.0000
  C   C235      1.0  0.28435  0.75547  0.87143  1.0000
  H   H374      1.0  0.45796  0.03834  0.87242  1.0000
  H   H375      1.0  0.36704  0.10339  0.95650  1.0000
  H   H376      1.0  0.29261  0.04782  0.01761  1.0000
  H   H377      1.0  0.29573  0.99604  0.77924  1.0000
  H   H378      1.0  0.27627  0.01420  0.73013  1.0000
  H   H379      1.0  0.48266  0.68185  0.89956  1.0000
  H   H380      1.0  0.44186  0.08239  0.87030  1.0000
  H   H381      1.0  0.30784  0.06978  0.09565  1.0000
  H   H382      1.0  0.38333  0.12333  0.03474  1.0000
  H   H383      1.0  0.28756  0.76790  0.90633  1.0000
  H   H384      1.0  0.44193  0.09604  0.99845  1.0000
  S   S97       1.0  0.31643  0.06141  0.92638  1.0000
  C   C236      1.0  0.32107  0.07667  0.06543  1.0000
  C   C237      1.0  0.31247  0.06421  0.02132  1.0000
  H   H385      1.0  0.25356  0.15026  0.85558  1.0000
  C   C238      1.0  0.26062  0.02461  0.84487  1.0000
  C   C239      1.0  0.45750  0.06496  0.89006  1.0000
  C   C240      1.0  0.32882  0.07414  0.98192  1.0000
  C   C241      1.0  0.47039  0.12988  0.79730  1.0000
  C   C242      1.0  0.35443  0.09549  0.98687  1.0000
  H   H386      1.0  0.27517  0.00274  0.85834  1.0000
  H   H387      1.0  0.40195  0.06135  0.92265  1.0000
  H   H388      1.0  0.29182  0.77537  0.84473  1.0000
  C   C243      1.0  0.47013  0.03849  0.96424  1.0000
  Fe  Fe49      1.0  0.46768  0.11488  0.10690  1.0000
  H   H389      1.0  0.49286  0.05069  0.96386  1.0000
  H   H390      1.0  0.46738  0.11663  0.76406  1.0000
  H   H391      1.0  0.29945  0.73179  0.86936  1.0000
  S   S98       1.0  0.35594  0.11518  0.12541  1.0000
  H   H392      1.0  0.26531  0.70522  0.81292  1.0000
  S   S99       1.0  0.37474  0.10207  0.84014  1.0000
  Fe  Fe50      1.0  0.34937  0.12196  0.77788  1.0000
  N   N25       1.0  0.44858  0.06155  0.93939  1.0000
  H   H393      1.0  0.48493  0.72794  0.96235  1.0000
  S   S100      1.0  0.43393  0.15427  0.08093  1.0000
  C   C244      1.0  0.34662  0.09803  0.07040  1.0000
  C   C245      1.0  0.36366  0.10681  0.03120  1.0000
  H   H394      1.0  0.42461  0.14601  0.80236  1.0000
  C   C246      1.0  0.44821  0.09764  0.96103  1.0000
  H   H395      1.0  0.34058  0.04026  0.64658  1.0000
  C   C247      1.0  0.24995  0.72830  0.81718  1.0000
  H   H396      1.0  0.46386  0.03486  0.00147  1.0000
  H   H397      1.0  0.25035  0.96158  0.80032  1.0000
  H   H398      1.0  0.25152  0.83247  0.70896  1.0000
  H   H399      1.0  0.48012  0.07712  0.88679  1.0000
  H   H400      1.0  0.47053  0.11082  0.95944  1.0000
  H   H401      1.0  0.25901  0.69437  0.89979  1.0000
  Fe  Fe51      1.0  0.58904  0.35495  0.29634  1.0000
  C   C248      1.0  0.64889  0.27634  0.46351  1.0000
  S   S101      1.0  0.70899  0.39419  0.57612  1.0000
  C   C249      1.0  0.60486  0.52816  0.16161  1.0000
  H   H402      1.0  0.70280  0.32123  0.52349  1.0000
  S   S102      1.0  0.60674  0.33297  0.36356  1.0000
  S   S103      1.0  0.63320  0.37521  0.27036  1.0000
  H   H403      1.0  0.51091  0.47031  0.33891  1.0000
  H   H404      1.0  0.62422  0.27756  0.46073  1.0000
  Fe  Fe52      1.0  0.59733  0.38734  0.39311  1.0000
  C   C250      1.0  0.72371  0.42683  0.37910  1.0000
  H   H405      1.0  0.72277  0.45094  0.35600  1.0000
  Fe  Fe53      1.0  0.64995  0.35768  0.34072  1.0000
  C   C251      1.0  0.53139  0.28951  0.13825  1.0000
  C   C252      1.0  0.52779  0.35588  0.24007  1.0000
  H   H406      1.0  0.55883  0.39932  0.22814  1.0000
  C   C253      1.0  0.53564  0.39174  0.23125  1.0000
  H   H407      1.0  0.65799  0.28100  0.42790  1.0000
  H   H408      1.0  0.65501  0.24849  0.47414  1.0000
  H   H409      1.0  0.61886  0.51185  0.18570  1.0000
  S   S104      1.0  0.55549  0.32451  0.25311  1.0000
  H   H410      1.0  0.74171  0.36351  0.40824  1.0000
  N   N26       1.0  0.66049  0.30327  0.49686  1.0000
  S   S105      1.0  0.57344  0.39211  0.46150  1.0000
  H   H411      1.0  0.70330  0.30664  0.46373  1.0000
  C   C254      1.0  0.69331  0.30129  0.49858  1.0000
  H   H412      1.0  0.70088  0.27424  0.51037  1.0000
  H   H413      1.0  0.65550  0.26929  0.55732  1.0000
  C   C255      1.0  0.51078  0.43853  0.42249  1.0000
  C   C256      1.0  0.57559  0.25863  0.16392  1.0000
  S   S106      1.0  0.57526  0.40724  0.32839  1.0000
  C   C257      1.0  0.65150  0.33969  0.48180  1.0000
  H   H414      1.0  0.63451  0.41756  0.46895  1.0000
  H   H415      1.0  0.66013  0.34628  0.44654  1.0000
  H   H416      1.0  0.51088  0.46298  0.44482  1.0000
  H   H417      1.0  0.51153  0.56858  0.18339  1.0000
  C   C258      1.0  0.64823  0.29595  0.54367  1.0000
  C   C259      1.0  0.51361  0.41807  0.22765  1.0000
  H   H418      1.0  0.60614  0.59279  0.20514  1.0000
  S   S107      1.0  0.69049  0.32756  0.36396  1.0000
  Fe  Fe54      1.0  0.51911  0.63132  0.26188  1.0000
  H   H419      1.0  0.58394  0.53457  0.18043  1.0000
  C   C260      1.0  0.62607  0.44076  0.58238  1.0000
  S   S108      1.0  0.62823  0.48232  0.27871  1.0000
  H   H420      1.0  0.56612  0.25437  0.19936  1.0000
  S   S109      1.0  0.64663  0.45654  0.63019  1.0000
  S   S110      1.0  0.70963  0.29653  0.62557  1.0000
  N   N27       1.0  0.62057  0.56130  0.14663  1.0000
  H   H421      1.0  0.55648  0.41116  0.55429  1.0000
  C   C261      1.0  0.59559  0.50807  0.28001  1.0000
  C   C262      1.0  0.56791  0.49183  0.27215  1.0000
  C   C263      1.0  0.54191  0.51244  0.27337  1.0000
  C   C264      1.0  0.54352  0.54944  0.28190  1.0000
  C   C265      1.0  0.57126  0.56608  0.28791  1.0000
  C   C266      1.0  0.59727  0.54533  0.28728  1.0000
  H   H422      1.0  0.56659  0.46348  0.26432  1.0000
  H   H423      1.0  0.52053  0.49982  0.26737  1.0000
  H   H424      1.0  0.57263  0.59475  0.29442  1.0000
  H   H425      1.0  0.61862  0.55807  0.29346  1.0000
  H   H426      1.0  0.70986  0.43236  0.41034  1.0000
  H   H427      1.0  0.71293  0.40416  0.35991  1.0000
  S   S111      1.0  0.51064  0.57444  0.28451  1.0000
  H   H428      1.0  0.51987  0.44582  0.22181  1.0000
  H   H429      1.0  0.66363  0.53650  0.14793  1.0000
  H   H430      1.0  0.63946  0.60871  0.17791  1.0000
  Fe  Fe55      1.0  0.62055  0.42636  0.30705  1.0000
  H   H431      1.0  0.64052  0.56931  0.21400  1.0000
  H   H432      1.0  0.54322  0.31594  0.13914  1.0000
  S   S112      1.0  0.54848  0.63848  0.19990  1.0000
  C   C267      1.0  0.57971  0.41812  0.54994  1.0000
  S   S113      1.0  0.64175  0.41083  0.37487  1.0000
  H   H433      1.0  0.53278  0.43747  0.40482  1.0000
  H   H434      1.0  0.50802  0.40407  0.33998  1.0000
  C   C268      1.0  0.59581  0.43274  0.58738  1.0000
  C   C269      1.0  0.63995  0.43528  0.53950  1.0000
  C   C270      1.0  0.49778  0.34600  0.24258  1.0000
  C   C271      1.0  0.72110  0.32533  0.32641  1.0000
  C   C272      1.0  0.62365  0.42149  0.50179  1.0000
  C   C273      1.0  0.62692  0.58399  0.18771  1.0000
  H   H435      1.0  0.66315  0.44229  0.53515  1.0000
  C   C274      1.0  0.59365  0.41225  0.50712  1.0000
  C   C275      1.0  0.72049  0.34030  0.28160  1.0000
  H   H436      1.0  0.65587  0.31664  0.56904  1.0000
  H   H437      1.0  0.66007  0.36060  0.50614  1.0000
  H   H438      1.0  0.62683  0.34226  0.48041  1.0000
  H   H439      1.0  0.62349  0.29634  0.54353  1.0000
  H   H440      1.0  0.70027  0.35213  0.26828  1.0000
  H   H441      1.0  0.52056  0.28584  0.17281  1.0000
  H   H442      1.0  0.58498  0.43701  0.62050  1.0000
  H   H443      1.0  0.59168  0.23659  0.15721  1.0000
  H   H444      1.0  0.58829  0.28449  0.16516  1.0000
  H   H445      1.0  0.70487  0.66041  0.16808  1.0000
  H   H446      1.0  0.52482  0.22013  0.16291  1.0000
  H   H447      1.0  0.51104  0.50292  0.17587  1.0000
  H   H448      1.0  0.50938  0.41461  0.44592  1.0000
  H   H449      1.0  0.74453  0.39244  0.45787  1.0000
  N   N28       1.0  0.55197  0.25964  0.12803  1.0000
  S   S114      1.0  0.67466  0.65080  0.94090  1.0000
  H   H450      1.0  0.69712  0.28552  0.81555  1.0000
  S   S115      1.0  0.63878  0.19657  0.85398  1.0000
  S   S116      1.0  0.68651  0.64397  0.07449  1.0000
  H   H451      1.0  0.53842  0.25861  0.79694  1.0000
  Fe  Fe56      1.0  0.60616  0.20794  0.79659  1.0000
  H   H452      1.0  0.51717  0.22516  0.10203  1.0000
  H   H453      1.0  0.51413  0.57874  0.84683  1.0000
  C   C276      1.0  0.63282  0.30246  0.69735  1.0000
  S   S117      1.0  0.60130  0.25950  0.75628  1.0000
  H   H454      1.0  0.61648  0.32283  0.70519  1.0000
  H   H455      1.0  0.66126  0.57621  0.11222  1.0000
  C   C277      1.0  0.67813  0.28480  0.65828  1.0000
  H   H456      1.0  0.69580  0.29984  0.75572  1.0000
  H   H457      1.0  0.57889  0.29048  0.08032  1.0000
  C   C278      1.0  0.63039  0.26819  0.71737  1.0000
  C   C279      1.0  0.53778  0.17863  0.01839  1.0000
  H   H458      1.0  0.64214  0.45538  0.78758  1.0000
  H   H459      1.0  0.72257  0.19762  0.71967  1.0000
  C   C280      1.0  0.70721  0.28145  0.78063  1.0000
  C   C281      1.0  0.51677  0.26642  0.71044  1.0000
  H   H460      1.0  0.53432  0.20720  0.02229  1.0000
  Fe  Fe57      1.0  0.65822  0.63378  0.01107  1.0000
  C   C282      1.0  0.50332  0.56180  0.97903  1.0000
  Fe  Fe58      1.0  0.74166  0.41431  0.69870  1.0000
  H   H461      1.0  0.55005  0.20194  0.12056  1.0000
  H   H462      1.0  0.61316  0.60594  0.10030  1.0000
  C   C283      1.0  0.65123  0.24171  0.70645  1.0000
  H   H463      1.0  0.59619  0.56464  0.08234  1.0000
  H   H464      1.0  0.64917  0.21502  0.72137  1.0000
  H   H465      1.0  0.73707  0.33045  0.83211  1.0000
  Fe  Fe59      1.0  0.69085  0.42932  0.63251  1.0000
  Fe  Fe60      1.0  0.66085  0.59533  0.91842  1.0000
  S   S118      1.0  0.61448  0.61050  0.89743  1.0000
  C   C284      1.0  0.56548  0.26520  0.08162  1.0000
  H   H466      1.0  0.51327  0.29122  0.11183  1.0000
  H   H467      1.0  0.58042  0.24250  0.07206  1.0000
  N   N29       1.0  0.66200  0.50346  0.75904  1.0000
  H   H468      1.0  0.64008  0.51663  0.82330  1.0000
  H   H469      1.0  0.68147  0.50294  0.69080  1.0000
  C   C285      1.0  0.53579  0.57358  0.91364  1.0000
  H   H470      1.0  0.70351  0.52342  0.78600  1.0000
  S   S119      1.0  0.73376  0.45828  0.64661  1.0000
  Fe  Fe61      1.0  0.60302  0.59686  0.97158  1.0000
  H   H471      1.0  0.50589  0.50641  0.11379  1.0000
  C   C286      1.0  0.64885  0.55168  0.12380  1.0000
  H   H472      1.0  0.55777  0.57742  0.89957  1.0000
  S   S120      1.0  0.69033  0.56007  0.87539  1.0000
  C   C287      1.0  0.60173  0.58130  0.11333  1.0000
  C   C288      1.0  0.64658  0.46846  0.75334  1.0000
  S   S121      1.0  0.56238  0.56864  0.99972  1.0000
  C   C289      1.0  0.53193  0.56767  0.96135  1.0000
  H   H473      1.0  0.67777  0.54703  0.71589  1.0000
  C   C290      1.0  0.66700  0.52006  0.71283  1.0000
  S   S122      1.0  0.64844  0.57688  0.99022  1.0000
  H   H474      1.0  0.66005  0.44950  0.73225  1.0000
  H   H475      1.0  0.70513  0.47866  0.76254  1.0000
  H   H476      1.0  0.74367  0.64594  0.98534  1.0000
  H   H477      1.0  0.68807  0.48645  0.81807  1.0000
  H   H478      1.0  0.64569  0.52354  0.69347  1.0000
  C   C291      1.0  0.51108  0.57405  0.88375  1.0000
  C   C292      1.0  0.69095  0.49771  0.78233  1.0000
  C   C293      1.0  0.51465  0.25076  0.79198  1.0000
  C   C294      1.0  0.52768  0.20577  0.73502  1.0000
  C   C295      1.0  0.64351  0.52766  0.78756  1.0000
  H   H479      1.0  0.62494  0.47161  0.73484  1.0000
  C   C296      1.0  0.53534  0.22517  0.12845  1.0000
  C   C297      1.0  0.67493  0.24993  0.67634  1.0000
  C   C298      1.0  0.72658  0.17699  0.74541  1.0000
  S   S123      1.0  0.61175  0.65246  0.99819  1.0000
  H   H480      1.0  0.65420  0.55463  0.79170  1.0000
  Fe  Fe62      1.0  0.59904  0.17867  0.89551  1.0000
  C   C299      1.0  0.71832  0.58572  0.84881  1.0000
  H   H481      1.0  0.67998  0.16560  0.75641  1.0000
  H   H482      1.0  0.69379  0.63522  0.84978  1.0000
  C   C300      1.0  0.65668  0.31076  0.66797  1.0000
  H   H483      1.0  0.51301  0.25744  0.67394  1.0000
  H   H484      1.0  0.69115  0.22958  0.66804  1.0000
  S   S124      1.0  0.69710  0.38868  0.68926  1.0000
  H   H485      1.0  0.62123  0.53189  0.77154  1.0000
  S   S125      1.0  0.56679  0.19532  0.84071  1.0000
  C   C301      1.0  0.71474  0.62273  0.84190  1.0000
  H   H486      1.0  0.65821  0.33725  0.65252  1.0000
  H   H487      1.0  0.55181  0.21228  0.73793  1.0000
  S   S126      1.0  0.58674  0.19742  0.96734  1.0000
  H   H488      1.0  0.70188  0.25332  0.76987  1.0000
  H   H489      1.0  0.50025  0.55722  0.01590  1.0000
  N   N30       1.0  0.73968  0.28799  0.78137  1.0000
  H   H490      1.0  0.52293  0.18383  0.76032  1.0000
  H   H491      1.0  0.54068  0.27437  0.71359  1.0000
  H   H492      1.0  0.54821  0.26697  0.05385  1.0000
  H   H493      1.0  0.50330  0.29102  0.71630  1.0000
  C   C302      1.0  0.53594  0.66211  0.97975  1.0000
  N   N31       1.0  0.50910  0.23766  0.74414  1.0000
  H   H494      1.0  0.52245  0.64334  0.00137  1.0000
  H   H495      1.0  0.55052  0.64534  0.95744  1.0000
  H   H496      1.0  0.50644  0.57408  0.12149  1.0000
  H   H497      1.0  0.52374  0.19467  0.69959  1.0000
  H   H498      1.0  0.50096  0.27477  0.80008  1.0000
  H   H499      1.0  0.64491  0.53473  0.09243  1.0000
  Fe  Fe63      1.0  0.71883  0.35564  0.63403  1.0000
  H   H500      1.0  0.73979  0.61422  0.93848  1.0000
  C   C303      1.0  0.73837  0.64376  0.82504  1.0000
  H   H501      1.0  0.73654  0.59940  0.99782  1.0000
  H   H502      1.0  0.50920  0.22965  0.81840  1.0000
  H   H503      1.0  0.51093  0.64816  0.89599  1.0000
  H   H504      1.0  0.73523  0.34537  0.77268  1.0000
  H   H505      1.0  0.49919  0.16365  0.05840  1.0000
  H   H506      1.0  0.74267  0.30254  0.70904  1.0000
  H   H507      1.0  0.59902  0.51077  0.13139  1.0000
  H   H508      1.0  0.58044  0.58980  0.12942  1.0000
  C   C304      1.0  0.74497  0.56933  0.83615  1.0000
  C   C305      1.0  0.56181  0.16635  0.99213  1.0000
  C   C306      1.0  0.54604  0.97454  0.55210  1.0000
  Fe  Fe64      1.0  0.56648  0.68656  0.23771  1.0000
  H   H509      1.0  0.59332  0.83609  0.39430  1.0000
  H   H510      1.0  0.59127  0.81346  0.26800  1.0000
  S   S127      1.0  0.61484  0.69901  0.24851  1.0000
  H   H511      1.0  0.67740  0.93631  0.43949  1.0000
  H   H512      1.0  0.53630  0.79743  0.36278  1.0000
  C   C307      1.0  0.59961  0.81878  0.30388  1.0000
  N   N32       1.0  0.58166  0.79945  0.33920  1.0000
  H   H513      1.0  0.54054  0.80676  0.30197  1.0000
  H   H514      1.0  0.59782  0.68987  0.15283  1.0000
  S   S128      1.0  0.53397  0.72481  0.20561  1.0000
  Fe  Fe65      1.0  0.50626  0.71135  0.26821  1.0000
  C   C308      1.0  0.55051  0.81185  0.33692  1.0000
  H   H515      1.0  0.59936  0.84842  0.30971  1.0000
  H   H516      1.0  0.56920  0.74476  0.35562  1.0000
  H   H517      1.0  0.57363  0.75388  0.29467  1.0000
  H   H518      1.0  0.56385  0.96231  0.53065  1.0000
  H   H519      1.0  0.61765  0.79845  0.38872  1.0000
  C   C309      1.0  0.58262  0.76032  0.32989  1.0000
  H   H520      1.0  0.62333  0.81034  0.30523  1.0000
  C   C310      1.0  0.59395  0.80679  0.38607  1.0000
  H   H521      1.0  0.58125  0.79227  0.41362  1.0000
  H   H522      1.0  0.54881  0.84118  0.34431  1.0000
  H   H523      1.0  0.60579  0.74991  0.33114  1.0000
  C   C311      1.0  0.49968  0.06814  0.32852  1.0000
  C   C312      1.0  0.70619  0.94907  0.31533  1.0000
  N   N33       1.0  0.71213  0.96246  0.47897  1.0000
  S   S129      1.0  0.65085  0.87447  0.37025  1.0000
  S   S130      1.0  0.51195  0.89673  0.43934  1.0000
  C   C313      1.0  0.62318  0.98757  0.57020  1.0000
  Fe  Fe66      1.0  0.60362  0.97563  0.45743  1.0000
  S   S131      1.0  0.62743  0.97545  0.38901  1.0000
  Fe  Fe67      1.0  0.58204  0.98046  0.35710  1.0000
  S   S132      1.0  0.57265  0.01115  0.29135  1.0000
  H   H524      1.0  0.63524  0.93748  0.53795  1.0000
  S   S133      1.0  0.55923  0.98679  0.42563  1.0000
  Fe  Fe68      1.0  0.51265  0.67536  0.17433  1.0000
  H   H525      1.0  0.52685  0.96168  0.26031  1.0000
  C   C314      1.0  0.63209  0.95157  0.57037  1.0000
  H   H526      1.0  0.74420  0.95163  0.42555  1.0000
  H   H527      1.0  0.68052  0.98538  0.52603  1.0000
  H   H528      1.0  0.72083  0.94344  0.54850  1.0000
  S   S134      1.0  0.61696  0.01055  0.51771  1.0000
  C   C315      1.0  0.54062  0.03791  0.29013  1.0000
  C   C316      1.0  0.53027  0.05056  0.24713  1.0000
  H   H529      1.0  0.67595  0.99895  0.46650  1.0000
  C   C317      1.0  0.50967  0.96536  0.61268  1.0000
  C   C318      1.0  0.52516  0.04648  0.33084  1.0000
  H   H530      1.0  0.54214  0.04402  0.21553  1.0000
  H   H531      1.0  0.67672  0.68220  0.23676  1.0000
  H   H532      1.0  0.53309  0.03710  0.36416  1.0000
  Fe  Fe69      1.0  0.55414  0.92679  0.42309  1.0000
  Fe  Fe70      1.0  0.71355  0.85838  0.61931  1.0000
  H   H533      1.0  0.50251  0.97141  0.41415  1.0000
  H   H534      1.0  0.50908  0.89734  0.58024  1.0000
  C   C319      1.0  0.66571  0.67949  0.20338  1.0000
  H   H535      1.0  0.50168  0.92806  0.53321  1.0000
  C   C320      1.0  0.63534  0.68699  0.19936  1.0000
  Fe  Fe71      1.0  0.61726  0.91616  0.38971  1.0000
  C   C321      1.0  0.61940  0.00571  0.61240  1.0000
  H   H536      1.0  0.70740  0.90761  0.45612  1.0000
  C   C322      1.0  0.63782  0.93395  0.61269  1.0000
  C   C323      1.0  0.50991  0.95105  0.23542  1.0000
  S   S135      1.0  0.59679  0.91579  0.46089  1.0000
  C   C324      1.0  0.73424  0.93622  0.32794  1.0000
  C   C325      1.0  0.55623  0.93332  0.61529  1.0000
  H   H537      1.0  0.65898  0.93949  0.31685  1.0000
  H   H538      1.0  0.70583  0.01731  0.50079  1.0000
  S   S136      1.0  0.57389  0.92101  0.35221  1.0000
  S   S137      1.0  0.54021  0.67606  0.30242  1.0000
  H   H539      1.0  0.51873  0.92556  0.22077  1.0000
  H   H540      1.0  0.53622  0.90436  0.53529  1.0000
  C   C326      1.0  0.69360  0.93057  0.46781  1.0000
  H   H541      1.0  0.52915  0.98570  0.52769  1.0000
  N   N34       1.0  0.53282  0.94782  0.58436  1.0000
  C   C327      1.0  0.50479  0.07198  0.24476  1.0000
  H   H542      1.0  0.64518  0.90629  0.61259  1.0000
  H   H543      1.0  0.68093  0.92091  0.49871  1.0000
  H   H544      1.0  0.71287  0.85686  0.37812  1.0000
  C   C328      1.0  0.62118  0.68355  0.15628  1.0000
  C   C329      1.0  0.51935  0.91810  0.55722  1.0000
  C   C330      1.0  0.71107  0.88248  0.36028  1.0000
  S   S138      1.0  0.71781  0.86104  0.54181  1.0000
  H   H545      1.0  0.55635  0.99755  0.57119  1.0000
  C   C331      1.0  0.68295  0.89637  0.34994  1.0000
  C   C332      1.0  0.68059  0.92924  0.32644  1.0000
  H   H546      1.0  0.70415  0.97488  0.29796  1.0000
  H   H547      1.0  0.74173  0.91645  0.22762  1.0000
  C   C333      1.0  0.69281  0.99235  0.49367  1.0000
  H   H548      1.0  0.50824  0.97099  0.20648  1.0000
  H   H549      1.0  0.74034  0.85819  0.44960  1.0000
  H   H550      1.0  0.57410  0.91996  0.59500  1.0000
  H   H551      1.0  0.49715  0.08163  0.21132  1.0000
  C   C334      1.0  0.73676  0.90264  0.34987  1.0000
  C   C335      1.0  0.72914  0.97347  0.43726  1.0000
  C   C336      1.0  0.73295  0.95341  0.51712  1.0000
  H   H552      1.0  0.61257  0.03362  0.61237  1.0000
  H   H553      1.0  0.50136  0.92954  0.32323  1.0000
  H   H554      1.0  0.74212  0.86955  0.21187  1.0000
  C   C337      1.0  0.68162  0.66723  0.16455  1.0000
  H   H555      1.0  0.71408  0.98001  0.40760  1.0000
  H   H556      1.0  0.74317  0.99768  0.44404  1.0000
  H   H557      1.0  0.71355  0.97383  0.80929  1.0000
  H   H558      1.0  0.62621  0.67023  0.08451  1.0000
  C   C338      1.0  0.71375  0.97204  0.77062  1.0000
  H   H559      1.0  0.73569  0.67256  0.82108  1.0000
  C   C339      1.0  0.49878  0.70862  0.98244  1.0000
  C   C340      1.0  0.63585  0.72765  0.84648  1.0000
  C   C341      1.0  0.49848  0.13073  0.81832  1.0000
  C   C342      1.0  0.65497  0.77107  0.79023  1.0000
  S   S139      1.0  0.61306  0.71712  0.89417  1.0000
  C   C343      1.0  0.65373  0.70107  0.82694  1.0000
  C   C344      1.0  0.63634  0.76263  0.82799  1.0000
  H   H560      1.0  0.62245  0.78323  0.84302  1.0000
  H   H561      1.0  0.73577  0.96118  0.76021  1.0000
  H   H562      1.0  0.68584  0.68866  0.77386  1.0000
  H   H563      1.0  0.66059  0.00159  0.75367  1.0000
  H   H564      1.0  0.55204  0.72602  0.94463  1.0000
  C   C345      1.0  0.53651  0.70980  0.92268  1.0000
  H   H565      1.0  0.65526  0.79807  0.77600  1.0000
  H   H566      1.0  0.72787  0.06043  0.74744  1.0000
  H   H567      1.0  0.54715  0.91304  0.64019  1.0000
  H   H568      1.0  0.67359  0.04737  0.74751  1.0000
  H   H569      1.0  0.58466  0.11964  0.96675  1.0000
  C   C346      1.0  0.63351  0.95190  0.65493  1.0000
  Fe  Fe72      1.0  0.63719  0.14004  0.82579  1.0000
  S   S140      1.0  0.60787  0.15302  0.76456  1.0000
  C   C347      1.0  0.62408  0.98772  0.65476  1.0000
  H   H570      1.0  0.62077  0.00172  0.68733  1.0000
  Fe  Fe73      1.0  0.57071  0.13937  0.81356  1.0000
  H   H571      1.0  0.73147  0.03720  0.80184  1.0000
  S   S141      1.0  0.52888  0.11159  0.78985  1.0000
  C   C348      1.0  0.52177  0.11694  0.03210  1.0000
  C   C349      1.0  0.67870  0.02074  0.76356  1.0000
  C   C350      1.0  0.54559  0.10465  0.00547  1.0000
  H   H572      1.0  0.54891  0.07605  0.00083  1.0000
  S   S142      1.0  0.59997  0.12111  0.87190  1.0000
  H   H573      1.0  0.52368  0.14752  0.87855  1.0000
  S   S143      1.0  0.64048  0.92999  0.70789  1.0000
  S   S144      1.0  0.71543  0.90940  0.66021  1.0000
  C   C351      1.0  0.56568  0.12934  0.98574  1.0000
  C   C352      1.0  0.73687  0.12191  0.80996  1.0000
  N   N35       1.0  0.70814  0.00749  0.74880  1.0000
  C   C353      1.0  0.70252  0.15877  0.76601  1.0000
  S   S145      1.0  0.49707  0.08594  0.05744  1.0000
  Fe  Fe74      1.0  0.67487  0.88783  0.69554  1.0000
  Fe  Fe75      1.0  0.69972  0.81243  0.70344  1.0000
  S   S146      1.0  0.69662  0.75406  0.72398  1.0000
  C   C354      1.0  0.63728  0.67221  0.11740  1.0000
  C   C355      1.0  0.73146  0.03340  0.76338  1.0000
  S   S147      1.0  0.69992  0.85955  0.75239  1.0000
  H   H574      1.0  0.69653  0.95186  0.76026  1.0000
  N   N36       1.0  0.51718  0.68628  0.95139  1.0000
  C   C356      1.0  0.51779  0.15397  0.03845  1.0000
  H   H575      1.0  0.52334  0.72879  0.90100  1.0000
  C   C357      1.0  0.67218  0.70940  0.78908  1.0000
  C   C358      1.0  0.67284  0.74438  0.77073  1.0000
  H   H576      1.0  0.51278  0.72430  0.00731  1.0000
  H   H577      1.0  0.67769  0.02452  0.80200  1.0000
  S   S148      1.0  0.67058  0.83904  0.65009  1.0000
  S   S149      1.0  0.67811  0.10601  0.82116  1.0000
  H   H578      1.0  0.73557  0.79679  0.78184  1.0000
  H   H579      1.0  0.69109  0.98457  0.68549  1.0000
  C   C359      1.0  0.70772  0.13078  0.79767  1.0000
  H   H580      1.0  0.55057  0.69374  0.89861  1.0000
  H   H581      1.0  0.55030  0.67761  0.00424  1.0000
  C   C360      1.0  0.50229  0.14789  0.86127  1.0000
  H   H582      1.0  0.74093  0.10094  0.83541  1.0000
  H   H583      1.0  0.65294  0.67396  0.84061  1.0000
  C   C361      1.0  0.49769  0.66458  0.92067  1.0000
  S   S150      1.0  0.49893  0.66771  0.09937  1.0000
  C   C362      1.0  0.70861  0.00375  0.69758  1.0000
  Fe  Fe76      1.0  0.74039  0.87712  0.71300  1.0000
  H   H584      1.0  0.73136  0.75862  0.81936  1.0000
  H   H585      1.0  0.70453  0.03003  0.68001  1.0000
  H   H586      1.0  0.73047  0.99350  0.68536  1.0000
  S   S151      1.0  0.74263  0.82776  0.66871  1.0000
  Fe  Fe77      1.0  0.62712  0.66469  0.92597  1.0000
  H   H587      1.0  0.49918  0.94596  0.63743  1.0000
  H   H588      1.0  0.56698  0.95504  0.63619  1.0000
  C   C363      1.0  0.66728  0.66307  0.12154  1.0000
  H   H589      1.0  0.51915  0.98796  0.63355  1.0000
  S   S152      1.0  0.99431  0.62537  0.26142  1.0000
  C   C364      1.0  0.98083  0.28577  0.22713  1.0000
  Fe  Fe78      1.0  0.89655  0.26711  0.30925  1.0000
  S   S153      1.0  0.89126  0.31372  0.26003  1.0000
  S   S154      1.0  0.92117  0.21830  0.28473  1.0000
  Fe  Fe79      1.0  0.86320  0.30427  0.38641  1.0000
  S   S155      1.0  0.85590  0.35452  0.34441  1.0000
  S   S156      1.0  0.84358  0.29605  0.45762  1.0000
  Fe  Fe80      1.0  0.84467  0.31634  0.28668  1.0000
  Fe  Fe81      1.0  0.90334  0.34730  0.32198  1.0000
  S   S157      1.0  0.84869  0.26624  0.33000  1.0000
  S   S158      1.0  0.91181  0.30046  0.36985  1.0000
  H   H590      1.0  0.79530  0.40249  0.35847  1.0000
  H   H591      1.0  0.98623  0.31414  0.22954  1.0000
  C   C365      1.0  0.76832  0.44896  0.41669  1.0000
  H   H592      1.0  0.96729  0.33212  0.34486  1.0000
  C   C366      1.0  0.77322  0.31088  0.31659  1.0000
  S   S159      1.0  0.80593  0.32805  0.23950  1.0000
  C   C367      1.0  0.98270  0.35036  0.32812  1.0000
  C   C368      1.0  0.82751  0.33528  0.47975  1.0000
  C   C369      1.0  0.80323  0.33233  0.50993  1.0000
  C   C370      1.0  0.79048  0.36327  0.52891  1.0000
  H   H593      1.0  0.92291  0.29025  0.16855  1.0000
  H   H594      1.0  0.85720  0.30300  0.55494  1.0000
  H   H595      1.0  0.97398  0.21494  0.62027  1.0000
  H   H596      1.0  0.79391  0.30613  0.51805  1.0000
  H   H597      1.0  0.77126  0.36070  0.55114  1.0000
  H   H598      1.0  0.87212  0.21157  0.15836  1.0000
  H   H599      1.0  0.75602  0.45558  0.44917  1.0000
  H   H600      1.0  0.99016  0.54066  0.40690  1.0000
  C   C371      1.0  0.96569  0.21270  0.22073  1.0000
  C   C372      1.0  0.95153  0.23464  0.25323  1.0000
  C   C373      1.0  0.95988  0.27079  0.25748  1.0000
  Fe  Fe82      1.0  0.75283  0.41903  0.59559  1.0000
  H   H601      1.0  0.94966  0.28753  0.28353  1.0000
  C   C374      1.0  0.89253  0.22836  0.16268  1.0000
  H   H602      1.0  0.91202  0.21007  0.16203  1.0000
  H   H603      1.0  0.87737  0.24596  0.52702  1.0000
  H   H604      1.0  0.76869  0.47350  0.39435  1.0000
  H   H605      1.0  0.82323  0.25083  0.53436  1.0000
  H   H606      1.0  0.79346  0.30005  0.33081  1.0000
  C   C375      1.0  0.85706  0.29237  0.59117  1.0000
  H   H607      1.0  0.87668  0.20670  0.56391  1.0000
  H   H608      1.0  0.95942  0.18464  0.21774  1.0000
  C   C376      1.0  0.77286  0.32575  0.27183  1.0000
  H   H609      1.0  0.78986  0.57589  0.61236  1.0000
  H   H610      1.0  0.89164  0.24040  0.19816  1.0000
  H   H611      1.0  0.98967  0.41190  0.18216  1.0000
  C   C377      1.0  0.80220  0.39730  0.51828  1.0000
  H   H612      1.0  0.74602  0.35179  0.21947  1.0000
  H   H613      1.0  0.76208  0.38702  0.33046  1.0000
  C   C378      1.0  0.83918  0.36930  0.46884  1.0000
  H   H614      1.0  0.98477  0.43009  0.26985  1.0000
  C   C379      1.0  0.98678  0.22768  0.19037  1.0000
  H   H615      1.0  0.99337  0.59258  0.17046  1.0000
  H   H616      1.0  0.79164  0.44307  0.42710  1.0000
  S   S160      1.0  0.78546  0.43601  0.54080  1.0000
  H   H617      1.0  0.87828  0.30119  0.60772  1.0000
  H   H618      1.0  0.77788  0.53056  0.62443  1.0000
  N   N37       1.0  0.85398  0.25270  0.59175  1.0000
  C   C380      1.0  0.99271  0.40572  0.28631  1.0000
  H   H619      1.0  0.77271  0.43338  0.32563  1.0000
  S   S161      1.0  0.93475  0.39403  0.31002  1.0000
  N   N38       1.0  0.75463  0.41801  0.39227  1.0000
  H   H620      1.0  0.83589  0.42657  0.48027  1.0000
  C   C381      1.0  0.87816  0.23667  0.56399  1.0000
  H   H621      1.0  0.85833  0.37164  0.44629  1.0000
  C   C382      1.0  0.99343  0.26451  0.19248  1.0000
  H   H622      1.0  0.96837  0.45335  0.35297  1.0000
  H   H623      1.0  0.82183  0.21233  0.57225  1.0000
  C   C383      1.0  0.82661  0.40032  0.48829  1.0000
  C   C384      1.0  0.97243  0.38210  0.30748  1.0000
  H   H624      1.0  0.86738  0.29382  0.16396  1.0000
  C   C385      1.0  0.82498  0.24212  0.57143  1.0000
  H   H625      1.0  0.90043  0.24391  0.57830  1.0000
  C   C386      1.0  0.74734  0.31009  0.34342  1.0000
  C   C387      1.0  0.75457  0.38622  0.42344  1.0000
  C   C388      1.0  0.77196  0.40998  0.34989  1.0000
  H   H626      1.0  0.83844  0.30556  0.60985  1.0000
  C   C389      1.0  0.92230  0.27773  0.13334  1.0000
  H   H627      1.0  0.80614  0.25430  0.59074  1.0000
  H   H628      1.0  0.95560  0.49724  0.36843  1.0000
  H   H629      1.0  0.96286  0.46417  0.41296  1.0000
  C   C390      1.0  0.97088  0.47522  0.37912  1.0000
  H   H630      1.0  0.77749  0.37624  0.42974  1.0000
  C   C391      1.0  0.97748  0.18636  0.62513  1.0000
  C   C392      1.0  0.74635  0.34013  0.25406  1.0000
  H   H631      1.0  0.74795  0.29839  0.37799  1.0000
  S   S162      1.0  0.93397  0.23570  0.96721  1.0000
  H   H632      1.0  0.76041  0.54509  0.72763  1.0000
  H   H633      1.0  0.84747  0.26528  0.12439  1.0000
  H   H634      1.0  0.87738  0.24695  0.65679  1.0000
  S   S163      1.0  0.79634  0.65450  0.80023  1.0000
  H   H635      1.0  0.83909  0.56148  0.64657  1.0000
  C   C393      1.0  0.89981  0.20001  0.90295  1.0000
  H   H636      1.0  0.75659  0.56797  0.64551  1.0000
  C   C394      1.0  0.78715  0.57378  0.96076  1.0000
  H   H637      1.0  0.88713  0.22462  0.90049  1.0000
  S   S164      1.0  0.98552  0.20535  0.06893  1.0000
  S   S165      1.0  0.76453  0.37722  0.64921  1.0000
  Fe  Fe83      1.0  0.97947  0.23107  0.99889  1.0000
  C   C395      1.0  0.92388  0.19789  0.93391  1.0000
  H   H638      1.0  0.95843  0.16392  0.96141  1.0000
  C   C396      1.0  0.97472  0.19411  0.83014  1.0000
  H   H639      1.0  0.77651  0.28549  0.73379  1.0000
  H   H640      1.0  0.74648  0.25534  0.72054  1.0000
  H   H641      1.0  0.84159  0.54508  0.70511  1.0000
  S   S166      1.0  0.87009  0.17038  0.74939  1.0000
  C   C397      1.0  0.75579  0.16761  0.75704  1.0000
  C   C398      1.0  0.77960  0.55820  0.63936  1.0000
  H   H642      1.0  0.89737  0.25983  0.05136  1.0000
  C   C399      1.0  0.74896  0.61798  0.97422  1.0000
  H   H643      1.0  0.78855  0.64430  0.03604  1.0000
  H   H644      1.0  0.81140  0.56768  0.96181  1.0000
  H   H645      1.0  0.95787  0.21282  0.71717  1.0000
  S   S167      1.0  0.75562  0.42703  0.77164  1.0000
  H   H646      1.0  0.78908  0.63318  0.90734  1.0000
  C   C400      1.0  0.97603  0.65697  0.79050  1.0000
  Fe  Fe84      1.0  0.90592  0.63478  0.82206  1.0000
  N   N39       1.0  0.78133  0.61116  0.97566  1.0000
  H   H647      1.0  0.77713  0.60666  0.70925  1.0000
  H   H648      1.0  0.81050  0.61397  0.67604  1.0000
  Fe  Fe85      1.0  0.87721  0.56139  0.81187  1.0000
  S   S168      1.0  0.87868  0.50958  0.77155  1.0000
  Fe  Fe86      1.0  0.87491  0.60064  0.90409  1.0000
  N   N40       1.0  0.79728  0.55831  0.68284  1.0000
  S   S169      1.0  0.87444  0.59246  0.98157  1.0000
  H   H649      1.0  0.80327  0.42991  0.70436  1.0000
  Fe  Fe87      1.0  0.83881  0.62729  0.82143  1.0000
  C   C401      1.0  0.79680  0.63648  0.94395  1.0000
  S   S170      1.0  0.87372  0.61236  0.76986  1.0000
  S   S171      1.0  0.83983  0.57481  0.86004  1.0000
  S   S172      1.0  0.91292  0.58248  0.85971  1.0000
  H   H650      1.0  0.87504  0.22318  0.07295  1.0000
  H   H651      1.0  0.93794  0.22553  0.76852  1.0000
  H   H652      1.0  0.78898  0.57756  0.80953  1.0000
  S   S173      1.0  0.78588  0.18987  0.73050  1.0000
  H   H653      1.0  0.96181  0.60142  0.79264  1.0000
  H   H654      1.0  0.97535  0.24179  0.75917  1.0000
  H   H655      1.0  0.79622  0.53291  0.75014  1.0000
  H   H656      1.0  0.77970  0.50691  0.70442  1.0000
  C   C402      1.0  0.90831  0.62446  0.04953  1.0000
  C   C403      1.0  0.98032  0.61971  0.78759  1.0000
  H   H657      1.0  0.91266  0.59747  0.06204  1.0000
  C   C404      1.0  0.89548  0.23941  0.07977  1.0000
  H   H658      1.0  0.74777  0.54059  0.84092  1.0000
  C   C405      1.0  0.84568  0.48411  0.77380  1.0000
  C   C406      1.0  0.83735  0.46327  0.73526  1.0000
  C   C407      1.0  0.80980  0.44533  0.73463  1.0000
  C   C408      1.0  0.79084  0.44749  0.77306  1.0000
  C   C409      1.0  0.79960  0.46723  0.81227  1.0000
  C   C410      1.0  0.82696  0.48563  0.81256  1.0000
  H   H659      1.0  0.85198  0.46162  0.70548  1.0000
  C   C411      1.0  0.94006  0.16593  0.93721  1.0000
  H   H660      1.0  0.78511  0.46865  0.84223  1.0000
  H   H661      1.0  0.83376  0.50045  0.84308  1.0000
  C   C412      1.0  0.89004  0.62961  0.01049  1.0000
  C   C413      1.0  0.82747  0.54474  0.67318  1.0000
  H   H662      1.0  0.86951  0.30209  0.10236  1.0000
  C   C414      1.0  0.79942  0.59541  0.70117  1.0000
  C   C415      1.0  0.76559  0.62766  0.81494  1.0000
  C   C416      1.0  0.76852  0.59032  0.81912  1.0000
  C   C417      1.0  0.92133  0.65421  0.07204  1.0000
  S   S174      1.0  0.87050  0.65462  0.87003  1.0000
  H   H663      1.0  0.83753  0.25061  0.66215  1.0000
  S   S175      1.0  0.91798  0.18246  0.64139  1.0000
  N   N41       1.0  0.97206  0.18615  0.77986  1.0000
  H   H664      1.0  0.81694  0.61143  0.02590  1.0000
  C   C418      1.0  0.75188  0.28266  0.73416  1.0000
  H   H665      1.0  0.77843  0.26608  0.81501  1.0000
  H   H666      1.0  0.77007  0.33144  0.79693  1.0000
  H   H667      1.0  0.78141  0.59763  0.04858  1.0000
  C   C419      1.0  0.86868  0.28048  0.12930  1.0000
  C   C420      1.0  0.78269  0.53482  0.71774  1.0000
  H   H668      1.0  0.77925  0.56902  0.92449  1.0000
  H   H669      1.0  0.77569  0.55389  0.98370  1.0000
  N   N42       1.0  0.89474  0.25650  0.12625  1.0000
  C   C421      1.0  0.85574  0.23959  0.64034  1.0000
  H   H670      1.0  0.98225  0.17011  0.85020  1.0000
  C   C422      1.0  0.79253  0.61636  0.02367  1.0000
  C   C423      1.0  0.96027  0.21804  0.75516  1.0000
  H   H671      1.0  0.91486  0.22110  0.07613  1.0000
  H   H672      1.0  0.81261  0.59626  0.73400  1.0000
  H   H673      1.0  0.92446  0.29965  0.10702  1.0000
  H   H674      1.0  0.94236  0.26052  0.13027  1.0000
  H   H675      1.0  0.82126  0.63197  0.94439  1.0000
  C   C424      1.0  0.75384  0.26244  0.81408  1.0000
  H   H676      1.0  0.96768  0.64215  0.91071  1.0000
  H   H677      1.0  0.95298  0.20236  0.84496  1.0000
  C   C425      1.0  0.89227  0.17047  0.87470  1.0000
  H   H678      1.0  0.99083  0.21635  0.83683  1.0000
  H   H679      1.0  0.87355  0.17220  0.85117  1.0000
  H   H680      1.0  0.82685  0.51646  0.66037  1.0000
  H   H681      1.0  0.85398  0.20976  0.64193  1.0000
  H   H682      1.0  0.74949  0.23402  0.80368  1.0000
  H   H683      1.0  0.93547  0.65018  0.10210  1.0000
  C   C426      1.0  0.95337  0.16357  0.63451  1.0000
  H   H684      1.0  0.94853  0.65766  0.96187  1.0000
  C   C427      1.0  0.74578  0.32539  0.79649  1.0000
  H   H685      1.0  0.74528  0.26570  0.85014  1.0000
  H   H686      1.0  0.98786  0.36082  0.12640  1.0000
  H   H687      1.0  0.85931  0.93065  0.58812  1.0000
  S   S176      1.0  0.96087  0.71610  0.21177  1.0000
  H   H688      1.0  0.77498  0.85572  0.58901  1.0000
  C   C428      1.0  0.77851  0.85538  0.55184  1.0000
  C   C429      1.0  0.87585  0.80936  0.34376  1.0000
  S   S177      1.0  0.87530  0.87731  0.23474  1.0000
  H   H689      1.0  0.93908  0.75955  0.34552  1.0000
  H   H690      1.0  0.87842  0.78124  0.42985  1.0000
  S   S178      1.0  0.84816  0.85561  0.46303  1.0000
  H   H691      1.0  0.79134  0.85703  0.41838  1.0000
  H   H692      1.0  0.86221  0.82400  0.36979  1.0000
  C   C430      1.0  0.91880  0.77216  0.33046  1.0000
  C   C431      1.0  0.87470  0.95429  0.58822  1.0000
  C   C432      1.0  0.92101  0.81993  0.38734  1.0000
  Fe  Fe88      1.0  0.84574  0.89269  0.40182  1.0000
  H   H693      1.0  0.82632  0.85234  0.55764  1.0000
  H   H694      1.0  0.92918  0.83953  0.36081  1.0000
  H   H695      1.0  0.90520  0.75047  0.31405  1.0000
  H   H696      1.0  0.91031  0.75325  0.42009  1.0000
  H   H697      1.0  0.92631  0.79036  0.30193  1.0000
  C   C433      1.0  0.89133  0.76685  0.40253  1.0000
  H   H698      1.0  0.94091  0.80788  0.40425  1.0000
  C   C434      1.0  0.81218  0.85453  0.48589  1.0000
  C   C435      1.0  0.80754  0.85360  0.53408  1.0000
  H   H699      1.0  0.90880  0.83543  0.41435  1.0000
  C   C436      1.0  0.75903  0.85739  0.47323  1.0000
  C   C437      1.0  0.98772  0.97863  0.31239  1.0000
  C   C438      1.0  0.78793  0.85663  0.45556  1.0000
  H   H700      1.0  0.86114  0.78926  0.32637  1.0000
  H   H701      1.0  0.87657  0.74556  0.38775  1.0000
  C   C439      1.0  0.96720  0.82729  0.24677  1.0000
  C   C440      1.0  0.94726  0.81549  0.21248  1.0000
  C   C441      1.0  0.91947  0.83196  0.20762  1.0000
  C   C442      1.0  0.91155  0.86026  0.23701  1.0000
  C   C443      1.0  0.93198  0.87307  0.26994  1.0000
  C   C444      1.0  0.95979  0.85660  0.27488  1.0000
  H   H702      1.0  0.95296  0.79327  0.19008  1.0000
  H   H703      1.0  0.90387  0.82211  0.18178  1.0000
  N   N43       1.0  0.90177  0.79203  0.36599  1.0000
  H   H704      1.0  0.97523  0.86613  0.30114  1.0000
  H   H705      1.0  0.88290  0.82917  0.31672  1.0000
  S   S179      1.0  0.82112  0.88392  0.33483  1.0000
  H   H706      1.0  0.75831  0.89258  0.35992  1.0000
  H   H707      1.0  0.75688  0.93217  0.14656  1.0000
  H   H708      1.0  0.92643  0.89572  0.29158  1.0000
  Fe  Fe89      1.0  0.86258  0.90470  0.30096  1.0000
  H   H709      1.0  0.88882  0.95859  0.47208  1.0000
  C   C445      1.0  0.80089  0.86682  0.19249  1.0000
  H   H710      1.0  0.96556  0.05564  0.29432  1.0000
  H   H711      1.0  0.89726  0.01759  0.50963  1.0000
  H   H712      1.0  0.81948  0.93539  0.19091  1.0000
  H   H713      1.0  0.83613  0.00221  0.55359  1.0000
  H   H714      1.0  0.95763  0.95193  0.26517  1.0000
  H   H715      1.0  0.88699  0.02410  0.56961  1.0000
  H   H716      1.0  0.95415  0.04222  0.23718  1.0000
  H   H717      1.0  0.97545  0.07389  0.16763  1.0000
  C   C446      1.0  0.98305  0.09587  0.19122  1.0000
  C   C447      1.0  0.77128  0.90785  0.14651  1.0000
  S   S180      1.0  0.84942  0.96264  0.30201  1.0000
  C   C448      1.0  0.89555  0.00398  0.54424  1.0000
  C   C449      1.0  0.95971  0.96762  0.29677  1.0000
  C   C450      1.0  0.75614  0.89224  0.22476  1.0000
  N   N44       1.0  0.78188  0.89916  0.19397  1.0000
  H   H718      1.0  0.78859  0.84302  0.17869  1.0000
  H   H719      1.0  0.89699  0.94476  0.59948  1.0000
  H   H720      1.0  0.82083  0.87129  0.17015  1.0000
  H   H721      1.0  0.80936  0.85966  0.22781  1.0000
  S   S181      1.0  0.76546  0.96347  0.31735  1.0000
  H   H722      1.0  0.86671  0.97319  0.61541  1.0000
  C   C451      1.0  0.93430  0.97659  0.32199  1.0000
  H   H723      1.0  0.84606  0.99711  0.49356  1.0000
  C   C452      1.0  0.96182  0.06570  0.25820  1.0000
  H   H724      1.0  0.76347  0.88534  0.26076  1.0000
  N   N45       1.0  0.87594  0.97189  0.54197  1.0000
  H   H725      1.0  0.91054  0.93740  0.51661  1.0000
  H   H726      1.0  0.91284  0.96785  0.30949  1.0000
  S   S182      1.0  0.83018  0.94939  0.41148  1.0000
  C   C453      1.0  0.88768  0.94623  0.50741  1.0000
  Fe  Fe90      1.0  0.80952  0.94222  0.34085  1.0000
  C   C454      1.0  0.93671  0.99657  0.36304  1.0000
  C   C455      1.0  0.96473  0.00831  0.37833  1.0000
  H   H727      1.0  0.96671  0.02361  0.41022  1.0000
  H   H728      1.0  0.83037  0.95958  0.52524  1.0000
  S   S183      1.0  0.90470  0.00495  0.39588  1.0000
  C   C456      1.0  0.79933  0.92985  0.21233  1.0000
  H   H729      1.0  0.87338  0.92170  0.50483  1.0000
  H   H730      1.0  0.94331  0.08542  0.25971  1.0000
  Fe  Fe91      1.0  0.96785  0.71626  0.13436  1.0000
  Fe  Fe92      1.0  0.87147  0.96385  0.37198  1.0000
  H   H731      1.0  0.80025  0.97202  0.61373  1.0000
  H   H732      1.0  0.80703  0.92425  0.24832  1.0000
  S   S184      1.0  0.88843  0.90744  0.36760  1.0000
  C   C457      1.0  0.84574  0.98313  0.52794  1.0000
  C   C458      1.0  0.75424  0.85709  0.52129  1.0000
  H   H733      1.0  0.91848  0.99672  0.55528  1.0000
  H   H734      1.0  0.74840  0.93163  0.50659  1.0000
  H   H735      1.0  0.78587  0.95491  0.21388  1.0000
  H   H736      1.0  0.96556  0.11692  0.19149  1.0000
  H   H737      1.0  0.98190  0.13341  0.27140  1.0000
  H   H738      1.0  0.74662  0.97711  0.52761  1.0000
  N   N46       1.0  0.98914  0.08211  0.23864  1.0000
  C   C459      1.0  0.99031  0.99919  0.35304  1.0000
  S   S185      1.0  0.77867  0.90038  0.75311  1.0000
  C   C460      1.0  0.77141  0.74350  0.75355  1.0000
  C   C461      1.0  0.74674  0.78110  0.80981  1.0000
  H   H739      1.0  0.96123  0.73825  0.94314  1.0000
  H   H740      1.0  0.75609  0.72071  0.76213  1.0000
  H   H741      1.0  0.79408  0.76447  0.86321  1.0000
  H   H742      1.0  0.79274  0.73163  0.74173  1.0000
  H   H743      1.0  0.93950  0.10858  0.64551  1.0000
  Fe  Fe93      1.0  0.82486  0.15225  0.72649  1.0000
  H   H744      1.0  0.89232  0.72119  0.00520  1.0000
  S   S186      1.0  0.93149  0.72694  0.08265  1.0000
  H   H745      1.0  0.79023  0.91340  0.12256  1.0000
  C   C462      1.0  0.79008  0.74717  0.83223  1.0000
  N   N47       1.0  0.98677  0.68948  0.94242  1.0000
  H   H746      1.0  0.78485  0.81430  0.75163  1.0000
  C   C463      1.0  0.76084  0.14062  0.79009  1.0000
  H   H747      1.0  0.75404  0.02418  0.75307  1.0000
  C   C464      1.0  0.80888  0.96461  0.74779  1.0000
  H   H748      1.0  0.95978  0.13057  0.79113  1.0000
  H   H749      1.0  0.76138  0.75814  0.72353  1.0000
  S   S187      1.0  0.84010  0.13520  0.65580  1.0000
  C   C465      1.0  0.89694  0.69419  0.01745  1.0000
  N   N48       1.0  0.77583  0.76754  0.79400  1.0000
  H   H750      1.0  0.96412  0.71589  0.99843  1.0000
  C   C466      1.0  0.91557  0.68909  0.05597  1.0000
  H   H751      1.0  0.74908  0.79910  0.84052  1.0000
  H   H752      1.0  0.77986  0.91897  0.65553  1.0000
  C   C467      1.0  0.79080  0.94023  0.67484  1.0000
  H   H753      1.0  0.78318  0.13459  0.80116  1.0000
  H   H754      1.0  0.86954  0.66885  0.96561  1.0000
  C   C468      1.0  0.82048  0.99472  0.72410  1.0000
  S   S188      1.0  0.83276  0.03390  0.64481  1.0000
  C   C469      1.0  0.95806  0.12655  0.63988  1.0000
  C   C470      1.0  0.81742  0.99742  0.67572  1.0000
  H   H755      1.0  0.81719  0.78914  0.76822  1.0000
  H   H756      1.0  0.81144  0.96245  0.78519  1.0000
  Fe  Fe94      1.0  0.88586  0.14802  0.68168  1.0000
  H   H757      1.0  0.94879  0.14867  0.73559  1.0000
  H   H758      1.0  0.77595  0.72393  0.84333  1.0000
  H   H759      1.0  0.98839  0.71396  0.87449  1.0000
  C   C471      1.0  0.79503  0.79831  0.78039  1.0000
  Fe  Fe95      1.0  0.84704  0.08111  0.68884  1.0000
  C   C472      1.0  0.90856  0.13857  0.87778  1.0000
  Fe  Fe96      1.0  0.87508  0.11384  0.77566  1.0000
  H   H760      1.0  0.79865  0.81725  0.80990  1.0000
  S   S189      1.0  0.90044  0.10166  0.84154  1.0000
  H   H761      1.0  0.81186  0.73591  0.82120  1.0000
  S   S190      1.0  0.82824  0.09683  0.75812  1.0000
  S   S191      1.0  0.89434  0.09260  0.70920  1.0000
  C   C473      1.0  0.79395  0.93741  0.72319  1.0000
  H   H762      1.0  0.94487  0.68137  0.90756  1.0000
  C   C474      1.0  0.80260  0.97012  0.65114  1.0000
  C   C475      1.0  0.97642  0.72245  0.96591  1.0000
  H   H763      1.0  0.94480  0.11154  0.91212  1.0000
  H   H764      1.0  0.83225  0.01548  0.74320  1.0000
  C   C476      1.0  0.93227  0.13626  0.90941  1.0000
  H   H765      1.0  0.99058  0.08402  0.64227  1.0000
  S   S192      1.0  0.94143  0.67519  0.80505  1.0000
  C   C477      1.0  0.98698  0.11259  0.63746  1.0000
  H   H766      1.0  0.79295  0.66496  0.95406  1.0000
  C   C478      1.0  0.88427  0.66453  0.99470  1.0000
  C   C479      1.0  0.95165  0.15525  0.77312  1.0000
  C   C480      1.0  0.96085  0.66661  0.93023  1.0000
  H   H767      1.0  0.92929  0.16099  0.78747  1.0000
  H   H768      1.0  0.75805  0.88523  0.13150  1.0000
