data_image0
_chemical_formula_structural       FeS2FeS2FeCFeHS2CSCHCH11NSH3C3HC7H3C3HCH2NC2H3CH9C3HCHC2HNC3FeSH2CH3C2H3CH6FeS2FeSCFeSFeSHCH2SC2FeHCH2CHSCHCS2C2H3C3HCH3NH2SNH4CH2CH3C2HCHCSH5C2SH2CHCH3SNCHNHCH3CH3S2FeSH2CHSHC2H3CH2CH3CH2NC3H2SH3CHCSH3CH3CFeHCHCH2C2S2FeCFeCS2C3H2NHSHCH2FeCSFeH5CH2Fe2C4NHSHSCH6FeHC2HS3CNSCFeSFeSHC3SH2C6H7C2FeH2CNC4H14FeH5C2HS2HFeS2FeSHFeSFeHS2H5SNC3HCHC2HCSH2CH2C2HC2SHC3SH3CHCH2C2H3C2H4C2HNH3CHSCH7C2HCH3NFeH2SFeCHCHFeSCS2HCHCSH3C2H2NSH2C2HCHSHCH2CH2NCH5CH2CFeH2CHCHCHC2HSH2SFeHFeSFeHC4H2FeS2HCSCH3FeHC4SCSH5FeSH3CSC2SNH3CH3CH7CH4C2S3HSFeCH4CH3CSC3H2CH3CHCHNCH2CH2SH2CSCHC3H2CHCH2CH7CH3FeSFeSHFeSHFeSFeS3CH2CHC6H4CHCHNCFeSH3CHFeH3C2H2SC2HCHSH2SHCHCSN2H2CNCHCH2CH3FeCHSHCHCH4SHFeSHCFeCHCNHCHCFeSHFeSHFeCFeS3HCH3CHC7H5SC2HC3H5SH3SFeCSH2SHNC2H4NC2HCSC2H3CHCSH4NHCHCH2CH5C2HCHC2SH2FeSHFeHFeCH2SH2CSC4SH2CSH3FeHC5HNC2S2CH13SFeSC2HCH2CNH3CH3C2H4SFeH3SHFeH3C3NSCH2SCH4CHCHC2H5FeHCH2SHSHFeSFeSC6H2C5HCH2CH2NSH2CSHSCHFeHCH2CH2C3H2CH5CH4SCHFeSCH3SCN2H3CH2CH5CH3C2H2FeSH2SHFeSFeCSC2H2CFeH2C2HC2SHC2HSNSH3SCH2CSHCH3CHCNC2HC2H3FeSHFeSNFeCFeSHSNSHSC2SH2C5HFeH3CH2CH2CHCH3C2H3CHCH2CFe2CH2C2SH3CH5SH2CH2SCH3CHNHSFeSH4FeCHCH2CH5CH2CHCH2SH2CH2S2NSFeHSC2HC4H3FeC2H3CHC3SHCH2CHC5H2SCH2SH3FeH4FeHSCHC2HCHSH3CS2C3H2CH2CFeC4H4SFeCHC2H6CHC2H3C2H2NSCH2CHSHCNH2CH2NHSFeSC2H3SH3C6H2CHC2HCNH2C2HNSH3SCH2CHSC2SH2CHSCH3CH3CHSNC2FeCFeHC3NSHC2SFeH2CH3FeS2HSHFeSFeSHS2HCSHCSC4H5CSC2H3C3HC2H4CHCNHCFeC2H5FeHCSH3FeHC2H3NH2SH2CSFeCFeHCH3CHC
_chemical_formula_sum              "Fe96 S192 C480 H768 N48"
_cell_length_a       30.8523
_cell_length_b       41.8824
_cell_length_c       37.4977
_cell_angle_alpha    89.8771
_cell_angle_beta     89.8114
_cell_angle_gamma    90.1061

_space_group_name_H-M_alt    "P 1"
_space_group_IT_number       1

loop_
  _space_group_symop_operation_xyz
  'x, y, z'

loop_
  _atom_site_type_symbol
  _atom_site_label
  _atom_site_symmetry_multiplicity
  _atom_site_fract_x
  _atom_site_fract_y
  _atom_site_fract_z
  _atom_site_occupancy
  Fe  Fe1       1.0  0.38825  0.24055  0.20340  1.0000
  S   S1        1.0  0.40377  0.29155  0.21592  1.0000
  S   S2        1.0  0.43646  0.20594  0.18078  1.0000
  Fe  Fe2       1.0  0.29422  0.24713  0.22415  1.0000
  S   S3        1.0  0.30059  0.29887  0.23811  1.0000
  S   S4        1.0  0.23375  0.21905  0.23487  1.0000
  Fe  Fe3       1.0  0.34103  0.30240  0.18862  1.0000
  C   C1        1.0  0.42686  0.10744  0.28965  1.0000
  Fe  Fe4       1.0  0.36243  0.28388  0.26435  1.0000
  H   H1        1.0  0.42305  0.27224  0.40119  1.0000
  S   S5        1.0  0.32870  0.25175  0.17164  1.0000
  S   S6        1.0  0.35285  0.23165  0.25474  1.0000
  C   C2        1.0  0.60548  0.12003  0.54718  1.0000
  S   S7        1.0  0.54975  0.14812  0.30455  1.0000
  C   C3        1.0  0.15685  0.25602  0.15773  1.0000
  H   H2        1.0  0.16280  0.26321  0.31706  1.0000
  C   C4        1.0  0.18452  0.30394  0.26371  1.0000
  H   H3        1.0  0.33226  0.29426  0.42124  1.0000
  H   H4        1.0  0.19591  0.28593  0.24404  1.0000
  H   H5        1.0  0.39169  0.22461  0.11644  1.0000
  H   H6        1.0  0.22632  0.28553  0.34481  1.0000
  H   H7        1.0  0.44657  0.23176  0.10307  1.0000
  H   H8        1.0  0.14976  0.32053  0.32701  1.0000
  H   H9        1.0  0.40027  0.27250  0.49897  1.0000
  H   H10       1.0  0.14943  0.19164  0.23199  1.0000
  H   H11       1.0  0.15880  0.27417  0.13721  1.0000
  H   H12       1.0  0.44547  0.11130  0.22007  1.0000
  H   H13       1.0  0.40783  0.15757  0.24809  1.0000
  N   N1        1.0  0.39549  0.10818  0.25997  1.0000
  S   S8        1.0  0.37876  0.30640  0.31675  1.0000
  H   H14       1.0  0.45258  0.22731  0.25269  1.0000
  H   H15       1.0  0.38876  0.31392  0.55733  1.0000
  H   H16       1.0  0.29650  0.27370  0.31511  1.0000
  C   C5        1.0  0.19053  0.22609  0.20573  1.0000
  C   C6        1.0  0.19341  0.24907  0.17864  1.0000
  C   C7        1.0  0.29490  0.25402  0.57434  1.0000
  H   H17       1.0  0.22348  0.26181  0.17419  1.0000
  C   C8        1.0  0.41896  0.29625  0.41342  1.0000
  C   C9        1.0  0.47166  0.19206  0.21394  1.0000
  C   C10       1.0  0.49736  0.16516  0.20746  1.0000
  C   C11       1.0  0.52219  0.15185  0.23502  1.0000
  C   C12       1.0  0.52186  0.16574  0.26891  1.0000
  C   C13       1.0  0.49738  0.19333  0.27497  1.0000
  C   C14       1.0  0.47205  0.20636  0.24760  1.0000
  H   H18       1.0  0.49736  0.15420  0.18136  1.0000
  H   H19       1.0  0.54189  0.13105  0.22995  1.0000
  H   H20       1.0  0.49725  0.20422  0.30112  1.0000
  C   C15       1.0  0.29354  0.29439  0.33218  1.0000
  C   C16       1.0  0.54156  0.09252  0.56858  1.0000
  C   C17       1.0  0.35809  0.08744  0.26869  1.0000
  H   H21       1.0  0.28222  0.29857  0.12792  1.0000
  C   C18       1.0  0.29402  0.31256  0.10566  1.0000
  H   H22       1.0  0.37050  0.32683  0.48738  1.0000
  H   H23       1.0  0.33336  0.08795  0.24716  1.0000
  N   N2        1.0  0.58899  0.09583  0.57263  1.0000
  C   C19       1.0  0.39923  0.28258  0.08527  1.0000
  C   C20       1.0  0.25374  0.30118  0.34866  1.0000
  H   H24       1.0  0.45046  0.28560  0.47979  1.0000
  H   H25       1.0  0.43246  0.28914  0.09410  1.0000
  H   H26       1.0  0.35711  0.14295  0.23182  1.0000
  C   C21       1.0  0.41679  0.09644  0.22716  1.0000
  H   H27       1.0  0.59905  0.11301  0.51905  1.0000
  H   H28       1.0  0.41197  0.11555  0.31512  1.0000
  H   H29       1.0  0.17343  0.18483  0.54548  1.0000
  H   H30       1.0  0.17055  0.24252  0.56129  1.0000
  H   H31       1.0  0.36397  0.15087  0.27859  1.0000
  H   H32       1.0  0.42415  0.25032  0.46316  1.0000
  H   H33       1.0  0.35453  0.25545  0.42959  1.0000
  H   H34       1.0  0.15173  0.24556  0.27460  1.0000
  H   H35       1.0  0.52469  0.11547  0.57423  1.0000
  C   C22       1.0  0.38036  0.14129  0.25440  1.0000
  C   C23       1.0  0.15161  0.20964  0.21131  1.0000
  C   C24       1.0  0.41839  0.27488  0.47336  1.0000
  H   H36       1.0  0.18542  0.32769  0.25042  1.0000
  C   C25       1.0  0.31959  0.30625  0.55543  1.0000
  H   H37       1.0  0.33203  0.27820  0.46576  1.0000
  C   C26       1.0  0.24977  0.32786  0.37072  1.0000
  C   C27       1.0  0.32951  0.31402  0.33833  1.0000
  H   H38       1.0  0.45527  0.12315  0.28422  1.0000
  N   N3        1.0  0.39434  0.29453  0.44728  1.0000
  C   C28       1.0  0.28566  0.28474  0.56198  1.0000
  C   C29       1.0  0.37163  0.26652  0.57487  1.0000
  C   C30       1.0  0.35142  0.27995  0.44069  1.0000
  Fe  Fe5       1.0  0.55587  0.09479  0.30149  1.0000
  S   S9        1.0  0.23174  0.29612  0.55490  1.0000
  H   H39       1.0  0.31277  0.33009  0.54598  1.0000
  H   H40       1.0  0.39431  0.09690  0.20403  1.0000
  C   C31       1.0  0.36260  0.29712  0.56184  1.0000
  H   H41       1.0  0.37807  0.28293  0.10935  1.0000
  H   H42       1.0  0.20857  0.30438  0.28564  1.0000
  H   H43       1.0  0.59028  0.14374  0.55184  1.0000
  C   C32       1.0  0.38850  0.32710  0.46160  1.0000
  C   C33       1.0  0.16684  0.17900  0.57396  1.0000
  H   H44       1.0  0.26898  0.23711  0.57888  1.0000
  H   H45       1.0  0.14974  0.15559  0.57500  1.0000
  H   H46       1.0  0.45178  0.30666  0.41744  1.0000
  C   C34       1.0  0.41351  0.22637  0.09281  1.0000
  H   H47       1.0  0.40208  0.31143  0.39343  1.0000
  H   H48       1.0  0.34200  0.09495  0.29392  1.0000
  H   H49       1.0  0.14510  0.32230  0.60122  1.0000
  H   H50       1.0  0.42692  0.22857  0.02173  1.0000
  H   H51       1.0  0.19879  0.17591  0.58738  1.0000
  H   H52       1.0  0.42326  0.09377  0.69011  1.0000
  Fe  Fe6       1.0  0.45314  0.15620  0.65958  1.0000
  S   S10       1.0  0.48113  0.20565  0.66045  1.0000
  S   S11       1.0  0.49996  0.11554  0.65344  1.0000
  Fe  Fe7       1.0  0.36174  0.17899  0.67328  1.0000
  S   S12       1.0  0.38212  0.23023  0.67564  1.0000
  C   C35       1.0  0.20707  0.25406  0.67944  1.0000
  Fe  Fe8       1.0  0.42287  0.21861  0.62801  1.0000
  S   S13       1.0  0.17596  0.28894  0.67738  1.0000
  Fe  Fe9       1.0  0.43795  0.21273  0.70779  1.0000
  S   S14       1.0  0.39824  0.16830  0.62273  1.0000
  H   H53       1.0  0.33550  0.28770  0.65714  1.0000
  C   C36       1.0  0.38468  0.29468  0.81829  1.0000
  H   H54       1.0  0.55972  0.15924  0.74246  1.0000
  H   H55       1.0  0.58341  0.12913  0.61608  1.0000
  S   S15       1.0  0.42498  0.25533  0.58424  1.0000
  C   C37       1.0  0.42703  0.25187  0.03594  1.0000
  C   C38       1.0  0.19491  0.22839  0.70122  1.0000
  Fe  Fe10      1.0  0.30893  0.33655  0.87129  1.0000
  H   H56       1.0  0.29751  0.31894  0.64859  1.0000
  C   C39       1.0  0.27075  0.22481  0.66048  1.0000
  H   H57       1.0  0.29944  0.22316  0.64418  1.0000
  H   H58       1.0  0.34474  0.22116  0.59048  1.0000
  C   C40       1.0  0.29401  0.30061  0.71798  1.0000
  H   H59       1.0  0.16615  0.22993  0.71761  1.0000
  S   S16       1.0  0.29247  0.16550  0.68470  1.0000
  C   C41       1.0  0.24484  0.25214  0.65896  1.0000
  H   H60       1.0  0.57051  0.18142  0.80347  1.0000
  C   C42       1.0  0.35364  0.24355  0.05635  1.0000
  S   S17       1.0  0.41447  0.16229  0.70982  1.0000
  S   S18       1.0  0.46063  0.23867  0.75660  1.0000
  C   C43       1.0  0.41569  0.25463  0.77898  1.0000
  C   C44       1.0  0.29805  0.32180  0.04171  1.0000
  H   H61       1.0  0.25362  0.27157  0.64134  1.0000
  H   H62       1.0  0.26133  0.30470  0.70648  1.0000
  H   H63       1.0  0.50991  0.13937  0.73194  1.0000
  C   C45       1.0  0.25912  0.19926  0.68247  1.0000
  C   C46       1.0  0.37408  0.24332  0.77140  1.0000
  C   C47       1.0  0.28241  0.30417  0.07083  1.0000
  H   H64       1.0  0.34173  0.26105  0.03627  1.0000
  C   C48       1.0  0.22088  0.20088  0.70260  1.0000
  H   H65       1.0  0.39600  0.32898  0.70400  1.0000
  H   H66       1.0  0.58682  0.08803  0.62932  1.0000
  H   H67       1.0  0.46111  0.25739  0.04346  1.0000
  N   N4        1.0  0.51621  0.15286  0.78698  1.0000
  H   H68       1.0  0.52941  0.17584  0.83703  1.0000
  H   H69       1.0  0.35470  0.32724  0.64799  1.0000
  S   S19       1.0  0.59543  0.09194  0.91505  1.0000
  N   N5        1.0  0.14100  0.20431  0.59133  1.0000
  H   H70       1.0  0.16455  0.19154  0.64331  1.0000
  H   H71       1.0  0.21187  0.18116  0.71980  1.0000
  H   H72       1.0  0.35144  0.21949  0.04398  1.0000
  H   H73       1.0  0.30159  0.27473  0.71517  1.0000
  C   C49       1.0  0.16496  0.23484  0.58937  1.0000
  H   H74       1.0  0.52013  0.20265  0.80042  1.0000
  H   H75       1.0  0.41635  0.27047  0.01654  1.0000
  C   C50       1.0  0.53493  0.17934  0.80793  1.0000
  H   H76       1.0  0.29151  0.30577  0.74700  1.0000
  H   H77       1.0  0.57203  0.12254  0.79257  1.0000
  H   H78       1.0  0.45325  0.28863  0.80896  1.0000
  C   C51       1.0  0.59881  0.10586  0.60951  1.0000
  C   C52       1.0  0.32882  0.31344  0.66191  1.0000
  H   H79       1.0  0.36968  0.22335  0.75353  1.0000
  C   C53       1.0  0.42107  0.27989  0.80299  1.0000
  H   H80       1.0  0.36976  0.32002  0.74579  1.0000
  C   C54       1.0  0.34299  0.28409  0.80960  1.0000
  S   S20       1.0  0.29698  0.30476  0.82428  1.0000
  H   H81       1.0  0.53176  0.11767  0.82688  1.0000
  H   H82       1.0  0.45380  0.13145  0.77787  1.0000
  H   H83       1.0  0.51025  0.18155  0.73961  1.0000
  H   H84       1.0  0.52238  0.10192  0.78311  1.0000
  H   H85       1.0  0.37925  0.28904  0.71412  1.0000
  C   C55       1.0  0.53649  0.12244  0.79788  1.0000
  C   C56       1.0  0.52443  0.15850  0.74860  1.0000
  S   S21       1.0  0.28868  0.30726  0.99855  1.0000
  H   H86       1.0  0.45261  0.17377  0.78566  1.0000
  H   H87       1.0  0.19720  0.23291  0.60222  1.0000
  C   C57       1.0  0.33781  0.25804  0.78668  1.0000
  H   H88       1.0  0.60551  0.08800  0.02488  1.0000
  C   C58       1.0  0.46897  0.15112  0.79348  1.0000
  H   H89       1.0  0.46155  0.14679  0.82214  1.0000
  H   H90       1.0  0.38883  0.31486  0.83592  1.0000
  H   H91       1.0  0.30561  0.24948  0.78032  1.0000
  S   S22       1.0  0.35899  0.32899  0.91373  1.0000
  N   N6        1.0  0.32719  0.32080  0.70048  1.0000
  C   C59       1.0  0.49257  0.08790  0.68807  1.0000
  H   H92       1.0  0.14740  0.25442  0.60319  1.0000
  N   N7        1.0  0.39838  0.25108  0.06760  1.0000
  H   H93       1.0  0.26203  0.28351  0.06637  1.0000
  C   C60       1.0  0.36993  0.31453  0.71674  1.0000
  H   H94       1.0  0.63420  0.10828  0.61396  1.0000
  H   H95       1.0  0.38767  0.30176  0.06707  1.0000
  H   H96       1.0  0.41450  0.20234  0.08027  1.0000
  C   C61       1.0  0.33780  0.24497  0.58092  1.0000
  H   H97       1.0  0.33070  0.24409  0.07934  1.0000
  H   H98       1.0  0.28207  0.36787  0.39377  1.0000
  H   H99       1.0  0.60400  0.43457  0.51418  1.0000
  S   S23       1.0  0.42664  0.55378  0.33145  1.0000
  S   S24       1.0  0.61694  0.52927  0.18392  1.0000
  Fe  Fe11      1.0  0.44979  0.51118  0.36216  1.0000
  S   S25       1.0  0.43144  0.46168  0.34495  1.0000
  H   H100      1.0  0.39154  0.39889  0.20443  1.0000
  H   H101      1.0  0.52254  0.53961  0.28852  1.0000
  C   C62       1.0  0.59041  0.55090  0.21759  1.0000
  H   H102      1.0  0.36996  0.34248  0.44281  1.0000
  S   S26       1.0  0.34091  0.34652  0.15450  1.0000
  H   H103      1.0  0.35747  0.42179  0.36024  1.0000
  C   C63       1.0  0.59781  0.49056  0.47982  1.0000
  C   C64       1.0  0.24630  0.50512  0.45711  1.0000
  H   H104      1.0  0.28912  0.56147  0.45722  1.0000
  H   H105      1.0  0.36421  0.43468  0.29268  1.0000
  H   H106      1.0  0.40978  0.44614  0.26605  1.0000
  C   C65       1.0  0.38044  0.43057  0.26652  1.0000
  H   H107      1.0  0.63830  0.58628  0.54503  1.0000
  H   H108      1.0  0.35308  0.48686  0.44754  1.0000
  C   C66       1.0  0.54319  0.55202  0.26968  1.0000
  H   H109      1.0  0.31811  0.47848  0.48474  1.0000
  H   H110      1.0  0.32913  0.38346  0.24178  1.0000
  H   H111      1.0  0.55767  0.50967  0.23916  1.0000
  C   C67       1.0  0.62532  0.45412  0.52398  1.0000
  H   H112      1.0  0.33670  0.56525  0.32581  1.0000
  H   H113      1.0  0.34245  0.54503  0.45662  1.0000
  N   N8        1.0  0.39198  0.39660  0.26181  1.0000
  C   C68       1.0  0.35231  0.37682  0.26325  1.0000
  C   C69       1.0  0.42173  0.38670  0.29063  1.0000
  C   C70       1.0  0.41343  0.39221  0.22684  1.0000
  H   H114      1.0  0.36016  0.35113  0.25965  1.0000
  H   H115      1.0  0.33541  0.37911  0.28941  1.0000
  S   S27       1.0  0.51645  0.53064  0.37278  1.0000
  H   H116      1.0  0.45164  0.40163  0.29091  1.0000
  H   H117      1.0  0.35823  0.43898  0.24516  1.0000
  H   H118      1.0  0.42278  0.36683  0.22255  1.0000
  C   C71       1.0  0.32575  0.34029  0.36105  1.0000
  H   H119      1.0  0.43154  0.36125  0.28775  1.0000
  C   C72       1.0  0.56300  0.53510  0.24175  1.0000
  S   S28       1.0  0.42197  0.52768  0.41413  1.0000
  H   H120      1.0  0.40624  0.38918  0.31733  1.0000
  H   H121      1.0  0.32971  0.39986  0.41747  1.0000
  H   H122      1.0  0.32719  0.52080  0.39768  1.0000
  C   C73       1.0  0.30825  0.53986  0.46435  1.0000
  H   H123      1.0  0.23253  0.48385  0.44342  1.0000
  H   H124      1.0  0.30706  0.46131  0.44202  1.0000
  H   H125      1.0  0.57905  0.50362  0.50056  1.0000
  C   C74       1.0  0.41461  0.44228  0.38399  1.0000
  Fe  Fe12      1.0  0.21722  0.35962  0.44359  1.0000
  H   H126      1.0  0.22507  0.52582  0.45079  1.0000
  C   C75       1.0  0.37604  0.42468  0.38442  1.0000
  H   H127      1.0  0.57579  0.47217  0.46845  1.0000
  C   C76       1.0  0.31863  0.48330  0.45552  1.0000
  H   H128      1.0  0.44331  0.40702  0.22456  1.0000
  H   H129      1.0  0.24377  0.50051  0.48634  1.0000
  C   C77       1.0  0.42234  0.43362  0.44767  1.0000
  C   C78       1.0  0.33503  0.35744  0.08260  1.0000
  S   S29       1.0  0.25493  0.38720  0.53645  1.0000
  S   S30       1.0  0.36187  0.40323  0.48885  1.0000
  Fe  Fe13      1.0  0.20054  0.40626  0.50319  1.0000
  C   C79       1.0  0.55021  0.58488  0.27306  1.0000
  Fe  Fe14      1.0  0.29258  0.38714  0.48546  1.0000
  C   C80       1.0  0.43785  0.44663  0.41560  1.0000
  S   S31       1.0  0.17289  0.35774  0.49119  1.0000
  S   S32       1.0  0.51355  0.55014  0.47735  1.0000
  C   C81       1.0  0.56500  0.56746  0.48100  1.0000
  C   C82       1.0  0.36021  0.41224  0.41667  1.0000
  C   C83       1.0  0.38315  0.41683  0.44826  1.0000
  H   H130      1.0  0.28105  0.49515  0.39218  1.0000
  H   H131      1.0  0.46754  0.46043  0.41540  1.0000
  N   N9        1.0  0.29164  0.51115  0.44600  1.0000
  H   H132      1.0  0.27394  0.53744  0.39884  1.0000
  S   S33       1.0  0.16827  0.44971  0.52621  1.0000
  H   H133      1.0  0.30723  0.53698  0.49384  1.0000
  C   C84       1.0  0.29341  0.51627  0.40698  1.0000
  H   H134      1.0  0.44002  0.43746  0.47218  1.0000
  H   H135      1.0  0.56258  0.56799  0.53838  1.0000
  Fe  Fe15      1.0  0.23156  0.33912  0.51947  1.0000
  C   C85       1.0  0.28576  0.34721  0.37703  1.0000
  S   S34       1.0  0.24014  0.40993  0.45297  1.0000
  Fe  Fe16      1.0  0.48620  0.55126  0.42215  1.0000
  H   H136      1.0  0.35337  0.35566  0.36564  1.0000
  H   H137      1.0  0.61417  0.58657  0.33263  1.0000
  H   H138      1.0  0.60767  0.46679  0.54569  1.0000
  H   H139      1.0  0.35597  0.37778  0.08708  1.0000
  H   H140      1.0  0.17844  0.34806  0.57450  1.0000
  C   C86       1.0  0.63390  0.58278  0.45464  1.0000
  H   H141      1.0  0.60556  0.50783  0.45813  1.0000
  H   H142      1.0  0.57703  0.56979  0.42442  1.0000
  Fe  Fe17      1.0  0.40395  0.57183  0.38454  1.0000
  Fe  Fe18      1.0  0.49059  0.57500  0.34655  1.0000
  C   C87       1.0  0.58235  0.57232  0.51496  1.0000
  C   C88       1.0  0.59041  0.57347  0.45072  1.0000
  C   C89       1.0  0.59700  0.58380  0.22092  1.0000
  C   C90       1.0  0.62541  0.58223  0.51879  1.0000
  N   N10       1.0  0.63749  0.47627  0.49488  1.0000
  H   H143      1.0  0.42008  0.33916  0.46652  1.0000
  S   S35       1.0  0.27375  0.33731  0.47122  1.0000
  H   H144      1.0  0.31629  0.58660  0.26666  1.0000
  S   S36       1.0  0.20038  0.33692  0.39132  1.0000
  C   C91       1.0  0.32110  0.33878  0.11155  1.0000
  H   H145      1.0  0.64043  0.43928  0.45515  1.0000
  H   H146      1.0  0.60345  0.43871  0.79083  1.0000
  H   H147      1.0  0.53776  0.41975  0.82408  1.0000
  H   H148      1.0  0.55574  0.47730  0.87086  1.0000
  H   H149      1.0  0.55610  0.51924  0.80284  1.0000
  H   H150      1.0  0.50382  0.43993  0.79228  1.0000
  Fe  Fe19      1.0  0.59485  0.57578  0.84114  1.0000
  H   H151      1.0  0.34007  0.37076  0.69262  1.0000
  C   C92       1.0  0.15416  0.39426  0.98688  1.0000
  C   C93       1.0  0.57835  0.47197  0.84841  1.0000
  H   H152      1.0  0.51363  0.49761  0.78088  1.0000
  S   S37       1.0  0.43819  0.54639  0.84887  1.0000
  S   S38       1.0  0.57527  0.57748  0.97571  1.0000
  S   S39       1.0  0.32114  0.38901  0.86532  1.0000
  C   C94       1.0  0.52232  0.44301  0.81745  1.0000
  N   N11       1.0  0.55481  0.46888  0.81431  1.0000
  S   S40       1.0  0.31686  0.39196  0.95367  1.0000
  C   C95       1.0  0.16330  0.34528  0.60124  1.0000
  Fe  Fe20      1.0  0.27072  0.39437  0.90783  1.0000
  S   S41       1.0  0.21941  0.43186  0.90327  1.0000
  Fe  Fe21      1.0  0.36665  0.38241  0.91125  1.0000
  S   S42       1.0  0.43094  0.40766  0.91538  1.0000
  H   H153      1.0  0.33609  0.36243  0.02526  1.0000
  C   C96       1.0  0.16048  0.40237  0.60953  1.0000
  C   C97       1.0  0.17930  0.42390  0.93516  1.0000
  C   C98       1.0  0.18735  0.40237  0.96290  1.0000
  S   S43       1.0  0.55804  0.54740  0.88161  1.0000
  H   H154      1.0  0.21895  0.39158  0.96575  1.0000
  H   H155      1.0  0.60282  0.49158  0.84713  1.0000
  C   C99       1.0  0.43568  0.50816  0.86807  1.0000
  C   C100      1.0  0.40744  0.48536  0.85384  1.0000
  C   C101      1.0  0.40561  0.45448  0.86836  1.0000
  C   C102      1.0  0.43249  0.44614  0.89684  1.0000
  C   C103      1.0  0.46122  0.46881  0.91072  1.0000
  C   C104      1.0  0.46237  0.49989  0.89670  1.0000
  H   H156      1.0  0.38705  0.49155  0.83144  1.0000
  H   H157      1.0  0.38414  0.43698  0.85692  1.0000
  H   H158      1.0  0.48187  0.46257  0.93295  1.0000
  H   H159      1.0  0.48324  0.51757  0.90865  1.0000
  H   H160      1.0  0.28130  0.48711  0.99285  1.0000
  H   H161      1.0  0.49833  0.44818  0.83897  1.0000
  H   H162      1.0  0.16526  0.35413  0.85076  1.0000
  C   C105      1.0  0.53263  0.49922  0.80596  1.0000
  C   C106      1.0  0.32371  0.34883  0.04761  1.0000
  Fe  Fe22      1.0  0.30465  0.33923  0.95200  1.0000
  H   H163      1.0  0.56948  0.45918  0.75929  1.0000
  H   H164      1.0  0.50979  0.50605  0.82753  1.0000
  C   C107      1.0  0.58599  0.46145  0.78550  1.0000
  N   N12       1.0  0.31175  0.49517  0.94180  1.0000
  C   C108      1.0  0.30531  0.48565  0.90426  1.0000
  C   C109      1.0  0.35483  0.48427  0.95392  1.0000
  C   C110      1.0  0.27757  0.48054  0.96429  1.0000
  C   C111      1.0  0.30932  0.53032  0.94461  1.0000
  H   H165      1.0  0.27225  0.49196  0.89473  1.0000
  H   H166      1.0  0.30901  0.45939  0.90083  1.0000
  H   H167      1.0  0.32910  0.49755  0.88629  1.0000
  H   H168      1.0  0.36050  0.49024  0.98242  1.0000
  H   H169      1.0  0.35852  0.45794  0.95105  1.0000
  H   H170      1.0  0.38127  0.49559  0.93805  1.0000
  H   H171      1.0  0.27826  0.45406  0.96261  1.0000
  H   H172      1.0  0.24459  0.48798  0.95559  1.0000
  H   H173      1.0  0.61092  0.48068  0.78277  1.0000
  H   H174      1.0  0.31407  0.53837  0.97261  1.0000
  H   H175      1.0  0.27728  0.53935  0.93550  1.0000
  H   H176      1.0  0.33476  0.54210  0.92794  1.0000
  H   H177      1.0  0.28349  0.36020  0.69391  1.0000
  H   H178      1.0  0.31435  0.36093  0.73443  1.0000
  Fe  Fe23      1.0  0.49962  0.57309  0.86167  1.0000
  H   H179      1.0  0.59584  0.44961  0.85534  1.0000
  H   H180      1.0  0.59698  0.57063  0.04874  1.0000
  H   H181      1.0  0.18600  0.40194  0.63039  1.0000
  H   H182      1.0  0.16036  0.37723  0.00801  1.0000
  H   H183      1.0  0.18987  0.34271  0.62104  1.0000
  C   C112      1.0  0.31581  0.35475  0.70553  1.0000
  C   C113      1.0  0.62403  0.58227  0.03557  1.0000
  H   H184      1.0  0.14970  0.39171  0.86954  1.0000
  S   S44       1.0  0.25382  0.34257  0.90958  1.0000
  S   S45       1.0  0.63945  0.54851  0.80483  1.0000
  H   H185      1.0  0.17696  0.40608  0.58343  1.0000
  Fe  Fe24      1.0  0.27585  0.70042  0.24095  1.0000
  S   S46       1.0  0.32324  0.72685  0.20657  1.0000
  S   S47       1.0  0.28502  0.64739  0.24465  1.0000
  Fe  Fe25      1.0  0.22637  0.76034  0.25852  1.0000
  S   S48       1.0  0.27043  0.79230  0.22673  1.0000
  H   H186      1.0  0.21155  0.77122  0.43643  1.0000
  Fe  Fe26      1.0  0.26570  0.75326  0.18595  1.0000
  S   S49       1.0  0.26161  0.76240  0.12717  1.0000
  Fe  Fe27      1.0  0.32365  0.76300  0.25029  1.0000
  H   H187      1.0  0.35767  0.68205  0.28072  1.0000
  S   S50       1.0  0.21781  0.72334  0.21600  1.0000
  S   S51       1.0  0.28052  0.73478  0.28656  1.0000
  H   H188      1.0  0.19599  0.81394  0.35040  1.0000
  H   H189      1.0  0.58190  0.62626  0.25075  1.0000
  H   H190      1.0  0.39240  0.71194  0.29982  1.0000
  H   H191      1.0  0.21718  0.74344  0.34238  1.0000
  H   H192      1.0  0.42398  0.65267  0.23045  1.0000
  S   S52       1.0  0.38910  0.78113  0.26602  1.0000
  N   N13       1.0  0.42450  0.66826  0.28511  1.0000
  C   C114      1.0  0.41937  0.65406  0.32099  1.0000
  C   C115      1.0  0.31120  0.60089  0.29032  1.0000
  C   C116      1.0  0.46768  0.68339  0.28205  1.0000
  H   H193      1.0  0.46037  0.80269  0.30747  1.0000
  C   C117      1.0  0.35272  0.81518  0.32157  1.0000
  H   H194      1.0  0.33147  0.79487  0.16392  1.0000
  C   C118      1.0  0.31789  0.60765  0.35422  1.0000
  C   C119      1.0  0.35805  0.80384  0.14648  1.0000
  H   H195      1.0  0.35940  0.82935  0.21238  1.0000
  C   C120      1.0  0.39069  0.69268  0.27945  1.0000
  S   S53       1.0  0.33942  0.59483  0.39488  1.0000
  H   H196      1.0  0.27207  0.67307  0.31594  1.0000
  H   H197      1.0  0.24358  0.79822  0.32949  1.0000
  C   C121      1.0  0.43363  0.82951  0.35118  1.0000
  H   H198      1.0  0.41335  0.82037  0.19812  1.0000
  H   H199      1.0  0.38782  0.63122  0.25933  1.0000
  C   C122      1.0  0.22973  0.80569  0.35557  1.0000
  C   C123      1.0  0.20448  0.75225  0.36830  1.0000
  H   H200      1.0  0.47196  0.70252  0.30230  1.0000
  C   C124      1.0  0.29397  0.63163  0.28729  1.0000
  C   C125      1.0  0.14394  0.79563  0.21853  1.0000
  S   S54       1.0  0.52768  0.60631  0.30867  1.0000
  H   H201      1.0  0.44441  0.63552  0.32609  1.0000
  C   C126      1.0  0.29845  0.63772  0.35155  1.0000
  C   C127      1.0  0.28663  0.64978  0.31801  1.0000
  C   C128      1.0  0.24637  0.80164  0.11775  1.0000
  S   S55       1.0  0.16801  0.78014  0.28644  1.0000
  H   H202      1.0  0.29398  0.65211  0.37519  1.0000
  H   H203      1.0  0.47253  0.69437  0.25527  1.0000
  H   H204      1.0  0.49405  0.66566  0.28600  1.0000
  C   C129      1.0  0.42025  0.64292  0.25792  1.0000
  H   H205      1.0  0.38724  0.64232  0.32402  1.0000
  C   C130      1.0  0.25717  0.81495  0.08473  1.0000
  H   H206      1.0  0.17516  0.78661  0.21063  1.0000
  H   H207      1.0  0.42219  0.67235  0.34231  1.0000
  C   C131      1.0  0.43101  0.81129  0.32001  1.0000
  C   C132      1.0  0.32322  0.58894  0.32373  1.0000
  H   H208      1.0  0.38546  0.78677  0.14901  1.0000
  H   H209      1.0  0.27754  0.74903  0.40701  1.0000
  H   H210      1.0  0.39422  0.70427  0.25288  1.0000
  C   C133      1.0  0.39067  0.80399  0.30520  1.0000
  C   C134      1.0  0.22651  0.82049  0.14376  1.0000
  H   H211      1.0  0.21745  0.81013  0.16895  1.0000
  H   H212      1.0  0.29585  0.78908  0.39816  1.0000
  H   H213      1.0  0.32153  0.80983  0.30997  1.0000
  H   H214      1.0  0.44520  0.62397  0.26162  1.0000
  C   C135      1.0  0.21150  0.79040  0.41589  1.0000
  C   C136      1.0  0.57669  0.60080  0.24844  1.0000
  H   H215      1.0  0.20422  0.73184  0.38730  1.0000
  N   N14       1.0  0.23040  0.77934  0.38184  1.0000
  H   H216      1.0  0.21932  0.83580  0.53838  1.0000
  H   H217      1.0  0.62186  0.62613  0.31557  1.0000
  H   H218      1.0  0.22974  0.81115  0.42670  1.0000
  C   C137      1.0  0.27568  0.76913  0.38763  1.0000
  H   H219      1.0  0.17736  0.79844  0.41227  1.0000
  S   S56       1.0  0.46591  0.59726  0.39697  1.0000
  C   C138      1.0  0.22193  0.83045  0.56740  1.0000
  H   H220      1.0  0.63557  0.61717  0.36105  1.0000
  H   H221      1.0  0.29105  0.76108  0.36231  1.0000
  H   H222      1.0  0.24837  0.82675  0.36507  1.0000
  H   H223      1.0  0.17022  0.75945  0.36343  1.0000
  H   H224      1.0  0.34599  0.80262  0.11852  1.0000
  H   H225      1.0  0.61729  0.59627  0.20201  1.0000
  H   H226      1.0  0.43538  0.83176  0.13502  1.0000
  C   C139      1.0  0.14605  0.81746  0.57339  1.0000
  C   C140      1.0  0.35542  0.83389  0.35267  1.0000
  H   H227      1.0  0.23067  0.80485  0.57060  1.0000
  C   C141      1.0  0.63620  0.60766  0.33336  1.0000
  H   H228      1.0  0.46499  0.83484  0.36259  1.0000
  H   H229      1.0  0.15324  0.79174  0.57793  1.0000
  H   H230      1.0  0.14217  0.83318  0.09454  1.0000
  N   N15       1.0  0.37096  0.83665  0.15632  1.0000
  Fe  Fe28      1.0  0.56703  0.58929  0.91769  1.0000
  H   H231      1.0  0.59515  0.68348  0.73896  1.0000
  H   H232      1.0  0.59788  0.66064  0.67929  1.0000
  S   S57       1.0  0.43251  0.81882  0.73695  1.0000
  Fe  Fe29      1.0  0.37875  0.78313  0.74318  1.0000
  C   C142      1.0  0.21415  0.79478  0.72183  1.0000
  H   H233      1.0  0.58083  0.64601  0.75950  1.0000
  C   C143      1.0  0.18732  0.83290  0.62515  1.0000
  H   H234      1.0  0.24605  0.78520  0.72703  1.0000
  Fe  Fe30      1.0  0.30939  0.83417  0.74819  1.0000
  S   S58       1.0  0.54318  0.68877  0.84647  1.0000
  C   C144      1.0  0.43130  0.71851  0.77472  1.0000
  S   S59       1.0  0.33565  0.80593  0.70204  1.0000
  S   S60       1.0  0.50524  0.61318  0.90079  1.0000
  H   H235      1.0  0.58662  0.62199  0.69756  1.0000
  C   C145      1.0  0.52168  0.68765  0.69905  1.0000
  H   H236      1.0  0.50226  0.68204  0.67488  1.0000
  C   C146      1.0  0.56758  0.66744  0.74586  1.0000
  S   S61       1.0  0.38868  0.72993  0.74669  1.0000
  H   H237      1.0  0.15072  0.81790  0.03138  1.0000
  H   H238      1.0  0.19248  0.75301  0.69342  1.0000
  H   H239      1.0  0.49930  0.69902  0.71870  1.0000
  C   C147      1.0  0.50807  0.63549  0.72428  1.0000
  C   C148      1.0  0.57112  0.64412  0.68714  1.0000
  H   H240      1.0  0.27254  0.80041  0.06448  1.0000
  H   H241      1.0  0.54641  0.70582  0.69140  1.0000
  N   N16       1.0  0.54212  0.65868  0.71404  1.0000
  S   S62       1.0  0.34801  0.80815  0.78953  1.0000
  H   H242      1.0  0.48786  0.62860  0.70100  1.0000
  H   H243      1.0  0.45852  0.72415  0.92585  1.0000
  C   C149      1.0  0.49938  0.69982  0.81964  1.0000
  C   C150      1.0  0.43332  0.68714  0.78769  1.0000
  H   H244      1.0  0.36979  0.78372  0.91549  1.0000
  C   C151      1.0  0.40041  0.77238  0.92472  1.0000
  H   H245      1.0  0.41869  0.72604  0.85200  1.0000
  S   S63       1.0  0.60998  0.61568  0.87908  1.0000
  H   H246      1.0  0.41864  0.79087  0.93986  1.0000
  C   C152      1.0  0.46720  0.67782  0.81036  1.0000
  H   H247      1.0  0.54742  0.68016  0.76576  1.0000
  H   H248      1.0  0.48630  0.76189  0.92319  1.0000
  C   C153      1.0  0.46348  0.74040  0.78416  1.0000
  H   H249      1.0  0.37015  0.74702  0.86346  1.0000
  H   H250      1.0  0.55325  0.63759  0.66248  1.0000
  N   N17       1.0  0.42610  0.75993  0.89444  1.0000
  C   C154      1.0  0.49761  0.73101  0.80635  1.0000
  H   H251      1.0  0.40852  0.79839  0.85933  1.0000
  H   H252      1.0  0.52280  0.74795  0.81313  1.0000
  H   H253      1.0  0.40836  0.67014  0.78052  1.0000
  H   H254      1.0  0.45740  0.77821  0.84726  1.0000
  H   H255      1.0  0.39140  0.75309  0.94382  1.0000
  C   C155      1.0  0.43783  0.78654  0.87032  1.0000
  H   H256      1.0  0.48643  0.73534  0.88577  1.0000
  H   H257      1.0  0.45735  0.80502  0.88428  1.0000
  C   C156      1.0  0.46602  0.74469  0.90796  1.0000
  Fe  Fe31      1.0  0.54716  0.63641  0.85923  1.0000
  H   H258      1.0  0.46241  0.76451  0.77409  1.0000
  H   H259      1.0  0.39026  0.71586  0.89214  1.0000
  C   C157      1.0  0.40008  0.73618  0.87471  1.0000
  H   H260      1.0  0.52234  0.61329  0.73563  1.0000
  C   C158      1.0  0.18372  0.77650  0.70300  1.0000
  H   H261      1.0  0.46839  0.65367  0.82063  1.0000
  C   C159      1.0  0.20297  0.82507  0.73440  1.0000
  H   H262      1.0  0.48595  0.64558  0.74486  1.0000
  C   C160      1.0  0.62171  0.58940  0.99914  1.0000
  C   C161      1.0  0.14231  0.78866  0.69618  1.0000
  H   H263      1.0  0.19516  0.80750  0.63112  1.0000
  S   S64       1.0  0.53569  0.59862  0.81805  1.0000
  H   H264      1.0  0.64076  0.61663  0.79371  1.0000
  H   H265      1.0  0.19252  0.02298  0.39067  1.0000
  S   S65       1.0  0.55902  0.00306  0.30417  1.0000
  Fe  Fe32      1.0  0.59544  0.03630  0.26793  1.0000
  H   H266      1.0  0.30979  0.96787  0.34004  1.0000
  Fe  Fe33      1.0  0.50218  0.03492  0.29448  1.0000
  S   S66       1.0  0.43730  0.01329  0.28181  1.0000
  Fe  Fe34      1.0  0.29419  0.95135  0.42218  1.0000
  H   H267      1.0  0.36915  0.04667  0.39443  1.0000
  C   C162      1.0  0.39864  0.01141  0.31619  1.0000
  C   C163      1.0  0.36572  0.98846  0.31424  1.0000
  C   C164      1.0  0.33494  0.98580  0.34165  1.0000
  C   C165      1.0  0.39975  0.03254  0.34504  1.0000
  H   H268      1.0  0.36443  0.97231  0.29177  1.0000
  H   H269      1.0  0.41681  0.87229  0.13911  1.0000
  Fe  Fe35      1.0  0.24268  0.89008  0.41764  1.0000
  S   S67       1.0  0.29853  0.00273  0.40549  1.0000
  S   S68       1.0  0.51627  0.06666  0.34089  1.0000
  H   H270      1.0  0.18554  0.89086  0.22424  1.0000
  C   C166      1.0  0.33347  0.85826  0.15232  1.0000
  S   S69       1.0  0.29589  0.91049  0.38374  1.0000
  C   C167      1.0  0.47544  0.98624  0.38818  1.0000
  H   H271      1.0  0.36829  0.06214  0.27216  1.0000
  H   H272      1.0  0.60258  0.05615  0.53800  1.0000
  H   H273      1.0  0.52146  0.94786  0.34429  1.0000
  Fe  Fe36      1.0  0.33958  0.88787  0.42400  1.0000
  H   H274      1.0  0.32180  0.85878  0.12427  1.0000
  C   C168      1.0  0.15465  0.93799  0.32841  1.0000
  C   C169      1.0  0.23175  0.86661  0.10497  1.0000
  C   C170      1.0  0.51643  0.93940  0.37215  1.0000
  C   C171      1.0  0.36819  0.03042  0.37203  1.0000
  S   S70       1.0  0.59469  0.01728  0.40109  1.0000
  C   C172      1.0  0.35167  0.89228  0.56144  1.0000
  S   S71       1.0  0.40093  0.86418  0.40627  1.0000
  H   H275      1.0  0.42474  0.05050  0.34671  1.0000
  H   H276      1.0  0.44465  0.99578  0.39938  1.0000
  H   H277      1.0  0.51763  0.91283  0.37181  1.0000
  H   H278      1.0  0.41722  0.87937  0.57519  1.0000
  H   H279      1.0  0.16588  0.87704  0.55107  1.0000
  Fe  Fe37      1.0  0.57635  0.03741  0.34751  1.0000
  S   S72       1.0  0.34256  0.93056  0.46012  1.0000
  H   H280      1.0  0.17245  0.95601  0.31369  1.0000
  H   H281      1.0  0.40689  0.94808  0.37428  1.0000
  H   H282      1.0  0.18605  0.99238  0.46281  1.0000
  C   C173      1.0  0.43890  0.94029  0.36362  1.0000
  S   S73       1.0  0.18146  0.86753  0.39841  1.0000
  C   C174      1.0  0.33620  0.00670  0.37064  1.0000
  C   C175      1.0  0.15990  0.00905  0.45446  1.0000
  S   S74       1.0  0.28647  0.86343  0.45463  1.0000
  N   N18       1.0  0.47480  0.95098  0.38677  1.0000
  H   H283      1.0  0.21193  0.91693  0.35092  1.0000
  H   H284      1.0  0.34177  0.88323  0.15977  1.0000
  H   H285      1.0  0.35889  0.89572  0.53345  1.0000
  C   C176      1.0  0.17701  0.91604  0.34969  1.0000
  H   H286      1.0  0.47988  0.99675  0.36111  1.0000
  H   H287      1.0  0.44223  0.95011  0.33611  1.0000
  H   H288      1.0  0.43790  0.91379  0.36147  1.0000
  C   C177      1.0  0.63227  0.07550  0.41425  1.0000
  H   H289      1.0  0.54441  0.94817  0.38816  1.0000
  H   H290      1.0  0.14708  0.94897  0.42956  1.0000
  H   H291      1.0  0.50249  0.99521  0.40506  1.0000
  H   H292      1.0  0.15387  0.90917  0.16545  1.0000
  H   H293      1.0  0.63667  0.01086  0.46908  1.0000
  H   H294      1.0  0.43715  0.94612  0.43483  1.0000
  H   H295      1.0  0.62106  0.01935  0.08611  1.0000
  C   C178      1.0  0.15410  0.89322  0.36950  1.0000
  H   H296      1.0  0.49490  0.94569  0.44132  1.0000
  H   H297      1.0  0.20506  0.86758  0.15811  1.0000
  H   H298      1.0  0.62477  0.07974  0.20930  1.0000
  H   H299      1.0  0.53271  0.08491  0.54115  1.0000
  C   C179      1.0  0.16988  0.87199  0.58006  1.0000
  C   C180      1.0  0.46844  0.93802  0.42311  1.0000
  S   S75       1.0  0.61785  0.06829  0.31219  1.0000
  S   S76       1.0  0.26735  0.90755  0.54526  1.0000
  S   S77       1.0  0.53672  0.06533  0.25412  1.0000
  H   H300      1.0  0.39623  0.84734  0.10414  1.0000
  S   S78       1.0  0.23678  0.93300  0.45239  1.0000
  Fe  Fe38      1.0  0.28498  0.90826  0.48715  1.0000
  C   C181      1.0  0.21902  0.85297  0.13739  1.0000
  H   H301      1.0  0.46773  0.91142  0.42301  1.0000
  H   H302      1.0  0.17084  0.94846  0.21077  1.0000
  H   H303      1.0  0.17455  0.03334  0.45305  1.0000
  H   H304      1.0  0.39633  0.86126  0.20216  1.0000
  C   C182      1.0  0.39598  0.84097  0.36751  1.0000
  H   H305      1.0  0.61830  0.08330  0.38932  1.0000
  H   H306      1.0  0.14093  0.86421  0.23225  1.0000
  H   H307      1.0  0.20086  0.98123  0.39802  1.0000
  C   C183      1.0  0.40647  0.84748  0.13263  1.0000
  S   S79       1.0  0.22785  0.90784  0.09854  1.0000
  C   C184      1.0  0.61003  0.06484  0.56532  1.0000
  C   C185      1.0  0.30954  0.89702  0.57419  1.0000
  C   C186      1.0  0.62492  0.04445  0.42660  1.0000
  H   H308      1.0  0.15356  0.89430  0.26432  1.0000
  H   H309      1.0  0.43959  0.08293  0.29390  1.0000
  C   C187      1.0  0.17562  0.99951  0.39230  1.0000
  H   H310      1.0  0.30577  0.85050  0.16937  1.0000
  H   H311      1.0  0.16215  0.99434  0.36545  1.0000
  H   H312      1.0  0.32631  0.84284  0.36518  1.0000
  C   C188      1.0  0.15203  0.88935  0.23516  1.0000
  H   H313      1.0  0.24957  0.84476  0.57765  1.0000
  C   C189      1.0  0.38571  0.83700  0.19381  1.0000
  H   H314      1.0  0.42840  0.07140  0.23051  1.0000
  N   N19       1.0  0.14117  0.99955  0.41983  1.0000
  C   C190      1.0  0.33294  0.88234  0.63381  1.0000
  H   H315      1.0  0.60980  0.02651  0.69346  1.0000
  H   H316      1.0  0.19596  0.94346  0.86613  1.0000
  C   C191      1.0  0.44562  0.06186  0.73126  1.0000
  H   H317      1.0  0.54639  0.01111  0.03472  1.0000
  H   H318      1.0  0.32549  0.87840  0.66167  1.0000
  S   S80       1.0  0.41604  0.86536  0.65033  1.0000
  H   H319      1.0  0.26790  0.89634  0.62048  1.0000
  H   H320      1.0  0.54150  0.05211  0.02120  1.0000
  C   C192      1.0  0.55906  0.03565  0.03949  1.0000
  S   S81       1.0  0.35708  0.87431  0.74198  1.0000
  C   C193      1.0  0.43864  0.94112  0.69383  1.0000
  H   H321      1.0  0.21414  0.84783  0.63594  1.0000
  C   C194      1.0  0.16139  0.83706  0.72807  1.0000
  C   C195      1.0  0.46091  0.93605  0.75528  1.0000
  C   C196      1.0  0.34160  0.85135  0.89461  1.0000
  H   H322      1.0  0.41221  0.92330  0.69781  1.0000
  H   H323      1.0  0.43555  0.91774  0.76079  1.0000
  C   C197      1.0  0.52300  0.05257  0.73292  1.0000
  H   H324      1.0  0.42475  0.96529  0.69843  1.0000
  C   C198      1.0  0.21362  0.88642  0.89601  1.0000
  H   H325      1.0  0.44705  0.95983  0.76186  1.0000
  H   H326      1.0  0.49718  0.98366  0.71720  1.0000
  C   C199      1.0  0.37513  0.87774  0.62113  1.0000
  H   H327      1.0  0.15744  0.83899  0.64032  1.0000
  H   H328      1.0  0.41347  0.05774  0.74199  1.0000
  H   H329      1.0  0.44839  0.93956  0.66525  1.0000
  H   H330      1.0  0.61795  0.00833  0.75598  1.0000
  H   H331      1.0  0.26021  0.85764  0.05337  1.0000
  H   H332      1.0  0.48809  0.93150  0.77409  1.0000
  H   H333      1.0  0.19541  0.88842  0.59014  1.0000
  C   C200      1.0  0.17802  0.92249  0.85539  1.0000
  H   H334      1.0  0.16909  0.92784  0.82726  1.0000
  H   H335      1.0  0.17063  0.87081  0.81442  1.0000
  H   H336      1.0  0.47501  0.96677  0.86438  1.0000
  Fe  Fe39      1.0  0.56438  0.98008  0.88082  1.0000
  S   S82       1.0  0.54668  0.93835  0.91525  1.0000
  Fe  Fe40      1.0  0.31995  0.88768  0.99240  1.0000
  S   S83       1.0  0.33973  0.93378  0.96706  1.0000
  H   H337      1.0  0.41643  0.96237  0.93094  1.0000
  Fe  Fe41      1.0  0.27009  0.91962  0.05135  1.0000
  S   S84       1.0  0.28577  0.96913  0.03217  1.0000
  H   H338      1.0  0.16094  0.87461  0.04888  1.0000
  Fe  Fe42      1.0  0.27185  0.94921  0.97790  1.0000
  S   S85       1.0  0.23021  0.97140  0.93597  1.0000
  Fe  Fe43      1.0  0.35253  0.94959  0.02311  1.0000
  S   S86       1.0  0.41193  0.97910  0.03288  1.0000
  S   S87       1.0  0.25037  0.90139  0.99770  1.0000
  S   S88       1.0  0.33870  0.90179  0.04780  1.0000
  C   C201      1.0  0.44661  0.95056  0.86528  1.0000
  H   H339      1.0  0.46368  0.87388  0.89512  1.0000
  H   H340      1.0  0.14543  0.97344  0.90349  1.0000
  C   C202      1.0  0.36282  0.85882  0.86264  1.0000
  H   H341      1.0  0.20010  0.96593  0.00834  1.0000
  C   C203      1.0  0.51228  0.94935  0.95030  1.0000
  C   C204      1.0  0.48509  0.92641  0.96582  1.0000
  C   C205      1.0  0.45463  0.93540  0.99171  1.0000
  C   C206      1.0  0.45205  0.96725  0.00267  1.0000
  C   C207      1.0  0.48015  0.99003  0.98794  1.0000
  C   C208      1.0  0.51022  0.98111  0.96167  1.0000
  H   H342      1.0  0.48686  0.90184  0.95713  1.0000
  H   H343      1.0  0.43292  0.91773  0.00302  1.0000
  H   H344      1.0  0.47757  0.01474  0.99599  1.0000
  H   H345      1.0  0.53152  0.99882  0.95006  1.0000
  C   C209      1.0  0.61635  0.02941  0.99604  1.0000
  H   H346      1.0  0.38066  0.99430  0.91913  1.0000
  C   C210      1.0  0.36947  0.94519  0.87402  1.0000
  H   H347      1.0  0.50402  0.90062  0.68182  1.0000
  N   N20       1.0  0.60642  0.03724  0.03366  1.0000
  C   C211      1.0  0.17946  0.86604  0.84274  1.0000
  Fe  Fe44      1.0  0.58391  0.05075  0.87854  1.0000
  S   S89       1.0  0.43446  0.87159  0.82235  1.0000
  H   H348      1.0  0.44419  0.93891  0.83877  1.0000
  H   H349      1.0  0.52183  0.95881  0.68388  1.0000
  H   H350      1.0  0.60495  0.00498  0.98897  1.0000
  C   C212      1.0  0.62801  0.01409  0.05753  1.0000
  H   H351      1.0  0.45429  0.93167  0.88517  1.0000
  Fe  Fe45      1.0  0.53324  0.01967  0.81894  1.0000
  H   H352      1.0  0.46854  0.88383  0.71461  1.0000
  H   H353      1.0  0.37437  0.92535  0.89338  1.0000
  H   H354      1.0  0.14877  0.86175  0.85771  1.0000
  C   C213      1.0  0.49339  0.90274  0.71014  1.0000
  C   C214      1.0  0.42944  0.86808  0.89498  1.0000
  H   H355      1.0  0.36566  0.93420  0.84720  1.0000
  H   H356      1.0  0.36814  0.00665  0.85452  1.0000
  S   S90       1.0  0.52194  0.02325  0.87783  1.0000
  C   C215      1.0  0.40698  0.86632  0.86271  1.0000
  C   C216      1.0  0.17246  0.96561  0.99090  1.0000
  H   H357      1.0  0.55024  0.04225  0.06733  1.0000
  C   C217      1.0  0.45116  0.08239  0.70204  1.0000
  H   H358      1.0  0.39720  0.98453  0.82100  1.0000
  S   S91       1.0  0.47407  0.02304  0.78460  1.0000
  H   H359      1.0  0.26500  0.87509  0.83875  1.0000
  H   H360      1.0  0.52814  0.07463  0.58772  1.0000
  S   S92       1.0  0.57104  0.97420  0.82167  1.0000
  H   H361      1.0  0.14714  0.92032  0.87071  1.0000
  C   C218      1.0  0.24507  0.89721  0.83810  1.0000
  H   H362      1.0  0.55086  0.04122  0.74487  1.0000
  C   C219      1.0  0.48157  0.04735  0.74704  1.0000
  S   S93       1.0  0.59145  0.05190  0.81915  1.0000
  N   N21       1.0  0.40636  0.96773  0.87471  1.0000
  N   N22       1.0  0.47567  0.93478  0.71777  1.0000
  H   H363      1.0  0.33850  0.95721  0.88127  1.0000
  H   H364      1.0  0.23284  0.90611  0.90816  1.0000
  C   C220      1.0  0.39886  0.99374  0.84878  1.0000
  N   N23       1.0  0.20406  0.89301  0.85807  1.0000
  C   C221      1.0  0.17788  0.96963  0.95409  1.0000
  H   H365      1.0  0.42556  0.01165  0.84949  1.0000
  C   C222      1.0  0.40797  0.86123  0.92710  1.0000
  H   H366      1.0  0.60044  0.04646  0.97734  1.0000
  H   H367      1.0  0.43819  0.99836  0.91249  1.0000
  C   C223      1.0  0.41052  0.98137  0.91084  1.0000
  H   H368      1.0  0.53792  0.95540  0.72979  1.0000
  H   H369      1.0  0.42538  0.86218  0.95209  1.0000
  H   H370      1.0  0.18329  0.88410  0.91202  1.0000
  Fe  Fe46      1.0  0.39788  0.84613  0.77949  1.0000
  C   C224      1.0  0.50967  0.95919  0.71186  1.0000
  H   H371      1.0  0.30777  0.84459  0.89444  1.0000
  S   S94       1.0  0.62570  0.00779  0.88697  1.0000
  H   H372      1.0  0.52159  0.89714  0.72749  1.0000
  C   C225      1.0  0.30034  0.89241  0.61045  1.0000
  H   H373      1.0  0.34506  0.85864  0.83790  1.0000
  C   C226      1.0  0.36431  0.85225  0.92676  1.0000
  H   H374      1.0  0.15275  0.86050  0.73775  1.0000
  H   H375      1.0  0.26481  0.91703  0.84929  1.0000
  H   H376      1.0  0.23882  0.90270  0.80947  1.0000
  H   H377      1.0  0.61709  0.98922  0.05214  1.0000
  S   S95       1.0  0.24007  0.84798  0.75880  1.0000
  H   H378      1.0  0.23242  0.86399  0.89929  1.0000
  Fe  Fe47      1.0  0.62874  0.00649  0.82732  1.0000
  S   S96       1.0  0.33813  0.84177  0.96636  1.0000
  H   H379      1.0  0.19873  0.84360  0.84308  1.0000
  C   C227      1.0  0.62210  0.06982  0.04166  1.0000
  Fe  Fe48      1.0  0.38721  0.84382  0.69978  1.0000
  C   C228      1.0  0.52846  0.07265  0.70323  1.0000
  H   H380      1.0  0.56063  0.07701  0.69266  1.0000
  C   C229      1.0  0.38461  0.88302  0.58503  1.0000
  N   N24       1.0  0.18133  0.83820  0.58650  1.0000
  H   H381      1.0  0.61652  0.07623  0.07013  1.0000
  C   C230      1.0  0.25013  0.84744  0.07845  1.0000
  H   H382      1.0  0.59941  0.04623  0.58476  1.0000
  C   C231      1.0  0.14162  0.96964  0.93183  1.0000
  Fe  Fe49      1.0  0.92941  0.28589  0.19276  1.0000
  S   S97       1.0  0.94417  0.24336  0.15858  1.0000
  H   H383      1.0  0.94643  0.31471  0.26935  1.0000
  Fe  Fe50      1.0  0.98459  0.26210  0.25388  1.0000
  S   S98       1.0  0.00376  0.21703  0.22598  1.0000
  H   H384      1.0  0.09423  0.31481  0.31449  1.0000
  Fe  Fe51      1.0  0.01246  0.24882  0.17805  1.0000
  C   C232      1.0  0.65768  0.09669  0.43421  1.0000
  Fe  Fe52      1.0  0.93395  0.21553  0.20913  1.0000
  S   S99       1.0  0.88894  0.17352  0.21040  1.0000
  S   S100      1.0  0.99861  0.29400  0.20749  1.0000
  S   S101      1.0  0.91377  0.25766  0.24182  1.0000
  H   H385      1.0  0.93353  0.22122  0.40967  1.0000
  C   C233      1.0  0.87580  0.29821  0.11311  1.0000
  H   H386      1.0  0.94554  0.22994  0.36371  1.0000
  H   H387      1.0  0.89060  0.22212  0.37730  1.0000
  H   H388      1.0  0.82626  0.22826  0.15197  1.0000
  C   C234      1.0  0.99782  0.30151  0.10054  1.0000
  H   H389      1.0  0.77853  0.09742  0.21054  1.0000
  C   C235      1.0  0.89895  0.28400  0.35980  1.0000
  C   C236      1.0  0.87288  0.10612  0.13541  1.0000
  C   C237      1.0  0.91293  0.10568  0.11786  1.0000
  C   C238      1.0  0.94613  0.12617  0.12900  1.0000
  C   C239      1.0  0.93910  0.14720  0.15756  1.0000
  C   C240      1.0  0.89928  0.14701  0.17550  1.0000
  C   C241      1.0  0.86632  0.12635  0.16454  1.0000
  H   H390      1.0  0.66344  0.12065  0.42435  1.0000
  H   H391      1.0  0.86627  0.27506  0.35229  1.0000
  H   H392      1.0  0.96464  0.16325  0.16593  1.0000
  H   H393      1.0  0.83535  0.12662  0.17806  1.0000
  H   H394      1.0  0.95386  0.30889  0.40712  1.0000
  S   S102      1.0  0.93677  0.31586  0.48588  1.0000
  C   C242      1.0  0.00448  0.33458  0.34287  1.0000
  C   C243      1.0  0.99037  0.31651  0.31383  1.0000
  H   H395      1.0  0.08533  0.20387  0.19514  1.0000
  C   C244      1.0  0.96062  0.30285  0.55482  1.0000
  C   C245      1.0  0.10988  0.29645  0.24695  1.0000
  C   C246      1.0  0.88323  0.27239  0.42159  1.0000
  H   H396      1.0  0.77317  0.21049  0.15411  1.0000
  H   H397      1.0  0.98222  0.27878  0.38218  1.0000
  H   H398      1.0  0.96916  0.27231  0.42832  1.0000
  H   H399      1.0  0.10768  0.25727  0.30315  1.0000
  H   H400      1.0  0.65203  0.11238  0.15848  1.0000
  S   S103      1.0  0.01070  0.27803  0.30661  1.0000
  H   H401      1.0  0.85138  0.26148  0.41496  1.0000
  H   H402      1.0  0.97711  0.12603  0.11538  1.0000
  H   H403      1.0  0.89479  0.26137  0.44691  1.0000
  S   S104      1.0  0.70945  0.11371  0.48975  1.0000
  Fe  Fe53      1.0  0.74287  0.09686  0.53963  1.0000
  C   C247      1.0  0.92141  0.23381  0.38550  1.0000
  S   S105      1.0  0.81338  0.10646  0.54925  1.0000
  H   H404      1.0  0.87412  0.21799  0.10064  1.0000
  H   H405      1.0  0.79957  0.14908  0.11284  1.0000
  S   S106      1.0  0.07038  0.25173  0.14158  1.0000
  H   H406      1.0  0.07971  0.18515  0.57423  1.0000
  N   N25       1.0  0.91510  0.26822  0.39245  1.0000
  C   C248      1.0  0.11515  0.21680  0.19073  1.0000
  C   C249      1.0  0.95953  0.32539  0.52725  1.0000
  H   H407      1.0  0.87457  0.27636  0.12829  1.0000
  H   H408      1.0  0.11915  0.27869  0.22632  1.0000
  H   H409      1.0  0.94919  0.27877  0.55018  1.0000
  H   H410      1.0  0.87764  0.29813  0.42731  1.0000
  N   N26       1.0  0.14061  0.29618  0.27708  1.0000
  C   C250      1.0  0.87998  0.32748  0.13070  1.0000
  C   C251      1.0  0.85497  0.19596  0.09533  1.0000
  H   H411      1.0  0.89671  0.31038  0.36326  1.0000
  C   C252      1.0  0.80711  0.20660  0.14498  1.0000
  S   S107      1.0  0.70907  0.09693  0.10001  1.0000
  C   C253      1.0  0.95692  0.28265  0.40290  1.0000
  C   C254      1.0  0.09894  0.20767  0.57292  1.0000
  H   H412      1.0  0.03015  0.32578  0.35984  1.0000
  H   H413      1.0  0.92085  0.27950  0.33675  1.0000
  H   H414      1.0  0.75063  0.17149  0.10742  1.0000
  C   C255      1.0  0.78513  0.16991  0.09876  1.0000
  H   H415      1.0  0.00797  0.30395  0.12881  1.0000
  C   C256      1.0  0.78956  0.22647  0.08634  1.0000
  S   S108      1.0  0.89004  0.32854  0.17659  1.0000
  H   H416      1.0  0.82043  0.18653  0.16097  1.0000
  H   H417      1.0  0.96213  0.30441  0.09965  1.0000
  H   H418      1.0  0.75472  0.22950  0.09335  1.0000
  H   H419      1.0  0.07653  0.29034  0.25593  1.0000
  N   N27       1.0  0.80919  0.19972  0.10635  1.0000
  H   H420      1.0  0.87088  0.17611  0.11004  1.0000
  C   C257      1.0  0.95761  0.32833  0.29182  1.0000
  H   H421      1.0  0.84694  0.09084  0.12666  1.0000
  C   C258      1.0  0.11745  0.24029  0.16431  1.0000
  H   H422      1.0  0.10853  0.32026  0.23383  1.0000
  H   H423      1.0  0.80618  0.24948  0.09220  1.0000
  C   C259      1.0  0.12721  0.32011  0.30385  1.0000
  H   H424      1.0  0.10333  0.21415  0.54435  1.0000
  H   H425      1.0  0.00546  0.27668  0.09209  1.0000
  H   H426      1.0  0.78975  0.08966  0.45894  1.0000
  H   H427      1.0  0.93380  0.09384  0.47522  1.0000
  H   H428      1.0  0.07914  0.32332  0.10748  1.0000
  C   C260      1.0  0.67588  0.08697  0.46660  1.0000
  C   C261      1.0  0.14071  0.26415  0.29372  1.0000
  H   H429      1.0  0.64119  0.12318  0.54959  1.0000
  C   C262      1.0  0.65953  0.08718  0.15982  1.0000
  H   H430      1.0  0.82625  0.08703  0.40028  1.0000
  C   C263      1.0  0.00531  0.32104  0.04042  1.0000
  C   C264      1.0  0.65178  0.09232  0.92023  1.0000
  S   S109      1.0  0.06496  0.31595  0.71598  1.0000
  H   H431      1.0  0.90044  0.23081  0.70550  1.0000
  H   H432      1.0  0.97416  0.29467  0.61040  1.0000
  Fe  Fe54      1.0  0.02274  0.31213  0.66784  1.0000
  S   S110      1.0  0.06637  0.27895  0.63830  1.0000
  H   H433      1.0  0.07865  0.22653  0.58545  1.0000
  Fe  Fe55      1.0  0.10578  0.27967  0.68805  1.0000
  H   H434      1.0  0.88788  0.12593  0.61636  1.0000
  Fe  Fe56      1.0  0.02855  0.23995  0.66451  1.0000
  C   C265      1.0  0.87667  0.32564  0.05609  1.0000
  H   H435      1.0  0.11360  0.17354  0.63161  1.0000
  H   H436      1.0  0.01226  0.29656  0.03055  1.0000
  S   S111      1.0  0.81405  0.16704  0.62968  1.0000
  H   H437      1.0  0.72838  0.09885  0.98491  1.0000
  H   H438      1.0  0.93521  0.21192  0.79770  1.0000
  C   C266      1.0  0.89941  0.15001  0.62085  1.0000
  S   S112      1.0  0.01474  0.19430  0.63523  1.0000
  C   C267      1.0  0.95910  0.18728  0.62916  1.0000
  C   C268      1.0  0.92936  0.21213  0.63328  1.0000
  C   C269      1.0  0.88479  0.20581  0.63237  1.0000
  C   C270      1.0  0.86975  0.17472  0.62658  1.0000
  S   S113      1.0  0.88230  0.32399  0.00968  1.0000
  H   H439      1.0  0.94060  0.23626  0.63701  1.0000
  H   H440      1.0  0.08614  0.33245  0.92182  1.0000
  C   C271      1.0  0.97473  0.31189  0.58890  1.0000
  S   S114      1.0  0.07194  0.23739  0.71220  1.0000
  H   H441      1.0  0.91871  0.24733  0.74711  1.0000
  H   H442      1.0  0.89238  0.17197  0.69907  1.0000
  H   H443      1.0  0.86543  0.23021  0.74373  1.0000
  Fe  Fe57      1.0  0.79276  0.12115  0.60420  1.0000
  H   H444      1.0  0.92921  0.16943  0.79337  1.0000
  C   C272      1.0  0.13347  0.19566  0.62908  1.0000
  C   C273      1.0  0.71451  0.09437  0.95896  1.0000
  C   C274      1.0  0.94413  0.15629  0.62228  1.0000
  C   C275      1.0  0.91582  0.19278  0.78453  1.0000
  C   C276      1.0  0.67011  0.09942  0.95335  1.0000
  H   H445      1.0  0.88202  0.19457  0.79479  1.0000
  N   N28       1.0  0.91734  0.19601  0.74528  1.0000
  C   C277      1.0  0.89971  0.22748  0.73495  1.0000
  C   C278      1.0  0.89118  0.17045  0.72869  1.0000
  S   S115      1.0  0.98038  0.27321  0.68957  1.0000
  S   S116      1.0  0.81044  0.09774  0.03981  1.0000
  C   C279      1.0  0.96277  0.19345  0.73297  1.0000
  H   H446      1.0  0.87347  0.27460  0.06201  1.0000
  H   H447      1.0  0.85643  0.17202  0.73660  1.0000
  H   H448      1.0  0.05736  0.31578  0.86312  1.0000
  H   H449      1.0  0.11106  0.31048  0.84557  1.0000
  H   H450      1.0  0.96984  0.32512  0.03780  1.0000
  H   H451      1.0  0.86185  0.22503  0.63625  1.0000
  H   H452      1.0  0.96703  0.13700  0.61890  1.0000
  H   H453      1.0  0.98358  0.21208  0.74536  1.0000
  H   H454      1.0  0.96530  0.19643  0.70358  1.0000
  H   H455      1.0  0.97696  0.16981  0.73970  1.0000
  H   H456      1.0  0.99333  0.33053  0.76147  1.0000
  H   H457      1.0  0.07338  0.33642  0.82334  1.0000
  H   H458      1.0  0.90314  0.14633  0.73621  1.0000
  S   S117      1.0  0.99975  0.26687  0.79071  1.0000
  Fe  Fe58      1.0  0.02659  0.27370  0.73550  1.0000
  S   S118      1.0  0.72209  0.11625  0.59232  1.0000
  C   C280      1.0  0.96974  0.30428  0.84516  1.0000
  C   C281      1.0  0.87445  0.29726  0.07575  1.0000
  H   H459      1.0  0.85781  0.19054  0.06637  1.0000
  C   C282      1.0  0.98430  0.33126  0.78927  1.0000
  H   H460      1.0  0.07672  0.29633  0.07068  1.0000
  H   H461      1.0  0.64978  0.10768  0.97492  1.0000
  C   C283      1.0  0.98302  0.30317  0.80944  1.0000
  N   N29       1.0  0.01978  0.32526  0.07763  1.0000
  H   H462      1.0  0.78526  0.16431  0.06976  1.0000
  H   H463      1.0  0.96818  0.28254  0.86076  1.0000
  H   H464      1.0  0.79161  0.22255  0.05701  1.0000
  C   C284      1.0  0.08494  0.32836  0.84998  1.0000
  H   H465      1.0  0.11582  0.21485  0.64348  1.0000
  H   H466      1.0  0.14027  0.32591  0.90514  1.0000
  H   H467      1.0  0.94879  0.33433  0.88848  1.0000
  C   C285      1.0  0.95919  0.33362  0.86099  1.0000
  C   C286      1.0  0.06722  0.32068  0.07965  1.0000
  H   H468      1.0  0.82319  0.42843  0.18813  1.0000
  H   H469      1.0  0.83828  0.46948  0.23355  1.0000
  H   H470      1.0  0.89144  0.47412  0.21526  1.0000
  H   H471      1.0  0.92560  0.41024  0.57007  1.0000
  S   S119      1.0  0.92228  0.40970  0.34078  1.0000
  Fe  Fe59      1.0  0.77607  0.53554  0.16140  1.0000
  H   H472      1.0  0.94026  0.42730  0.21056  1.0000
  H   H473      1.0  0.84503  0.43979  0.11458  1.0000
  H   H474      1.0  0.92135  0.38841  0.22354  1.0000
  S   S120      1.0  0.73390  0.54641  0.20859  1.0000
  H   H475      1.0  0.87715  0.43204  0.17078  1.0000
  Fe  Fe60      1.0  0.68067  0.55149  0.16861  1.0000
  H   H476      1.0  0.85837  0.41214  0.28143  1.0000
  H   H477      1.0  0.65746  0.56599  0.28229  1.0000
  H   H478      1.0  0.85699  0.39367  0.18482  1.0000
  C   C287      1.0  0.66585  0.50173  0.50911  1.0000
  C   C288      1.0  0.95066  0.37505  0.32924  1.0000
  C   C289      1.0  0.91895  0.41437  0.22977  1.0000
  N   N30       1.0  0.87365  0.42562  0.22746  1.0000
  S   S121      1.0  0.72160  0.53599  0.12218  1.0000
  C   C290      1.0  0.84658  0.40825  0.25370  1.0000
  H   H479      1.0  0.84228  0.54212  0.10701  1.0000
  H   H480      1.0  0.93243  0.41815  0.25700  1.0000
  S   S122      1.0  0.82113  0.49357  0.15867  1.0000
  C   C291      1.0  0.85701  0.41961  0.19121  1.0000
  H   H481      1.0  0.81224  0.41627  0.25262  1.0000
  H   H482      1.0  0.84694  0.38206  0.24853  1.0000
  H   H483      1.0  0.99595  0.37793  0.37268  1.0000
  H   H484      1.0  0.88483  0.46563  0.26214  1.0000
  C   C292      1.0  0.87206  0.46022  0.23506  1.0000
  H   H485      1.0  0.91056  0.36520  0.28381  1.0000
  C   C293      1.0  0.11177  0.45317  0.52214  1.0000
  H   H486      1.0  0.03078  0.50474  0.54430  1.0000
  C   C294      1.0  0.84242  0.49124  0.11528  1.0000
  C   C295      1.0  0.85161  0.46152  0.09998  1.0000
  H   H487      1.0  0.11416  0.37900  0.55529  1.0000
  H   H488      1.0  0.10269  0.40917  0.49344  1.0000
  H   H489      1.0  0.64933  0.51559  0.53049  1.0000
  H   H490      1.0  0.71944  0.40253  0.53290  1.0000
  H   H491      1.0  0.69618  0.49174  0.52066  1.0000
  Fe  Fe61      1.0  0.91133  0.40784  0.39989  1.0000
  H   H492      1.0  0.67733  0.55235  0.34530  1.0000
  C   C296      1.0  0.73992  0.42311  0.53757  1.0000
  H   H493      1.0  0.97564  0.53324  0.49161  1.0000
  H   H494      1.0  0.89735  0.44731  0.56843  1.0000
  S   S123      1.0  0.88259  0.44773  0.43226  1.0000
  H   H495      1.0  0.81514  0.49558  0.55485  1.0000
  S   S124      1.0  0.79232  0.56036  0.55648  1.0000
  H   H496      1.0  0.94365  0.56431  0.56104  1.0000
  Fe  Fe62      1.0  0.84134  0.40878  0.45554  1.0000
  S   S125      1.0  0.77146  0.41303  0.47055  1.0000
  Fe  Fe63      1.0  0.93145  0.43304  0.47357  1.0000
  S   S126      1.0  0.96552  0.46739  0.51013  1.0000
  C   C297      1.0  0.66077  0.45866  0.46660  1.0000
  C   C298      1.0  0.92190  0.54827  0.54555  1.0000
  C   C299      1.0  0.02157  0.46090  0.51535  1.0000
  C   C300      1.0  0.04202  0.43370  0.50164  1.0000
  C   C301      1.0  0.97423  0.35650  0.53344  1.0000
  C   C302      1.0  0.93751  0.35732  0.29973  1.0000
  H   H497      1.0  0.98510  0.57370  0.50519  1.0000
  H   H498      1.0  0.96056  0.56549  0.46271  1.0000
  C   C303      1.0  0.73746  0.43949  0.57006  1.0000
  C   C304      1.0  0.76921  0.43308  0.51127  1.0000
  C   C305      1.0  0.79658  0.45910  0.51760  1.0000
  C   C306      1.0  0.79353  0.47584  0.54982  1.0000
  C   C307      1.0  0.98824  0.36552  0.56737  1.0000
  H   H499      1.0  0.81972  0.46651  0.49747  1.0000
  C   C308      1.0  0.98467  0.36390  0.35049  1.0000
  H   H500      1.0  0.69073  0.44737  0.47702  1.0000
  H   H501      1.0  0.88980  0.54859  0.55915  1.0000
  C   C309      1.0  0.69791  0.57422  0.34587  1.0000
  H   H502      1.0  0.65435  0.44291  0.53610  1.0000
  H   H503      1.0  0.88557  0.54417  0.46014  1.0000
  N   N31       1.0  0.91846  0.55871  0.50798  1.0000
  S   S127      1.0  0.96412  0.39685  0.43887  1.0000
  H   H504      1.0  0.97456  0.37378  0.51210  1.0000
  H   H505      1.0  0.01891  0.36160  0.11803  1.0000
  C   C310      1.0  0.08710  0.42991  0.50480  1.0000
  S   S128      1.0  0.86624  0.36979  0.42030  1.0000
  H   H506      1.0  0.02337  0.41557  0.48848  1.0000
  S   S129      1.0  0.88701  0.39802  0.49982  1.0000
  C   C311      1.0  0.04626  0.48378  0.53333  1.0000
  H   H507      1.0  0.11013  0.49791  0.55032  1.0000
  Fe  Fe64      1.0  0.91637  0.36263  0.46250  1.0000
  H   H508      1.0  0.99910  0.38974  0.57196  1.0000
  C   C312      1.0  0.09119  0.47992  0.53672  1.0000
  H   H509      1.0  0.67071  0.47478  0.44439  1.0000
  H   H510      1.0  0.82946  0.41637  0.57092  1.0000
  C   C313      1.0  0.84916  0.51912  0.09542  1.0000
  H   H511      1.0  0.90058  0.51202  0.48920  1.0000
  H   H512      1.0  0.88190  0.37865  0.12449  1.0000
  C   C314      1.0  0.76356  0.46629  0.57586  1.0000
  C   C315      1.0  0.96184  0.55780  0.49111  1.0000
  C   C316      1.0  0.88876  0.53712  0.48864  1.0000
  H   H513      1.0  0.85574  0.53718  0.50064  1.0000
  H   H514      1.0  0.73132  0.56717  0.33783  1.0000
  C   C317      1.0  0.87933  0.35591  0.11110  1.0000
  H   H515      1.0  0.67552  0.51905  0.48794  1.0000
  H   H516      1.0  0.65403  0.58639  0.43134  1.0000
  H   H517      1.0  0.71235  0.57961  0.27584  1.0000
  H   H518      1.0  0.97296  0.36190  0.08875  1.0000
  H   H519      1.0  0.93501  0.52359  0.54760  1.0000
  C   C318      1.0  0.00855  0.35771  0.09000  1.0000
  H   H520      1.0  0.69931  0.58270  0.37397  1.0000
  H   H521      1.0  0.85723  0.37922  0.57580  1.0000
  H   H522      1.0  0.12651  0.34460  0.29234  1.0000
  H   H523      1.0  0.66255  0.58403  0.08316  1.0000
  S   S130      1.0  0.79563  0.58657  0.15238  1.0000
  C   C319      1.0  0.65164  0.58653  0.48874  1.0000
  H   H524      1.0  0.67807  0.49932  0.01238  1.0000
  Fe  Fe65      1.0  0.75939  0.54000  0.60462  1.0000
  S   S131      1.0  0.75887  0.48742  0.61584  1.0000
  C   C320      1.0  0.10491  0.42919  0.95539  1.0000
  H   H525      1.0  0.09543  0.34550  0.64580  1.0000
  H   H526      1.0  0.08075  0.35249  0.58127  1.0000
  H   H527      1.0  0.78194  0.49603  0.96105  1.0000
  S   S132      1.0  0.07049  0.39385  0.01034  1.0000
  C   C321      1.0  0.13760  0.37097  0.85389  1.0000
  N   N32       1.0  0.87829  0.41620  0.61159  1.0000
  N   N33       1.0  0.10025  0.35549  0.87175  1.0000
  H   H528      1.0  0.93852  0.44085  0.60154  1.0000
  H   H529      1.0  0.87275  0.43673  0.05275  1.0000
  H   H530      1.0  0.88380  0.45433  0.64966  1.0000
  C   C322      1.0  0.85917  0.44258  0.63247  1.0000
  H   H531      1.0  0.97566  0.38232  0.78955  1.0000
  H   H532      1.0  0.92614  0.40362  0.65091  1.0000
  C   C323      1.0  0.86553  0.51734  0.06059  1.0000
  H   H533      1.0  0.87678  0.37690  0.05876  1.0000
  H   H534      1.0  0.02190  0.33812  0.02222  1.0000
  H   H535      1.0  0.12579  0.36360  0.92410  1.0000
  H   H536      1.0  0.72714  0.48141  0.96312  1.0000
  H   H537      1.0  0.07320  0.43964  0.95242  1.0000
  C   C324      1.0  0.91139  0.42927  0.58695  1.0000
  H   H538      1.0  0.68843  0.53984  0.99948  1.0000
  H   H539      1.0  0.73755  0.52239  0.95132  1.0000
  H   H540      1.0  0.80814  0.53420  0.00497  1.0000
  C   C325      1.0  0.89855  0.39290  0.63601  1.0000
  C   C326      1.0  0.06480  0.37890  0.87599  1.0000
  H   H541      1.0  0.71482  0.43175  0.59044  1.0000
  H   H542      1.0  0.76149  0.49099  0.05799  1.0000
  Fe  Fe66      1.0  0.94823  0.39947  0.92074  1.0000
  S   S133      1.0  0.98095  0.43930  0.95026  1.0000
  H   H543      1.0  0.12873  0.37994  0.82695  1.0000
  H   H544      1.0  0.05319  0.38797  0.84978  1.0000
  S   S134      1.0  0.94730  0.40419  0.02377  1.0000
  H   H545      1.0  0.79298  0.47621  0.02126  1.0000
  Fe  Fe67      1.0  0.92095  0.43939  0.98429  1.0000
  S   S135      1.0  0.88989  0.48591  0.00015  1.0000
  Fe  Fe68      1.0  0.00419  0.40078  0.98699  1.0000
  C   C327      1.0  0.76007  0.48436  0.02924  1.0000
  S   S136      1.0  0.88579  0.40293  0.95138  1.0000
  C   C328      1.0  0.70054  0.51981  0.01624  1.0000
  C   C329      1.0  0.74811  0.50240  0.96888  1.0000
  H   H546      1.0  0.91164  0.37204  0.62115  1.0000
  H   H547      1.0  0.69701  0.56436  0.68426  1.0000
  C   C330      1.0  0.87742  0.35495  0.07381  1.0000
  Fe  Fe69      1.0  0.91660  0.36753  0.98837  1.0000
  H   H548      1.0  0.87487  0.38353  0.65589  1.0000
  H   H549      1.0  0.13209  0.45460  0.91048  1.0000
  C   C331      1.0  0.11266  0.40712  0.98266  1.0000
  C   C332      1.0  0.87448  0.48766  0.04519  1.0000
  H   H550      1.0  0.76310  0.56065  0.99807  1.0000
  C   C333      1.0  0.67325  0.55734  0.73790  1.0000
  C   C334      1.0  0.96194  0.36186  0.84110  1.0000
  S   S137      1.0  0.78600  0.57658  0.64209  1.0000
  H   H551      1.0  0.83232  0.43408  0.65002  1.0000
  C   C335      1.0  0.77414  0.53929  0.01322  1.0000
  C   C336      1.0  0.10038  0.37480  0.58236  1.0000
  H   H552      1.0  0.77459  0.54606  0.04194  1.0000
  S   S138      1.0  0.95298  0.39923  0.86086  1.0000
  N   N34       1.0  0.74568  0.51146  0.00692  1.0000
  S   S139      1.0  0.97623  0.36081  0.95492  1.0000
  H   H553      1.0  0.09287  0.38771  0.65226  1.0000
  H   H554      1.0  0.73796  0.46349  0.02673  1.0000
  H   H555      1.0  0.69778  0.52745  0.04457  1.0000
  S   S140      1.0  0.00233  0.35568  0.63811  1.0000
  C   C337      1.0  0.68503  0.57587  0.70813  1.0000
  H   H556      1.0  0.07773  0.39482  0.58809  1.0000
  H   H557      1.0  0.81745  0.39110  0.60831  1.0000
  C   C338      1.0  0.11502  0.36775  0.64511  1.0000
  S   S141      1.0  0.69659  0.56544  0.59560  1.0000
  H   H558      1.0  0.87106  0.53901  0.04547  1.0000
  C   C339      1.0  0.86746  0.45973  0.06492  1.0000
  H   H559      1.0  0.67644  0.53164  0.73692  1.0000
  H   H560      1.0  0.03632  0.36818  0.88983  1.0000
  H   H561      1.0  0.84540  0.46128  0.61475  1.0000
  C   C340      1.0  0.65659  0.57197  0.76857  1.0000
  H   H562      1.0  0.07515  0.39989  0.89193  1.0000
  C   C341      1.0  0.84407  0.40001  0.59082  1.0000
  N   N35       1.0  0.13479  0.37257  0.60958  1.0000
  C   C342      1.0  0.98773  0.34342  0.59525  1.0000
  C   C343      1.0  0.97394  0.36056  0.80511  1.0000
  H   H563      1.0  0.02448  0.37635  0.07327  1.0000
  C   C344      1.0  0.11367  0.34375  0.90723  1.0000
  C   C345      1.0  0.13834  0.43780  0.93181  1.0000
  H   H564      1.0  0.08482  0.33837  0.06266  1.0000
  H   H565      1.0  0.13962  0.42363  0.61418  1.0000
  H   H566      1.0  0.14004  0.36549  0.66628  1.0000
  Fe  Fe70      1.0  0.90464  0.78293  0.12943  1.0000
  S   S142      1.0  0.96574  0.76349  0.15273  1.0000
  H   H567      1.0  0.66823  0.60557  0.26593  1.0000
  Fe  Fe71      1.0  0.88093  0.81921  0.19568  1.0000
  S   S143      1.0  0.93942  0.80306  0.22641  1.0000
  N   N36       1.0  0.84653  0.67361  0.10734  1.0000
  Fe  Fe72      1.0  0.97496  0.81260  0.17503  1.0000
  C   C346      1.0  0.70865  0.62776  0.32342  1.0000
  Fe  Fe73      1.0  0.92572  0.75525  0.20175  1.0000
  S   S144      1.0  0.93240  0.70734  0.22743  1.0000
  H   H568      1.0  0.14019  0.82121  0.54438  1.0000
  S   S145      1.0  0.86368  0.77042  0.17642  1.0000
  N   N37       1.0  0.68056  0.59915  0.32192  1.0000
  S   S146      1.0  0.69152  0.60367  0.15859  1.0000
  H   H569      1.0  0.92282  0.60857  0.52137  1.0000
  S   S147      1.0  0.91772  0.83314  0.14661  1.0000
  C   C347      1.0  0.87073  0.82174  0.30251  1.0000
  C   C348      1.0  0.80501  0.68809  0.24041  1.0000
  S   S148      1.0  0.75347  0.63525  0.23769  1.0000
  H   H570      1.0  0.89319  0.68232  0.14892  1.0000
  H   H571      1.0  0.88843  0.79877  0.29924  1.0000
  C   C349      1.0  0.86512  0.70767  0.57356  1.0000
  C   C350      1.0  0.86064  0.67442  0.57420  1.0000
  C   C351      1.0  0.88095  0.65433  0.22525  1.0000
  C   C352      1.0  0.88265  0.68741  0.23035  1.0000
  C   C353      1.0  0.84463  0.70434  0.23761  1.0000
  H   H572      1.0  0.87188  0.83435  0.27641  1.0000
  Fe  Fe74      1.0  0.74762  0.59763  0.19561  1.0000
  H   H573      1.0  0.02996  0.82533  0.24653  1.0000
  H   H574      1.0  0.84594  0.72983  0.24196  1.0000
  H   H575      1.0  0.84015  0.72220  0.56145  1.0000
  C   C354      1.0  0.09040  0.80523  0.26448  1.0000
  H   H576      1.0  0.78899  0.80759  0.09686  1.0000
  H   H577      1.0  0.08066  0.80427  0.29221  1.0000
  C   C355      1.0  0.84113  0.63820  0.22701  1.0000
  H   H578      1.0  0.83501  0.62585  0.08869  1.0000
  H   H579      1.0  0.91107  0.69319  0.10475  1.0000
  C   C356      1.0  0.86143  0.64070  0.10033  1.0000
  H   H580      1.0  0.77306  0.82890  0.13668  1.0000
  C   C357      1.0  0.80964  0.67280  0.13261  1.0000
  H   H581      1.0  0.81887  0.66134  0.15825  1.0000
  H   H582      1.0  0.70998  0.63791  0.35078  1.0000
  H   H583      1.0  0.91042  0.64123  0.21974  1.0000
  C   C358      1.0  0.80325  0.65508  0.23489  1.0000
  C   C359      1.0  0.13152  0.79439  0.25437  1.0000
  H   H584      1.0  0.83260  0.66346  0.56220  1.0000
  H   H585      1.0  0.95503  0.82743  0.31811  1.0000
  H   H586      1.0  0.77568  0.70115  0.24646  1.0000
  C   C360      1.0  0.11591  0.80835  0.19286  1.0000
  H   H587      1.0  0.90760  0.80101  0.36321  1.0000
  C   C361      1.0  0.06170  0.81701  0.23863  1.0000
  H   H588      1.0  0.83988  0.61265  0.22298  1.0000
  H   H589      1.0  0.79797  0.69727  0.13897  1.0000
  C   C362      1.0  0.88866  0.82355  0.36507  1.0000
  Fe  Fe75      1.0  0.73158  0.58889  0.54982  1.0000
  Fe  Fe76      1.0  0.73798  0.58791  0.11621  1.0000
  C   C363      1.0  0.90146  0.59169  0.50664  1.0000
  H   H590      1.0  0.82888  0.82107  0.12774  1.0000
  H   H591      1.0  0.69687  0.64681  0.30506  1.0000
  C   C364      1.0  0.88242  0.69239  0.12287  1.0000
  C   C365      1.0  0.07463  0.81881  0.20284  1.0000
  S   S149      1.0  0.70728  0.59404  0.49347  1.0000
  H   H592      1.0  0.08863  0.81620  0.09542  1.0000
  H   H593      1.0  0.87252  0.71750  0.12761  1.0000
  H   H594      1.0  0.78177  0.65906  0.12155  1.0000
  C   C366      1.0  0.79774  0.82759  0.11499  1.0000
  H   H595      1.0  0.12598  0.80940  0.16522  1.0000
  H   H596      1.0  0.87234  0.62876  0.12530  1.0000
  H   H597      1.0  0.89859  0.60049  0.47873  1.0000
  H   H598      1.0  0.74244  0.62213  0.31494  1.0000
  H   H599      1.0  0.86879  0.59331  0.51919  1.0000
  S   S150      1.0  0.04037  0.83579  0.17079  1.0000
  H   H600      1.0  0.83611  0.81599  0.30801  1.0000
  H   H601      1.0  0.85490  0.81723  0.37289  1.0000
  C   C367      1.0  0.67952  0.58694  0.28498  1.0000
  H   H602      1.0  0.88908  0.64039  0.08120  1.0000
  H   H603      1.0  0.11105  0.83023  0.99900  1.0000
  S   S151      1.0  0.69263  0.63257  0.67161  1.0000
  C   C368      1.0  0.86536  0.68440  0.68306  1.0000
  H   H604      1.0  0.88066  0.68743  0.70965  1.0000
  H   H605      1.0  0.81185  0.71175  0.73103  1.0000
  H   H606      1.0  0.81316  0.65574  0.63622  1.0000
  C   C369      1.0  0.79869  0.70845  0.70368  1.0000
  H   H607      1.0  0.76351  0.67369  0.65110  1.0000
  N   N38       1.0  0.81789  0.68025  0.68608  1.0000
  H   H608      1.0  0.82167  0.65282  0.73460  1.0000
  S   S152      1.0  0.98208  0.79119  0.66859  1.0000
  Fe  Fe77      1.0  0.05014  0.79282  0.64720  1.0000
  S   S153      1.0  0.10527  0.76562  0.67170  1.0000
  H   H609      1.0  0.96220  0.71466  0.61558  1.0000
  H   H610      1.0  0.66283  0.64948  0.74142  1.0000
  H   H611      1.0  0.82182  0.62950  0.69439  1.0000
  H   H612      1.0  0.88071  0.66333  0.67005  1.0000
  Fe  Fe78      1.0  0.81391  0.59934  0.59300  1.0000
  C   C370      1.0  0.02149  0.80362  0.82033  1.0000
  H   H613      1.0  0.96617  0.75406  0.07712  1.0000
  C   C371      1.0  0.90138  0.72226  0.58886  1.0000
  H   H614      1.0  0.07779  0.74376  0.78037  1.0000
  H   H615      1.0  0.82722  0.83614  0.04806  1.0000
  C   C372      1.0  0.11572  0.82327  0.02741  1.0000
  H   H616      1.0  0.85969  0.69010  0.05400  1.0000
  H   H617      1.0  0.05531  0.78431  0.73673  1.0000
  H   H618      1.0  0.95412  0.65549  0.61704  1.0000
  H   H619      1.0  0.80617  0.69821  0.63321  1.0000
  H   H620      1.0  0.80572  0.67472  0.06093  1.0000
  C   C373      1.0  0.79932  0.67686  0.65007  1.0000
  H   H621      1.0  0.87382  0.70573  0.66657  1.0000
  H   H622      1.0  0.77249  0.64733  0.70982  1.0000
  C   C374      1.0  0.92941  0.67003  0.60465  1.0000
  H   H623      1.0  0.76281  0.70602  0.70604  1.0000
  C   C375      1.0  0.80811  0.65124  0.70721  1.0000
  H   H624      1.0  0.02366  0.74269  0.79814  1.0000
  H   H625      1.0  0.80552  0.73069  0.68827  1.0000
  S   S154      1.0  0.74427  0.61146  0.06249  1.0000
  H   H626      1.0  0.98851  0.79293  0.81865  1.0000
  H   H627      1.0  0.87808  0.80028  0.00514  1.0000
  C   C376      1.0  0.65284  0.60522  0.76980  1.0000
  H   H628      1.0  0.93859  0.81022  0.96299  1.0000
  H   H629      1.0  0.01787  0.82979  0.81624  1.0000
  S   S155      1.0  0.03002  0.79831  0.96860  1.0000
  S   S156      1.0  0.88400  0.61437  0.59549  1.0000
  N   N39       1.0  0.05135  0.78966  0.79372  1.0000
  S   S157      1.0  0.87657  0.77334  0.07562  1.0000
  Fe  Fe79      1.0  0.96284  0.78860  0.61101  1.0000
  H   H630      1.0  0.09907  0.82833  0.70449  1.0000
  S   S158      1.0  0.03096  0.78510  0.59000  1.0000
  C   C377      1.0  0.96006  0.76628  0.05228  1.0000
  C   C378      1.0  0.09438  0.80498  0.79687  1.0000
  H   H631      1.0  0.02650  0.76331  0.03462  1.0000
  C   C379      1.0  0.05557  0.75498  0.80020  1.0000
  C   C380      1.0  0.66526  0.62376  0.74025  1.0000
  C   C381      1.0  0.94463  0.79780  0.98780  1.0000
  C   C382      1.0  0.91829  0.77697  0.04417  1.0000
  H   H632      1.0  0.11819  0.79425  0.77802  1.0000
  H   H633      1.0  0.09267  0.83102  0.79092  1.0000
  H   H634      1.0  0.09723  0.80068  0.03161  1.0000
  Fe  Fe80      1.0  0.72622  0.60430  0.62872  1.0000
  C   C383      1.0  0.65675  0.60451  0.98225  1.0000
  C   C384      1.0  0.68060  0.60908  0.70919  1.0000
  H   H635      1.0  0.82070  0.71336  0.07792  1.0000
  H   H636      1.0  0.03344  0.80000  0.84804  1.0000
  H   H637      1.0  0.10769  0.80240  0.82425  1.0000
  C   C385      1.0  0.89217  0.65561  0.59054  1.0000
  H   H638      1.0  0.06874  0.75003  0.82727  1.0000
  C   C386      1.0  0.91036  0.79208  0.01158  1.0000
  C   C387      1.0  0.98658  0.78770  0.99625  1.0000
  C   C388      1.0  0.99414  0.77128  0.02811  1.0000
  S   S159      1.0  0.90332  0.76401  0.59026  1.0000
  H   H639      1.0  0.00118  0.78439  0.75436  1.0000
  C   C389      1.0  0.93397  0.70344  0.60395  1.0000
  H   H640      1.0  0.72143  0.62350  0.98880  1.0000
  H   H641      1.0  0.65511  0.61007  0.95412  1.0000
  C   C390      1.0  0.66123  0.58983  0.05509  1.0000
  H   H642      1.0  0.03108  0.82095  0.75141  1.0000
  C   C391      1.0  0.03400  0.79504  0.75750  1.0000
  C   C392      1.0  0.69652  0.60450  0.03830  1.0000
  C   C393      1.0  0.13113  0.81895  0.70888  1.0000
  C   C394      1.0  0.83251  0.68856  0.07354  1.0000
  C   C395      1.0  0.69419  0.61210  0.00189  1.0000
  H   H643      1.0  0.11505  0.82274  0.58729  1.0000
  H   H644      1.0  0.03430  0.83275  0.05075  1.0000
  S   S160      1.0  0.75599  0.63013  0.58212  1.0000
  C   C396      1.0  0.12180  0.90456  0.17820  1.0000
  H   H645      1.0  0.10683  0.95977  0.39762  1.0000
  H   H646      1.0  0.74658  0.07609  0.40563  1.0000
  S   S161      1.0  0.86445  0.98214  0.28079  1.0000
  H   H647      1.0  0.84809  0.05022  0.18478  1.0000
  H   H648      1.0  0.05545  0.92576  0.21983  1.0000
  H   H649      1.0  0.79965  0.99713  0.22157  1.0000
  Fe  Fe81      1.0  0.95304  0.93962  0.38172  1.0000
  H   H650      1.0  0.85236  0.07640  0.22253  1.0000
  H   H651      1.0  0.78894  0.88639  0.14228  1.0000
  H   H652      1.0  0.92138  0.93326  0.25253  1.0000
  H   H653      1.0  0.11572  0.96241  0.20939  1.0000
  Fe  Fe82      1.0  0.01556  0.97204  0.33116  1.0000
  H   H654      1.0  0.83019  0.86634  0.34195  1.0000
  S   S162      1.0  0.08149  0.96853  0.30647  1.0000
  C   C397      1.0  0.08645  0.91442  0.34698  1.0000
  H   H655      1.0  0.78364  0.01370  0.17944  1.0000
  C   C398      1.0  0.75553  0.05049  0.40899  1.0000
  C   C399      1.0  0.10693  0.02243  0.40948  1.0000
  H   H656      1.0  0.76898  0.89801  0.23751  1.0000
  C   C400      1.0  0.81341  0.88387  0.12057  1.0000
  H   H657      1.0  0.71510  0.02966  0.11501  1.0000
  S   S163      1.0  0.97291  0.01455  0.32248  1.0000
  H   H658      1.0  0.07999  0.02288  0.42935  1.0000
  H   H659      1.0  0.13490  0.00918  0.47593  1.0000
  H   H660      1.0  0.75049  0.04809  0.26601  1.0000
  C   C401      1.0  0.69538  0.04068  0.13540  1.0000
  S   S164      1.0  0.96334  0.93561  0.32270  1.0000
  S   S165      1.0  0.90430  0.97904  0.37741  1.0000
  C   C402      1.0  0.87919  0.89560  0.23418  1.0000
  C   C403      1.0  0.01232  0.90200  0.45172  1.0000
  C   C404      1.0  0.94714  0.91817  0.56214  1.0000
  H   H661      1.0  0.81619  0.90736  0.10672  1.0000
  H   H662      1.0  0.13938  0.95089  0.25095  1.0000
  C   C405      1.0  0.93521  0.84938  0.32187  1.0000
  H   H663      1.0  0.87826  0.88696  0.35597  1.0000
  H   H664      1.0  0.09667  0.96614  0.44404  1.0000
  C   C406      1.0  0.80228  0.90570  0.24064  1.0000
  Fe  Fe83      1.0  0.91975  0.97819  0.31907  1.0000
  C   C407      1.0  0.83615  0.88569  0.23004  1.0000
  C   C408      1.0  0.12216  0.96723  0.42299  1.0000
  C   C409      1.0  0.88819  0.92542  0.24962  1.0000
  C   C410      1.0  0.65486  0.03638  0.19089  1.0000
  H   H665      1.0  0.87455  0.95198  0.55586  1.0000
  H   H666      1.0  0.83581  0.04891  0.37954  1.0000
  H   H667      1.0  0.89593  0.08031  0.53171  1.0000
  H   H668      1.0  0.09658  0.85688  0.10833  1.0000
  S   S166      1.0  0.96133  0.05476  0.41646  1.0000
  Fe  Fe84      1.0  0.96170  0.01159  0.38144  1.0000
  C   C411      1.0  0.85415  0.94528  0.26053  1.0000
  H   H669      1.0  0.86429  0.05966  0.41926  1.0000
  C   C412      1.0  0.86458  0.87131  0.33483  1.0000
  C   C413      1.0  0.81125  0.93552  0.25567  1.0000
  H   H670      1.0  0.68783  0.99717  0.16555  1.0000
  H   H671      1.0  0.09241  0.01600  0.38324  1.0000
  H   H672      1.0  0.78485  0.95067  0.26427  1.0000
  H   H673      1.0  0.06495  0.88399  0.22660  1.0000
  H   H674      1.0  0.97509  0.84334  0.52600  1.0000
  H   H675      1.0  0.78132  0.00146  0.45063  1.0000
  C   C414      1.0  0.84070  0.05250  0.21374  1.0000
  H   H676      1.0  0.05144  0.91407  0.34666  1.0000
  C   C415      1.0  0.67978  0.02228  0.16392  1.0000
  C   C416      1.0  0.10934  0.93780  0.32798  1.0000
  H   H677      1.0  0.73369  0.07045  0.20702  1.0000
  H   H678      1.0  0.09112  0.87429  0.38286  1.0000
  H   H679      1.0  0.86041  0.03426  0.22803  1.0000
  C   C417      1.0  0.78004  0.01627  0.20883  1.0000
  C   C418      1.0  0.95809  0.86655  0.47664  1.0000
  H   H680      1.0  0.80350  0.03253  0.27499  1.0000
  H   H681      1.0  0.90545  0.88029  0.22568  1.0000
  N   N40       1.0  0.79389  0.04823  0.22102  1.0000
  S   S167      1.0  0.93597  0.89631  0.41438  1.0000
  C   C419      1.0  0.97129  0.88785  0.44985  1.0000
  H   H682      1.0  0.86457  0.88536  0.30963  1.0000
  H   H683      1.0  0.77410  0.07152  0.17250  1.0000
  C   C420      1.0  0.10889  0.89190  0.36747  1.0000
  H   H684      1.0  0.94537  0.98185  0.56308  1.0000
  S   S168      1.0  0.00936  0.97241  0.39070  1.0000
  H   H685      1.0  0.92662  0.85519  0.47511  1.0000
  C   C421      1.0  0.76905  0.07301  0.20187  1.0000
  N   N41       1.0  0.88979  0.84150  0.33108  1.0000
  H   H686      1.0  0.72874  0.03893  0.42423  1.0000
  H   H687      1.0  0.80802  0.99945  0.40792  1.0000
  C   C422      1.0  0.66793  0.05608  0.47933  1.0000
  H   H688      1.0  0.84500  0.87895  0.13367  1.0000
  H   H689      1.0  0.98208  0.91363  0.56756  1.0000
  N   N42       1.0  0.12249  0.91173  0.21680  1.0000
  H   H690      1.0  0.93938  0.99422  0.44848  1.0000
  S   S169      1.0  0.74527  0.04624  0.55837  1.0000
  Fe  Fe85      1.0  0.81413  0.05718  0.57285  1.0000
  S   S170      1.0  0.86389  0.02000  0.55920  1.0000
  C   C423      1.0  0.10740  0.83829  0.08914  1.0000
  C   C424      1.0  0.98542  0.85996  0.50557  1.0000
  H   H691      1.0  0.64591  0.06673  0.56761  1.0000
  H   H692      1.0  0.90279  0.83779  0.38726  1.0000
  H   H693      1.0  0.09746  0.91945  0.16402  1.0000
  S   S171      1.0  0.05963  0.86829  0.54480  1.0000
  H   H694      1.0  0.75632  0.03931  0.38211  1.0000
  H   H695      1.0  0.74544  0.01154  0.21571  1.0000
  H   H696      1.0  0.07124  0.90660  0.48210  1.0000
  C   C425      1.0  0.89437  0.02980  0.52119  1.0000
  C   C426      1.0  0.90769  0.00551  0.49804  1.0000
  C   C427      1.0  0.92970  0.01308  0.46641  1.0000
  C   C428      1.0  0.93853  0.04496  0.45788  1.0000
  C   C429      1.0  0.92664  0.06917  0.48160  1.0000
  C   C430      1.0  0.90468  0.06157  0.51332  1.0000
  H   H697      1.0  0.89998  0.98088  0.50393  1.0000
  H   H698      1.0  0.82584  0.06064  0.47764  1.0000
  C   C431      1.0  0.78562  0.05111  0.25973  1.0000
  H   H699      1.0  0.07794  0.91193  0.26107  1.0000
  C   C432      1.0  0.02599  0.87477  0.50785  1.0000
  C   C433      1.0  0.68596  0.07327  0.13368  1.0000
  H   H700      1.0  0.11993  0.04713  0.40700  1.0000
  C   C434      1.0  0.03957  0.89556  0.48073  1.0000
  N   N43       1.0  0.79746  0.04703  0.42759  1.0000
  H   H701      1.0  0.02348  0.91741  0.43059  1.0000
  H   H702      1.0  0.76840  0.05415  0.47916  1.0000
  C   C435      1.0  0.07830  0.90821  0.23170  1.0000
  C   C436      1.0  0.79531  0.06356  0.46232  1.0000
  H   H703      1.0  0.68152  0.04841  0.50434  1.0000
  N   N44       1.0  0.80146  0.85816  0.09544  1.0000
  S   S172      1.0  0.82365  0.84803  0.21286  1.0000
  H   H704      1.0  0.83833  0.00942  0.44712  1.0000
  H   H705      1.0  0.73322  0.86789  0.09914  1.0000
  H   H706      1.0  0.11332  0.87912  0.17329  1.0000
  S   S173      1.0  0.80780  0.03709  0.09686  1.0000
  C   C437      1.0  0.80663  0.01281  0.43354  1.0000
  H   H707      1.0  0.93061  0.89462  0.56030  1.0000
  H   H708      1.0  0.79604  0.07482  0.26997  1.0000
  C   C438      1.0  0.83239  0.06129  0.40563  1.0000
  H   H709      1.0  0.94500  0.92946  0.53528  1.0000
  S   S174      1.0  0.92102  0.08003  0.08160  1.0000
  C   C439      1.0  0.64401  0.06874  0.18852  1.0000
  C   C440      1.0  0.13783  0.94482  0.22214  1.0000
  S   S175      1.0  0.64100  0.01356  0.22845  1.0000
  H   H710      1.0  0.95081  0.86372  0.34332  1.0000
  H   H711      1.0  0.93719  0.86351  0.29672  1.0000
  C   C441      1.0  0.64244  0.03485  0.45936  1.0000
  H   H712      1.0  0.99492  0.03651  0.05774  1.0000
  S   S176      1.0  0.79856  0.07241  0.62894  1.0000
  C   C442      1.0  0.71966  0.02988  0.69965  1.0000
  H   H713      1.0  0.04542  0.88232  0.70657  1.0000
  H   H714      1.0  0.86336  0.91845  0.58424  1.0000
  H   H715      1.0  0.74800  0.03578  0.68397  1.0000
  C   C443      1.0  0.72429  0.01918  0.73500  1.0000
  H   H716      1.0  0.96804  0.91927  0.63139  1.0000
  H   H717      1.0  0.93638  0.01352  0.97528  1.0000
  H   H718      1.0  0.93433  0.06723  0.00333  1.0000
  C   C444      1.0  0.97198  0.01667  0.97192  1.0000
  H   H719      1.0  0.91624  0.90016  0.62736  1.0000
  S   S177      1.0  0.97979  0.85174  0.89098  1.0000
  N   N45       1.0  0.99035  0.03684  0.00048  1.0000
  C   C445      1.0  0.98531  0.88471  0.73578  1.0000
  C   C446      1.0  0.67833  0.03265  0.68469  1.0000
  Fe  Fe86      1.0  0.76045  0.06997  0.07026  1.0000
  C   C447      1.0  0.05407  0.85462  0.04579  1.0000
  Fe  Fe87      1.0  0.01148  0.84476  0.94394  1.0000
  H   H720      1.0  0.74962  0.84703  0.05936  1.0000
  C   C448      1.0  0.03048  0.88508  0.73241  1.0000
  C   C449      1.0  0.94827  0.97019  0.58963  1.0000
  C   C450      1.0  0.97004  0.06877  0.99931  1.0000
  N   N46       1.0  0.92727  0.93844  0.58999  1.0000
  S   S178      1.0  0.95245  0.87733  0.69870  1.0000
  H   H721      1.0  0.04788  0.86217  0.01780  1.0000
  C   C451      1.0  0.10044  0.96346  0.94616  1.0000
  C   C452      1.0  0.67828  0.08219  0.89212  1.0000
  S   S179      1.0  0.67103  0.04580  0.64063  1.0000
  Fe  Fe88      1.0  0.72919  0.06612  0.61220  1.0000
  H   H722      1.0  0.98338  0.96846  0.59599  1.0000
  H   H723      1.0  0.75623  0.01708  0.74655  1.0000
  C   C453      1.0  0.83512  0.85540  0.06743  1.0000
  H   H724      1.0  0.98664  0.99242  0.97199  1.0000
  H   H725      1.0  0.07268  0.96215  0.92870  1.0000
  H   H726      1.0  0.81703  0.00691  0.92815  1.0000
  Fe  Fe89      1.0  0.02922  0.89056  0.88356  1.0000
  S   S180      1.0  0.98810  0.92963  0.90676  1.0000
  S   S181      1.0  0.07012  0.89387  0.83418  1.0000
  H   H727      1.0  0.74300  0.07005  0.87557  1.0000
  S   S182      1.0  0.96841  0.87889  0.97303  1.0000
  H   H728      1.0  0.81756  0.94139  0.86215  1.0000
  Fe  Fe90      1.0  0.94147  0.88982  0.91897  1.0000
  S   S183      1.0  0.86963  0.89481  0.91275  1.0000
  Fe  Fe91      1.0  0.01826  0.91522  0.95863  1.0000
  S   S184      1.0  0.04503  0.94753  0.00015  1.0000
  H   H729      1.0  0.86467  0.95817  0.60240  1.0000
  S   S185      1.0  0.78602  0.95340  0.05141  1.0000
  S   S186      1.0  0.69288  0.99964  0.80012  1.0000
  H   H730      1.0  0.97790  0.02722  0.94509  1.0000
  C   C454      1.0  0.81389  0.98227  0.91744  1.0000
  S   S187      1.0  0.74575  0.03662  0.02535  1.0000
  H   H731      1.0  0.12737  0.95700  0.03382  1.0000
  C   C455      1.0  0.05647  0.88934  0.76260  1.0000
  S   S188      1.0  0.85142  0.02801  0.01670  1.0000
  C   C456      1.0  0.87211  0.92931  0.97461  1.0000
  C   C457      1.0  0.84760  0.90931  0.95260  1.0000
  C   C458      1.0  0.80464  0.90212  0.96164  1.0000
  C   C459      1.0  0.78609  0.91505  0.99258  1.0000
  H   H732      1.0  0.05411  0.01659  0.99656  1.0000
  H   H733      1.0  0.90526  0.93505  0.96760  1.0000
  H   H734      1.0  0.78569  0.88663  0.94465  1.0000
  H   H735      1.0  0.72705  0.97240  0.91707  1.0000
  H   H736      1.0  0.83341  0.99838  0.84970  1.0000
  C   C460      1.0  0.03766  0.04016  0.99522  1.0000
  S   S189      1.0  0.06417  0.88021  0.93435  1.0000
  C   C461      1.0  0.03736  0.89282  0.79622  1.0000
  C   C462      1.0  0.96619  0.88943  0.76924  1.0000
  H   H737      1.0  0.76258  0.94721  0.84752  1.0000
  H   H738      1.0  0.75270  0.90974  0.99924  1.0000
  H   H739      1.0  0.65757  0.07215  0.03662  1.0000
  C   C463      1.0  0.93320  0.92357  0.62541  1.0000
  C   C464      1.0  0.09541  0.95862  0.98289  1.0000
  C   C465      1.0  0.98177  0.02181  0.03553  1.0000
  H   H740      1.0  0.80129  0.96711  0.93950  1.0000
  C   C466      1.0  0.74039  0.98988  0.89752  1.0000
  C   C467      1.0  0.81022  0.93573  0.01406  1.0000
  H   H741      1.0  0.87226  0.95825  0.02208  1.0000
  H   H742      1.0  0.93124  0.88939  0.77188  1.0000
  H   H743      1.0  0.05241  0.05549  0.01616  1.0000
  H   H744      1.0  0.11531  0.89787  0.06305  1.0000
  C   C468      1.0  0.68757  0.01173  0.75549  1.0000
  H   H745      1.0  0.71800  0.99057  0.87431  1.0000
  C   C469      1.0  0.80012  0.00428  0.85902  1.0000
  N   N47       1.0  0.78478  0.98128  0.88625  1.0000
  H   H746      1.0  0.80072  0.02907  0.86975  1.0000
  C   C470      1.0  0.85330  0.94272  0.00519  1.0000
  Fe  Fe92      1.0  0.80026  0.06137  0.99714  1.0000
  C   C471      1.0  0.99220  0.89326  0.79952  1.0000
  C   C472      1.0  0.78456  0.94875  0.87101  1.0000
  H   H747      1.0  0.77358  0.93073  0.89097  1.0000
  H   H748      1.0  0.73964  0.01383  0.91027  1.0000
  H   H749      1.0  0.84695  0.97356  0.91057  1.0000
  H   H750      1.0  0.66379  0.01471  0.05415  1.0000
  H   H751      1.0  0.04554  0.05086  0.96880  1.0000
  Fe  Fe93      1.0  0.79780  0.00610  0.04894  1.0000
  H   H752      1.0  0.77850  0.00438  0.83524  1.0000
  C   C473      1.0  0.12553  0.87826  0.04490  1.0000
  S   S190      1.0  0.79470  0.07266  0.93911  1.0000
  H   H753      1.0  0.97723  0.89625  0.82542  1.0000
  H   H754      1.0  0.09137  0.88952  0.75997  1.0000
  H   H755      1.0  0.99672  0.99768  0.03736  1.0000
  Fe  Fe94      1.0  0.85686  0.06215  0.06242  1.0000
  H   H756      1.0  0.94640  0.01901  0.04055  1.0000
  C   C474      1.0  0.13117  0.96064  0.00540  1.0000
  C   C475      1.0  0.64633  0.01441  0.74043  1.0000
  H   H757      1.0  0.91997  0.93882  0.64715  1.0000
  H   H758      1.0  0.12073  0.88696  0.01709  1.0000
  H   H759      1.0  0.13880  0.87842  0.59337  1.0000
  N   N48       1.0  0.10069  0.84863  0.05183  1.0000
  H   H760      1.0  0.76087  0.88882  0.06410  1.0000
  H   H761      1.0  0.93295  0.98660  0.60932  1.0000
  S   S191      1.0  0.95903  0.84163  0.60398  1.0000
  H   H762      1.0  0.98282  0.08450  0.02080  1.0000
  H   H763      1.0  0.65180  0.03059  0.99053  1.0000
  C   C476      1.0  0.72286  0.07830  0.89733  1.0000
  S   S192      1.0  0.05332  0.84604  0.64292  1.0000
  Fe  Fe95      1.0  0.98380  0.84409  0.65971  1.0000
  C   C477      1.0  0.74074  0.08329  0.93106  1.0000
  Fe  Fe96      1.0  0.02851  0.83853  0.58765  1.0000
  H   H764      1.0  0.83883  0.87807  0.05215  1.0000
  C   C478      1.0  0.64175  0.02463  0.70504  1.0000
  H   H765      1.0  0.66436  0.07688  0.86638  1.0000
  H   H766      1.0  0.97597  0.08089  0.97333  1.0000
  H   H767      1.0  0.04156  0.87376  0.06359  1.0000
  C   C479      1.0  0.88042  0.94186  0.58283  1.0000
  H   H768      1.0  0.86729  0.84938  0.07896  1.0000
  C   C480      1.0  0.75938  0.86575  0.07878  1.0000
