data_image0
_chemical_formula_structural       NHFeSFeSHFeSHFeCFeS3H2C2SH2SCHC6H5SHC3HCHCHCH2CHFeCH2S2C3H2NCHCHFeS2HCH4NHSHSC2H2CHCH2SNC2NH8C2H4CH3SCHC2H2CFeSCNSFeHFeCH2SCFeHSCH3CH2CH2SHCH3CH3SFeCSHCHSCHFeHC2H4SFeSHFeCS2HCHCH2FeSNHFeHC2HSC3H3CH2CSFeHFeH2SHSCHSC2H3SCHCS2FeSFeCHFeS2HCFeNCSCHC2H2SH3C3HC2H5CHC2SNHCH3CHCHS2CFe2H2CH4CH4SH2CHCH4C2HSHCH2FeHSHCSCHCHSH3FeNHC2HCHCH2CH4C2HNH2NH3C2H2C2H3CH3C2HSHC2S2FeSFeCSHCHCFeH5CHC3H2SH5CH5CHC2H3NFeH2SFeHSFeNSHC2HCH2C2H3CHS2HFeS2FeHCFeHSNCHSC2HC4H2FeCHCHSCH3CSHSCHCH3NCH3CHC3H2CFeH4CH3CHC2H3CH8CFeSNHFeS2FeS2FeHSC2NC2H2C4H3C2H4FeCSCHCH4C2H7CHSH2CHNC2SH7C2HCHNCHC2SHC2SHCH2C4H2SHCHC3H2CHCH5CHS2H2FeH2CH5SHFeHC2H4CNCHCH2SC5HFeH3SHSCH2CH2FeCHCS2CH3FeH2NHSCSFeH3CH2CNHCSFeSH2CFe2SFeSHSFeHNHC4H2C6H5SH2FeHCSCHCH2CHSCHCHCH4SHCH3SH2C4NH3C3H2SC2HCH5FeH3SC2H7FeNH2CH3CHC2H2CHFe2SHC2HCNCHFeHCHC2HNCHCHSHC2HCHFeCSCH6SC2SC3H6CH2CH8SFeS2CHCHCSH5SHSNH2SCH6NFeSC2HFeHSC2HNCH6CH4C2FeH2CHNCSCH6SCH4CH2FeC3H2SNS2H2CHC2HSH4CFeCH2CHC3HSFeS2FeNSFeHFeHS2CHFeH5CHC6H4CH5CSNHCHCSCHSHCH7CSHC2HCH4SHCH2C4H2C4SHSNH4CHC3HCHCSHSCH4SH4C2H3CH2SHCH4CHC2NHSH2C2SHFeSH4SHCNH4C2SC6H4CSHCH2SC2HCNCHFe2NHS2CH10FeCSFeHSHSHCHC6H4C2H3CH3CHCH2NCHSHFeCSH3SFeH3CHC3FeC3H2CFeCSCHNC2H5CHFeHCH2SC2HSHSH4FeSC6H5CNCHCH4S2H2SHCH2SCH2SHNH3SH4FeC4HC2H2SHFeCHCH2C3SHC2SCFeHC2SCHC2SFeHSH4CSHCHSCH2C5H4CH2C3HC2HSH2NHNHC2FeH2CHCSH2NHFeCHSH3CH2CFeHSC2S2FeSHCSCSC4H2CH4CHCH2C2H3NH4CH3CSH2SCHC3H6CH2NCHSC4HCHCHCH7CH2CH5CH2SCH2NH4CH5CS2HFeSHC2H2SCH2CH3SHFeH2C4H2SHNC3H4SHFeHCHSFeSHSHC4H6C2H2CHNCNC2H3CHCHSHFeCH3CHSHCH2CHCH2SHC2H2CSHCHCSC2NC2H2CH3FeH3NHFeH2CHSCHSCH2CHCS2H2FeHFeH2C2H2CH2CH3CH3FeHC2HC2H2SCSCFeHS2H2FeSHSH5SC5NH3CHFeHSHCSNHSFeH2CFeHSCHSFeSH2C2H2C6HCH5SHCHFeH2CH3SNC2HC3H2CH2FeSFeSNCFeSH2C6H4C2H3SH2CH2NC3H3CHCHC3H3S2HNH2CHCHCSH2CH6SNS2FeSHFeHFeC6H3SH3CH2CH4CHC2H2CH5C2H2C3H2CHNH2CHSHCH2CSCH5CHCH2CSH2NH2CH2CSCHC4HSH2C2HSCH6CFeCSCHSHFeS2FeS2FeHFeCS2CH3CH4C4H4CH2CH3C2H2SC2NH2NHFeHCHC2HCHFeSHFeCHCH2CHCH2CHCH5SFeH3NCFe2S2HSH2CHS2HSHCH2FeHSH2CFeC2HC2H2C2H2C2H2CS2C2HFeCHNHCHSH2NS2C2H6C2H2CHC2H2CH3CHCHCHSCFeH4SHS2HC2H2SCFeHNCH6C2HC2HC2HS2CHCHC2H4CH6NC2H2CFeHSHFe2H2SHC2HCHCFeHNH2CHNH3C3SH2SHCHCH2CHFe2HSH2SCFeH2FeS2FeH2S2C2HC3H2SCHC6H10NH4CSC2HCHSH2CH2SFe2H3C4NHCSH2Fe2H2CHSFeSHSC4HFeSH2CFeCHCSC2NH2C2H7SCNCFeCHSH2CHCSH2C2NH3CH2C2H8CH9CH3CNHCH2CH2CH6CH2S2CHSFeS2FeS2FeHSC2SCH2C5H3CHFeCSHCHCH3C2H3C3NHSCH7C3HFeH2N2SH4C4H3CHCH3CHC2H2C2H2C2HC4H5C5HSHFeCFeS2FeCHC3HC2H2SH2SFeSHFeSFeS3HCH2CHC5H4CNC2HCH2CH3NC4H13NHC2SH2C2H2C2H2CHSH2FeCFeS2C2H2FeC2H2S2H5CSHC2HCHCHCNCHCHS2HNHC2HCSHCH4C2HCH2CH3CHCHNHC2HC2H3CHCHSCH2C2SFeSC2SFeH2C3H3S2HSHCH4Fe2SCHS3FeHSFeHS2H2FeS2H6C2HC7HCH3SNCH2SCFeHCNCH4CHFeCHSHCFe2C4HCH2CH4SCH4C2HFeCNCH2FeS2HSH2C3HCHSCHCSCSCFeH3S2CH3FeH2SCS2FeC2HCH2SCSFeCSCHFeCSCSCH2C4H4CHFeCH2C2H4NHSHSNH5CHFeH4CHC2SH2S2CH3CSNFeHSHCHSH2CSCH3FeSH3CHC2HC2HSFeHCHSCFeCHFeC2H2C2H4CHCHCH5FeHSC2SCFeS2FeS2FeSFeCS2H4CH4SC6H4NCH2SHCHNHCH3C2HCH3CHCHSH5CFeH3C2
_chemical_formula_sum              "N96 H1536 Fe192 S384 C960"
_cell_length_a       49.5606
_cell_length_b       41.2899
_cell_length_c       68.4001
_cell_angle_alpha    90.1051
_cell_angle_beta     89.8201
_cell_angle_gamma    89.5989

_space_group_name_H-M_alt    "P 1"
_space_group_IT_number       1

loop_
  _space_group_symop_operation_xyz
  'x, y, z'

loop_
  _atom_site_type_symbol
  _atom_site_label
  _atom_site_symmetry_multiplicity
  _atom_site_fract_x
  _atom_site_fract_y
  _atom_site_fract_z
  _atom_site_occupancy
  N   N1        1.0  0.06341  0.30767  0.19479  1.0000
  H   H1        1.0  0.08000  0.27215  0.21442  1.0000
  Fe  Fe1       1.0  0.08272  0.32446  0.27163  1.0000
  S   S1        1.0  0.12145  0.34536  0.26014  1.0000
  Fe  Fe2       1.0  0.25476  0.34400  0.17023  1.0000
  S   S2        1.0  0.21029  0.35383  0.16840  1.0000
  H   H2        1.0  0.06246  0.35780  0.20349  1.0000
  Fe  Fe3       1.0  0.25238  0.28756  0.14187  1.0000
  S   S3        1.0  0.20783  0.29286  0.13710  1.0000
  H   H3        1.0  0.24194  0.22168  0.15133  1.0000
  Fe  Fe4       1.0  0.21591  0.34617  0.13634  1.0000
  C   C1        1.0  0.06282  0.27543  0.20416  1.0000
  Fe  Fe5       1.0  0.20580  0.29991  0.16976  1.0000
  S   S4        1.0  0.17228  0.27505  0.18630  1.0000
  S   S5        1.0  0.26058  0.34032  0.13794  1.0000
  S   S6        1.0  0.25008  0.29040  0.17467  1.0000
  H   H4        1.0  0.34891  0.11649  0.09940  1.0000
  H   H5        1.0  0.29432  0.26068  0.08327  1.0000
  C   C2        1.0  0.30839  0.39795  0.15548  1.0000
  C   C3        1.0  0.26101  0.17675  0.15973  1.0000
  S   S7        1.0  0.27926  0.25294  0.12520  1.0000
  H   H6        1.0  0.31598  0.12707  0.10823  1.0000
  H   H7        1.0  0.06410  0.25559  0.19316  1.0000
  S   S8        1.0  0.05422  0.29215  0.25561  1.0000
  C   C4        1.0  0.18478  0.33638  0.09063  1.0000
  H   H8        1.0  0.17928  0.32285  0.10354  1.0000
  C   C5        1.0  0.15979  0.29391  0.20760  1.0000
  C   C6        1.0  0.13993  0.27827  0.21872  1.0000
  C   C7        1.0  0.12819  0.29377  0.23499  1.0000
  C   C8        1.0  0.13644  0.32487  0.24029  1.0000
  C   C9        1.0  0.15672  0.34019  0.22947  1.0000
  C   C10       1.0  0.16835  0.32477  0.21315  1.0000
  H   H9        1.0  0.13354  0.25419  0.21465  1.0000
  H   H10       1.0  0.11304  0.28148  0.24356  1.0000
  H   H11       1.0  0.16335  0.36413  0.23363  1.0000
  H   H12       1.0  0.18387  0.33680  0.20485  1.0000
  H   H13       1.0  0.08958  0.33476  0.17579  1.0000
  S   S9        1.0  0.07914  0.29785  0.29998  1.0000
  H   H14       1.0  0.09116  0.29156  0.17243  1.0000
  C   C11       1.0  0.10898  0.37098  0.31982  1.0000
  C   C12       1.0  0.20231  0.38505  0.07573  1.0000
  C   C13       1.0  0.33421  0.13679  0.10079  1.0000
  H   H15       1.0  0.27782  0.31211  0.09776  1.0000
  C   C14       1.0  0.19558  0.36744  0.09245  1.0000
  H   H16       1.0  0.32107  0.20436  0.12757  1.0000
  C   C15       1.0  0.28393  0.15693  0.15800  1.0000
  H   H17       1.0  0.10671  0.30988  0.19323  1.0000
  C   C16       1.0  0.06190  0.33315  0.20999  1.0000
  H   H18       1.0  0.09036  0.37103  0.31081  1.0000
  H   H19       1.0  0.24434  0.16933  0.16890  1.0000
  C   C17       1.0  0.25968  0.20642  0.14983  1.0000
  H   H20       1.0  0.28813  0.16634  0.09093  1.0000
  Fe  Fe6       1.0  0.37707  0.08394  0.14511  1.0000
  C   C18       1.0  0.28113  0.21613  0.13794  1.0000
  H   H21       1.0  0.26024  0.24780  0.08008  1.0000
  H   H22       1.0  0.30650  0.37350  0.15009  1.0000
  S   S10       1.0  0.20160  0.38421  0.11550  1.0000
  S   S11       1.0  0.28502  0.11980  0.17042  1.0000
  C   C19       1.0  0.30410  0.19633  0.13619  1.0000
  C   C20       1.0  0.30662  0.17610  0.08385  1.0000
  C   C21       1.0  0.08876  0.31113  0.18354  1.0000
  H   H23       1.0  0.25406  0.33703  0.08456  1.0000
  H   H24       1.0  0.34340  0.15506  0.11067  1.0000
  N   N2        1.0  0.32762  0.15076  0.08150  1.0000
  C   C22       1.0  0.30555  0.16677  0.14628  1.0000
  H   H25       1.0  0.14637  0.38171  0.29206  1.0000
  C   C23       1.0  0.27693  0.26146  0.07301  1.0000
  H   H26       1.0  0.32347  0.15180  0.14525  1.0000
  Fe  Fe7       1.0  0.32434  0.09301  0.16727  1.0000
  S   S12       1.0  0.27974  0.37856  0.18800  1.0000
  S   S13       1.0  0.36567  0.11331  0.17150  1.0000
  H   H27       1.0  0.24381  0.29891  0.09454  1.0000
  C   C24       1.0  0.26080  0.31161  0.08718  1.0000
  H   H28       1.0  0.31385  0.19644  0.09310  1.0000
  H   H29       1.0  0.07908  0.33124  0.22044  1.0000
  H   H30       1.0  0.23527  0.08415  0.16707  1.0000
  H   H31       1.0  0.12084  0.34900  0.31567  1.0000
  N   N3        1.0  0.12461  0.40091  0.31683  1.0000
  H   H32       1.0  0.36053  0.18446  0.08236  1.0000
  S   S14       1.0  0.33474  0.06823  0.13919  1.0000
  H   H33       1.0  0.29932  0.11316  0.07464  1.0000
  S   S15       1.0  0.05121  0.36130  0.27946  1.0000
  C   C25       1.0  0.34479  0.12737  0.45755  1.0000
  C   C26       1.0  0.28021  0.18968  0.47561  1.0000
  H   H34       1.0  0.30495  0.10163  0.43654  1.0000
  H   H35       1.0  0.26791  0.20073  0.46437  1.0000
  C   C27       1.0  0.35938  0.21833  0.55448  1.0000
  H   H36       1.0  0.29368  0.10551  0.46134  1.0000
  C   C28       1.0  0.14851  0.40043  0.32969  1.0000
  H   H37       1.0  0.32063  0.24945  0.53454  1.0000
  H   H38       1.0  0.30968  0.22791  0.47547  1.0000
  S   S16       1.0  0.24436  0.13969  0.47423  1.0000
  N   N4        1.0  0.07455  0.19085  0.37143  1.0000
  C   C29       1.0  0.28860  0.14570  0.49814  1.0000
  C   C30       1.0  0.07522  0.18888  0.34986  1.0000
  N   N5        1.0  0.33574  0.09333  0.45815  1.0000
  H   H39       1.0  0.31453  0.37108  0.55926  1.0000
  H   H40       1.0  0.28255  0.12314  0.50472  1.0000
  H   H41       1.0  0.29364  0.24191  0.55151  1.0000
  H   H42       1.0  0.32024  0.18261  0.57087  1.0000
  H   H43       1.0  0.37448  0.07408  0.44968  1.0000
  H   H44       1.0  0.05934  0.20450  0.34321  1.0000
  H   H45       1.0  0.09373  0.14438  0.37493  1.0000
  H   H46       1.0  0.05441  0.39452  0.36975  1.0000
  C   C31       1.0  0.27277  0.15972  0.48351  1.0000
  C   C32       1.0  0.31352  0.23274  0.54619  1.0000
  H   H47       1.0  0.34524  0.39845  0.48149  1.0000
  H   H48       1.0  0.07171  0.16369  0.34466  1.0000
  H   H49       1.0  0.10243  0.36826  0.33532  1.0000
  H   H50       1.0  0.21552  0.07410  0.53930  1.0000
  C   C33       1.0  0.32005  0.19056  0.49611  1.0000
  H   H51       1.0  0.09494  0.19683  0.34381  1.0000
  H   H52       1.0  0.09841  0.23410  0.37231  1.0000
  H   H53       1.0  0.06260  0.24098  0.37167  1.0000
  S   S17       1.0  0.30822  0.36114  0.50582  1.0000
  C   C34       1.0  0.13923  0.08483  0.42868  1.0000
  H   H54       1.0  0.17598  0.07261  0.44395  1.0000
  C   C35       1.0  0.30383  0.20510  0.48190  1.0000
  C   C36       1.0  0.30745  0.09160  0.45151  1.0000
  H   H55       1.0  0.31015  0.20884  0.53907  1.0000
  H   H56       1.0  0.07831  0.22710  0.39383  1.0000
  C   C37       1.0  0.31225  0.16102  0.50438  1.0000
  Fe  Fe8       1.0  0.35977  0.25866  0.49329  1.0000
  S   S18       1.0  0.35080  0.20770  0.50321  1.0000
  C   C38       1.0  0.11397  0.07399  0.42236  1.0000
  N   N6        1.0  0.33327  0.23017  0.56229  1.0000
  S   S19       1.0  0.33834  0.29194  0.47230  1.0000
  Fe  Fe9       1.0  0.05726  0.07752  0.39392  1.0000
  H   H57       1.0  0.36765  0.23516  0.54329  1.0000
  Fe  Fe10      1.0  0.24143  0.08602  0.47953  1.0000
  C   C39       1.0  0.31122  0.39051  0.57036  1.0000
  H   H58       1.0  0.32464  0.14983  0.51551  1.0000
  H   H59       1.0  0.20489  0.10860  0.56824  1.0000
  S   S20       1.0  0.36109  0.29505  0.51757  1.0000
  C   C40       1.0  0.33771  0.08095  0.47837  1.0000
  Fe  Fe11      1.0  0.34301  0.32952  0.49586  1.0000
  H   H60       1.0  0.09586  0.17021  0.39587  1.0000
  S   S21       1.0  0.09350  0.09981  0.40826  1.0000
  C   C41       1.0  0.09615  0.17007  0.37958  1.0000
  H   H61       1.0  0.14563  0.10919  0.42530  1.0000
  H   H62       1.0  0.14248  0.39918  0.34538  1.0000
  H   H63       1.0  0.37471  0.21586  0.56624  1.0000
  C   C42       1.0  0.35295  0.07326  0.44516  1.0000
  H   H64       1.0  0.16167  0.37906  0.32653  1.0000
  H   H65       1.0  0.32490  0.09537  0.48858  1.0000
  C   C43       1.0  0.07868  0.22477  0.37761  1.0000
  H   H66       1.0  0.11648  0.17801  0.37472  1.0000
  H   H67       1.0  0.35167  0.08153  0.42972  1.0000
  S   S22       1.0  0.38316  0.34705  0.48534  1.0000
  H   H68       1.0  0.35723  0.19433  0.54720  1.0000
  C   C44       1.0  0.21010  0.08331  0.57017  1.0000
  H   H69       1.0  0.36572  0.12995  0.46315  1.0000
  H   H70       1.0  0.34456  0.28035  0.56063  1.0000
  H   H71       1.0  0.34420  0.13724  0.44243  1.0000
  C   C45       1.0  0.30704  0.40084  0.49650  1.0000
  H   H72       1.0  0.33156  0.14323  0.46667  1.0000
  H   H73       1.0  0.35878  0.08186  0.48388  1.0000
  H   H74       1.0  0.27634  0.39450  0.54108  1.0000
  S   S23       1.0  0.05430  0.08667  0.36175  1.0000
  Fe  Fe12      1.0  0.38018  0.30701  0.46327  1.0000
  C   C46       1.0  0.33701  0.26234  0.57138  1.0000
  S   S24       1.0  0.37569  0.37309  0.64641  1.0000
  H   H75       1.0  0.05500  0.16754  0.69917  1.0000
  C   C47       1.0  0.30726  0.16140  0.65900  1.0000
  H   H76       1.0  0.27826  0.16939  0.70306  1.0000
  S   S25       1.0  0.23034  0.10187  0.66362  1.0000
  C   C48       1.0  0.12404  0.09421  0.71566  1.0000
  H   H77       1.0  0.28437  0.19361  0.61637  1.0000
  Fe  Fe13      1.0  0.07052  0.09310  0.74696  1.0000
  H   H78       1.0  0.12398  0.10150  0.68444  1.0000
  C   C49       1.0  0.29286  0.16402  0.64153  1.0000
  C   C50       1.0  0.13543  0.09291  0.69687  1.0000
  H   H79       1.0  0.21322  0.11622  0.72848  1.0000
  H   H80       1.0  0.25913  0.09958  0.70042  1.0000
  H   H81       1.0  0.28600  0.11371  0.71534  1.0000
  H   H82       1.0  0.31774  0.27185  0.57766  1.0000
  S   S26       1.0  0.09060  0.10784  0.71875  1.0000
  Fe  Fe14      1.0  0.36284  0.33270  0.66620  1.0000
  S   S27       1.0  0.31580  0.25105  0.62060  1.0000
  H   H83       1.0  0.28318  0.38458  0.67557  1.0000
  Fe  Fe15      1.0  0.05604  0.10671  0.78925  1.0000
  C   C51       1.0  0.16130  0.07951  0.69399  1.0000
  S   S28       1.0  0.37002  0.33139  0.69881  1.0000
  S   S29       1.0  0.30434  0.12671  0.67362  1.0000
  H   H84       1.0  0.16970  0.07773  0.67939  1.0000
  C   C52       1.0  0.26376  0.10999  0.71496  1.0000
  H   H85       1.0  0.25161  0.15496  0.68801  1.0000
  C   C53       1.0  0.21945  0.13428  0.71730  1.0000
  H   H86       1.0  0.24523  0.18763  0.70476  1.0000
  H   H87       1.0  0.33967  0.39228  0.69395  1.0000
  Fe  Fe16      1.0  0.22766  0.07490  0.63525  1.0000
  S   S30       1.0  0.08965  0.07790  0.77522  1.0000
  N   N7        1.0  0.24876  0.14060  0.71819  1.0000
  H   H88       1.0  0.13074  0.08498  0.74621  1.0000
  Fe  Fe17      1.0  0.27455  0.09073  0.66195  1.0000
  H   H89       1.0  0.27977  0.14461  0.63691  1.0000
  C   C54       1.0  0.25621  0.16426  0.70291  1.0000
  C   C55       1.0  0.31239  0.21706  0.63576  1.0000
  H   H90       1.0  0.20736  0.15674  0.71969  1.0000
  S   S31       1.0  0.32095  0.32934  0.65381  1.0000
  C   C56       1.0  0.25567  0.15379  0.73762  1.0000
  C   C57       1.0  0.29553  0.19175  0.62989  1.0000
  C   C58       1.0  0.13904  0.08332  0.73164  1.0000
  H   H91       1.0  0.33958  0.23411  0.65796  1.0000
  H   H92       1.0  0.25037  0.13646  0.74946  1.0000
  H   H93       1.0  0.25842  0.09129  0.72599  1.0000
  C   C59       1.0  0.32652  0.21466  0.65337  1.0000
  H   H94       1.0  0.24471  0.17691  0.74057  1.0000
  H   H95       1.0  0.27769  0.15872  0.73870  1.0000
  C   C60       1.0  0.32402  0.18677  0.66495  1.0000
  S   S32       1.0  0.20489  0.09465  0.60957  1.0000
  Fe  Fe18      1.0  0.33527  0.36628  0.63223  1.0000
  H   H96       1.0  0.33519  0.18477  0.67846  1.0000
  Fe  Fe19      1.0  0.33878  0.29303  0.63301  1.0000
  H   H97       1.0  0.31182  0.37074  0.70416  1.0000
  H   H98       1.0  0.21359  0.12418  0.70284  1.0000
  S   S33       1.0  0.34994  0.32978  0.61050  1.0000
  H   H99       1.0  0.35175  0.26119  0.58363  1.0000
  S   S34       1.0  0.37950  0.29281  0.64719  1.0000
  C   C61       1.0  0.05884  0.17743  0.81617  1.0000
  H   H100      1.0  0.33733  0.20501  0.58968  1.0000
  S   S35       1.0  0.06528  0.13554  0.81635  1.0000
  C   C62       1.0  0.32114  0.39515  0.70308  1.0000
  C   C63       1.0  0.21155  0.07030  0.58907  1.0000
  H   H101      1.0  0.26738  0.39941  0.70871  1.0000
  H   H102      1.0  0.30344  0.21545  0.58331  1.0000
  H   H103      1.0  0.29660  0.38120  0.58135  1.0000
  S   S36       1.0  0.27238  0.06844  0.63215  1.0000
  C   C64       1.0  0.16490  0.07012  0.72879  1.0000
  H   H104      1.0  0.33066  0.39445  0.57809  1.0000
  C   C65       1.0  0.32315  0.20722  0.57713  1.0000
  S   S37       1.0  0.07629  0.34970  0.85294  1.0000
  S   S38       1.0  0.31493  0.10353  0.01344  1.0000
  Fe  Fe20      1.0  0.08780  0.32488  0.88082  1.0000
  S   S39       1.0  0.13136  0.31815  0.88884  1.0000
  Fe  Fe21      1.0  0.20913  0.38813  0.97306  1.0000
  C   C66       1.0  0.29145  0.31255  0.05960  1.0000
  H   H105      1.0  0.14079  0.30266  0.96885  1.0000
  Fe  Fe22      1.0  0.21038  0.34932  0.01043  1.0000
  S   S40       1.0  0.25538  0.34946  0.01224  1.0000
  S   S41       1.0  0.18527  0.32229  0.03221  1.0000
  H   H106      1.0  0.20484  0.38474  0.04441  1.0000
  C   C67       1.0  0.30443  0.22406  0.01142  1.0000
  Fe  Fe23      1.0  0.25413  0.33960  0.98010  1.0000
  N   N8        1.0  0.11977  0.34321  0.98182  1.0000
  C   C68       1.0  0.14064  0.39292  0.92658  1.0000
  S   S42       1.0  0.20921  0.33468  0.97896  1.0000
  C   C69       1.0  0.19880  0.37135  0.05719  1.0000
  H   H107      1.0  0.15452  0.35464  0.99925  1.0000
  C   C70       1.0  0.24835  0.20057  0.93895  1.0000
  C   C71       1.0  0.09410  0.32553  0.98393  1.0000
  H   H108      1.0  0.23123  0.18406  0.94212  1.0000
  H   H109      1.0  0.25071  0.20199  0.92278  1.0000
  S   S43       1.0  0.29106  0.08177  0.96318  1.0000
  H   H110      1.0  0.26655  0.23548  0.02528  1.0000
  H   H111      1.0  0.13314  0.39166  0.97605  1.0000
  H   H112      1.0  0.36821  0.14667  0.07061  1.0000
  C   C72       1.0  0.14431  0.34453  0.90655  1.0000
  C   C73       1.0  0.16978  0.33820  0.91457  1.0000
  C   C74       1.0  0.18051  0.35891  0.92880  1.0000
  H   H113      1.0  0.22771  0.28294  0.06172  1.0000
  C   C75       1.0  0.11412  0.37755  0.97720  1.0000
  C   C76       1.0  0.12973  0.37189  0.91259  1.0000
  H   H114      1.0  0.18118  0.31714  0.90983  1.0000
  H   H115      1.0  0.20013  0.35380  0.93503  1.0000
  H   H116      1.0  0.34071  0.21790  0.99435  1.0000
  H   H117      1.0  0.33306  0.10570  0.06606  1.0000
  H   H118      1.0  0.15847  0.39800  0.85041  1.0000
  C   C77       1.0  0.13512  0.34126  0.00028  1.0000
  H   H119      1.0  0.31213  0.13478  0.05383  1.0000
  C   C78       1.0  0.06489  0.23008  0.83151  1.0000
  C   C79       1.0  0.07065  0.19681  0.83058  1.0000
  S   S44       1.0  0.36547  0.07507  0.98736  1.0000
  N   N9        1.0  0.27346  0.18914  0.94836  1.0000
  H   H120      1.0  0.25489  0.27938  0.00192  1.0000
  C   C80       1.0  0.32198  0.23125  0.99602  1.0000
  H   H121      1.0  0.26363  0.21199  0.97576  1.0000
  H   H122      1.0  0.15382  0.39965  0.87646  1.0000
  H   H123      1.0  0.12515  0.32973  0.95158  1.0000
  C   C81       1.0  0.18772  0.34046  0.05530  1.0000
  H   H124      1.0  0.17211  0.29904  0.07064  1.0000
  C   C82       1.0  0.13588  0.32851  0.96585  1.0000
  H   H125      1.0  0.28341  0.15627  0.92488  1.0000
  S   S45       1.0  0.37492  0.13372  0.01997  1.0000
  S   S46       1.0  0.31153  0.19197  0.02731  1.0000
  C   C83       1.0  0.26937  0.18783  0.96977  1.0000
  Fe  Fe24      1.0  0.32537  0.09900  0.98180  1.0000
  Fe  Fe25      1.0  0.35645  0.08443  0.01908  1.0000
  H   H126      1.0  0.09775  0.29954  0.98747  1.0000
  H   H127      1.0  0.07471  0.24488  0.84232  1.0000
  C   C84       1.0  0.16592  0.38626  0.93483  1.0000
  H   H128      1.0  0.10345  0.38010  0.96299  1.0000
  H   H129      1.0  0.08143  0.33595  0.99589  1.0000
  H   H130      1.0  0.12365  0.35183  0.01280  1.0000
  H   H131      1.0  0.25324  0.17044  0.97383  1.0000
  C   C85       1.0  0.28052  0.15647  0.94101  1.0000
  H   H132      1.0  0.08209  0.32644  0.97020  1.0000
  H   H133      1.0  0.32908  0.26160  0.97094  1.0000
  H   H134      1.0  0.11018  0.37697  0.90640  1.0000
  H   H135      1.0  0.23934  0.32041  0.05158  1.0000
  S   S47       1.0  0.25433  0.39206  0.97133  1.0000
  H   H136      1.0  0.08447  0.18607  0.84098  1.0000
  H   H137      1.0  0.29034  0.23697  0.94822  1.0000
  C   C86       1.0  0.29557  0.21174  0.94374  1.0000
  H   H138      1.0  0.31455  0.20483  0.95143  1.0000
  C   C87       1.0  0.27391  0.26655  0.00054  1.0000
  H   H139      1.0  0.26459  0.13852  0.94460  1.0000
  H   H140      1.0  0.24255  0.22523  0.94425  1.0000
  H   H141      1.0  0.28802  0.17992  0.97746  1.0000
  H   H142      1.0  0.28299  0.24829  0.05945  1.0000
  C   C88       1.0  0.31545  0.25603  0.98285  1.0000
  C   C89       1.0  0.28050  0.24182  0.01376  1.0000
  H   H143      1.0  0.30002  0.21226  0.92780  1.0000
  S   S48       1.0  0.28212  0.30213  0.96728  1.0000
  H   H144      1.0  0.28585  0.33811  0.05617  1.0000
  C   C90       1.0  0.29130  0.27350  0.98497  1.0000
  H   H145      1.0  0.15531  0.34136  0.96395  1.0000
  H   H146      1.0  0.29959  0.14734  0.94765  1.0000
  Fe  Fe26      1.0  0.33408  0.15218  0.01160  1.0000
  H   H147      1.0  0.14024  0.31575  0.00414  1.0000
  S   S49       1.0  0.34171  0.14939  0.97929  1.0000
  H   H148      1.0  0.25047  0.28303  0.04123  1.0000
  C   C91       1.0  0.31754  0.12497  0.06846  1.0000
  S   S50       1.0  0.06152  0.28185  0.87555  1.0000
  C   C92       1.0  0.18050  0.32306  0.07203  1.0000
  H   H149      1.0  0.30065  0.18641  0.06946  1.0000
  C   C93       1.0  0.24555  0.29526  0.05527  1.0000
  H   H150      1.0  0.13011  0.37855  0.86157  1.0000
  S   S51       1.0  0.05730  0.35069  0.89947  1.0000
  H   H151      1.0  0.34787  0.17609  0.05829  1.0000
  H   H152      1.0  0.29770  0.30082  0.04558  1.0000
  H   H153      1.0  0.10156  0.38929  0.98875  1.0000
  Fe  Fe27      1.0  0.38118  0.12612  0.98762  1.0000
  N   N10       1.0  0.26870  0.29520  0.06877  1.0000
  H   H154      1.0  0.30935  0.31301  0.06936  1.0000
  C   C94       1.0  0.14306  0.40047  0.86219  1.0000
  C   C95       1.0  0.35211  0.16518  0.07284  1.0000
  H   H155      1.0  0.36917  0.70084  0.09871  1.0000
  C   C96       1.0  0.05463  0.58860  0.31971  1.0000
  H   H156      1.0  0.32902  0.41492  0.12966  1.0000
  C   C97       1.0  0.10751  0.42932  0.32161  1.0000
  H   H157      1.0  0.30723  0.66312  0.11814  1.0000
  H   H158      1.0  0.19193  0.44858  0.13526  1.0000
  C   C98       1.0  0.32928  0.46493  0.08577  1.0000
  H   H159      1.0  0.38202  0.46222  0.16788  1.0000
  H   H160      1.0  0.24843  0.49662  0.15612  1.0000
  H   H161      1.0  0.25109  0.66694  0.18109  1.0000
  H   H162      1.0  0.33350  0.71311  0.15117  1.0000
  C   C99       1.0  0.29248  0.72252  0.16009  1.0000
  C   C100      1.0  0.22757  0.48875  0.15244  1.0000
  H   H163      1.0  0.23937  0.43809  0.12825  1.0000
  N   N11       1.0  0.32686  0.69081  0.09562  1.0000
  H   H164      1.0  0.29487  0.44374  0.19568  1.0000
  H   H165      1.0  0.22405  0.49465  0.13678  1.0000
  N   N12       1.0  0.22395  0.45380  0.15620  1.0000
  H   H166      1.0  0.29853  0.70540  0.11790  1.0000
  H   H167      1.0  0.31415  0.65733  0.07339  1.0000
  H   H168      1.0  0.18087  0.45805  0.15972  1.0000
  C   C101      1.0  0.22877  0.44702  0.17712  1.0000
  C   C102      1.0  0.24337  0.43508  0.14415  1.0000
  H   H169      1.0  0.36073  0.41483  0.18371  1.0000
  H   H170      1.0  0.11573  0.40249  0.28608  1.0000
  C   C103      1.0  0.26902  0.67696  0.17443  1.0000
  C   C104      1.0  0.19615  0.44434  0.15104  1.0000
  H   H171      1.0  0.32035  0.52618  0.09822  1.0000
  H   H172      1.0  0.21334  0.50370  0.16136  1.0000
  H   H173      1.0  0.31333  0.46667  0.09724  1.0000
  C   C105      1.0  0.30233  0.43736  0.18128  1.0000
  H   H174      1.0  0.19280  0.41808  0.15370  1.0000
  H   H175      1.0  0.28501  0.67896  0.09965  1.0000
  H   H176      1.0  0.26446  0.44269  0.14694  1.0000
  C   C106      1.0  0.26930  0.70955  0.16865  1.0000
  C   C107      1.0  0.33197  0.66267  0.08269  1.0000
  H   H177      1.0  0.33706  0.64055  0.09126  1.0000
  S   S52       1.0  0.08021  0.71307  0.30737  1.0000
  H   H178      1.0  0.11873  0.45240  0.31999  1.0000
  C   C108      1.0  0.32141  0.42136  0.14400  1.0000
  C   C109      1.0  0.31492  0.46081  0.16972  1.0000
  S   S53       1.0  0.33909  0.54201  0.18224  1.0000
  S   S54       1.0  0.33736  0.57735  0.13953  1.0000
  Fe  Fe28      1.0  0.35033  0.52927  0.15145  1.0000
  S   S55       1.0  0.34000  0.48233  0.13626  1.0000
  Fe  Fe29      1.0  0.37966  0.59278  0.14576  1.0000
  C   C110      1.0  0.31498  0.67035  0.16295  1.0000
  S   S56       1.0  0.37157  0.61005  0.17644  1.0000
  H   H179      1.0  0.35563  0.51881  0.09520  1.0000
  C   C111      1.0  0.33647  0.52265  0.08703  1.0000
  H   H180      1.0  0.25156  0.72454  0.17081  1.0000
  C   C112      1.0  0.30338  0.68422  0.10836  1.0000
  Fe  Fe30      1.0  0.32995  0.59134  0.17070  1.0000
  H   H181      1.0  0.12434  0.71278  0.27669  1.0000
  H   H182      1.0  0.34868  0.46015  0.09347  1.0000
  H   H183      1.0  0.24914  0.45507  0.18169  1.0000
  H   H184      1.0  0.33850  0.54558  0.07861  1.0000
  H   H185      1.0  0.33261  0.65533  0.16061  1.0000
  C   C113      1.0  0.31541  0.70302  0.15746  1.0000
  H   H186      1.0  0.35540  0.67549  0.11745  1.0000
  C   C114      1.0  0.36803  0.42400  0.19807  1.0000
  C   C115      1.0  0.29183  0.65730  0.17154  1.0000
  C   C116      1.0  0.13335  0.40277  0.29618  1.0000
  H   H187      1.0  0.08961  0.43068  0.31185  1.0000
  H   H188      1.0  0.33847  0.72548  0.07373  1.0000
  S   S57       1.0  0.29122  0.61650  0.17859  1.0000
  H   H189      1.0  0.30333  0.71606  0.07403  1.0000
  H   H190      1.0  0.21082  0.40901  0.07709  1.0000
  H   H191      1.0  0.31655  0.48503  0.17518  1.0000
  H   H192      1.0  0.21377  0.45959  0.18664  1.0000
  H   H193      1.0  0.34799  0.71814  0.11744  1.0000
  C   C117      1.0  0.32448  0.45299  0.15105  1.0000
  H   H194      1.0  0.35160  0.43932  0.20441  1.0000
  H   H195      1.0  0.24218  0.40870  0.14732  1.0000
  H   H196      1.0  0.14204  0.72694  0.30881  1.0000
  H   H197      1.0  0.06109  0.59151  0.30423  1.0000
  H   H198      1.0  0.32479  0.44349  0.07647  1.0000
  C   C118      1.0  0.32120  0.71978  0.08359  1.0000
  H   H199      1.0  0.17435  0.71206  0.28221  1.0000
  C   C119      1.0  0.29836  0.40612  0.17400  1.0000
  C   C120      1.0  0.35090  0.69663  0.10783  1.0000
  H   H200      1.0  0.37272  0.48664  0.18859  1.0000
  H   H201      1.0  0.22766  0.42061  0.18032  1.0000
  H   H202      1.0  0.14493  0.42520  0.29322  1.0000
  N   N13       1.0  0.33061  0.49491  0.07404  1.0000
  Fe  Fe31      1.0  0.38178  0.55885  0.18489  1.0000
  H   H203      1.0  0.28776  0.50363  0.07486  1.0000
  H   H204      1.0  0.37074  0.40273  0.20785  1.0000
  S   S58       1.0  0.30181  0.63629  0.53892  1.0000
  Fe  Fe32      1.0  0.10044  0.54317  0.40345  1.0000
  H   H205      1.0  0.28574  0.65521  0.49978  1.0000
  S   S59       1.0  0.08875  0.56510  0.37456  1.0000
  Fe  Fe33      1.0  0.27851  0.53757  0.49793  1.0000
  N   N14       1.0  0.25553  0.51876  0.43331  1.0000
  S   S60       1.0  0.23581  0.52373  0.50469  1.0000
  H   H206      1.0  0.21627  0.52989  0.42166  1.0000
  C   C121      1.0  0.07922  0.65337  0.35429  1.0000
  C   C122      1.0  0.28498  0.42070  0.50128  1.0000
  H   H207      1.0  0.28270  0.48739  0.41743  1.0000
  C   C123      1.0  0.32907  0.71892  0.49901  1.0000
  H   H208      1.0  0.12122  0.51779  0.49276  1.0000
  H   H209      1.0  0.22538  0.49785  0.45203  1.0000
  C   C124      1.0  0.15851  0.59456  0.45456  1.0000
  C   C125      1.0  0.14752  0.57917  0.43811  1.0000
  H   H210      1.0  0.15322  0.61952  0.45773  1.0000
  H   H211      1.0  0.13396  0.59232  0.42858  1.0000
  H   H212      1.0  0.26795  0.46858  0.50027  1.0000
  C   C126      1.0  0.07258  0.69644  0.33041  1.0000
  H   H213      1.0  0.23493  0.49992  0.40814  1.0000
  S   S61       1.0  0.29032  0.54585  0.52900  1.0000
  S   S62       1.0  0.14213  0.52761  0.41291  1.0000
  H   H214      1.0  0.29096  0.52978  0.41637  1.0000
  Fe  Fe34      1.0  0.22701  0.57687  0.50188  1.0000
  S   S63       1.0  0.26899  0.59000  0.49226  1.0000
  S   S64       1.0  0.19026  0.59806  0.48707  1.0000
  Fe  Fe35      1.0  0.24700  0.53584  0.53557  1.0000
  H   H215      1.0  0.26798  0.41076  0.50909  1.0000
  C   C127      1.0  0.28481  0.45350  0.49609  1.0000
  Fe  Fe36      1.0  0.27714  0.59724  0.52427  1.0000
  H   H216      1.0  0.23664  0.55632  0.45062  1.0000
  S   S65       1.0  0.23446  0.58803  0.53363  1.0000
  N   N15       1.0  0.30120  0.42068  0.56121  1.0000
  C   C128      1.0  0.34001  0.71557  0.51775  1.0000
  H   H217      1.0  0.07596  0.49131  0.49273  1.0000
  S   S66       1.0  0.30618  0.50764  0.47890  1.0000
  C   C129      1.0  0.24583  0.49248  0.44616  1.0000
  C   C130      1.0  0.06702  0.51528  0.48894  1.0000
  H   H218      1.0  0.06117  0.52761  0.50282  1.0000
  C   C131      1.0  0.15479  0.54720  0.43374  1.0000
  C   C132      1.0  0.17231  0.53036  0.44621  1.0000
  C   C133      1.0  0.18324  0.54573  0.46268  1.0000
  C   C134      1.0  0.17672  0.57805  0.46670  1.0000
  H   H219      1.0  0.17725  0.50529  0.44315  1.0000
  H   H220      1.0  0.19651  0.53260  0.47238  1.0000
  Fe  Fe37      1.0  0.05885  0.59402  0.39218  1.0000
  C   C135      1.0  0.27481  0.41449  0.55198  1.0000
  H   H221      1.0  0.32421  0.41229  0.53497  1.0000
  C   C136      1.0  0.09320  0.51762  0.45921  1.0000
  H   H222      1.0  0.08991  0.63189  0.35901  1.0000
  S   S67       1.0  0.24092  0.50171  0.56068  1.0000
  C   C137      1.0  0.28278  0.51038  0.42593  1.0000
  H   H223      1.0  0.20068  0.55285  0.56160  1.0000
  H   H224      1.0  0.34027  0.68720  0.54426  1.0000
  H   H225      1.0  0.29733  0.50701  0.43816  1.0000
  C   C138      1.0  0.30626  0.46645  0.48542  1.0000
  S   S68       1.0  0.07071  0.50266  0.40123  1.0000
  H   H226      1.0  0.05465  0.56294  0.46365  1.0000
  S   S69       1.0  0.07329  0.57545  0.42126  1.0000
  C   C139      1.0  0.30106  0.67166  0.50479  1.0000
  H   H227      1.0  0.12547  0.55581  0.48060  1.0000
  C   C140      1.0  0.31209  0.66806  0.52344  1.0000
  H   H228      1.0  0.10391  0.49441  0.46223  1.0000
  H   H229      1.0  0.30094  0.69952  0.47817  1.0000
  H   H230      1.0  0.10657  0.53237  0.44977  1.0000
  N   N16       1.0  0.08605  0.53504  0.47743  1.0000
  C   C141      1.0  0.08633  0.66850  0.33663  1.0000
  H   H231      1.0  0.26375  0.56982  0.43528  1.0000
  H   H232      1.0  0.24495  0.46893  0.43827  1.0000
  H   H233      1.0  0.25934  0.48897  0.45895  1.0000
  C   C142      1.0  0.32776  0.44629  0.47978  1.0000
  H   H234      1.0  0.10625  0.55402  0.50278  1.0000
  C   C143      1.0  0.11078  0.54087  0.48892  1.0000
  C   C144      1.0  0.23687  0.52277  0.41665  1.0000
  C   C145      1.0  0.30959  0.69693  0.49259  1.0000
  H   H235      1.0  0.05874  0.56307  0.32403  1.0000
  H   H236      1.0  0.27090  0.54733  0.45701  1.0000
  C   C146      1.0  0.33152  0.69015  0.52993  1.0000
  Fe  Fe38      1.0  0.05641  0.52727  0.37397  1.0000
  H   H237      1.0  0.34060  0.43721  0.55275  1.0000
  H   H238      1.0  0.31329  0.45340  0.53837  1.0000
  H   H239      1.0  0.07500  0.51186  0.45042  1.0000
  H   H240      1.0  0.24387  0.54200  0.40649  1.0000
  C   C147      1.0  0.25671  0.54939  0.44451  1.0000
  H   H241      1.0  0.34435  0.45609  0.47141  1.0000
  H   H242      1.0  0.06718  0.58001  0.48597  1.0000
  H   H243      1.0  0.09982  0.42819  0.33691  1.0000
  C   C148      1.0  0.32069  0.43143  0.54620  1.0000
  H   H244      1.0  0.08713  0.58213  0.46407  1.0000
  C   C149      1.0  0.05828  0.66607  0.36579  1.0000
  C   C150      1.0  0.32829  0.41359  0.48548  1.0000
  H   H245      1.0  0.26697  0.43650  0.54440  1.0000
  H   H246      1.0  0.10232  0.65834  0.32768  1.0000
  H   H247      1.0  0.26394  0.56722  0.57248  1.0000
  C   C151      1.0  0.07319  0.56641  0.47257  1.0000
  H   H248      1.0  0.37489  0.72641  0.55754  1.0000
  H   H249      1.0  0.05523  0.45429  0.37301  1.0000
  H   H250      1.0  0.06783  0.60407  0.32883  1.0000
  H   H251      1.0  0.16089  0.42258  0.32774  1.0000
  H   H252      1.0  0.35525  0.73228  0.52267  1.0000
  H   H253      1.0  0.26801  0.61029  0.57141  1.0000
  H   H254      1.0  0.29133  0.46952  0.56965  1.0000
  H   H255      1.0  0.25939  0.40741  0.56301  1.0000
  C   C152      1.0  0.05220  0.70966  0.34219  1.0000
  Fe  Fe39      1.0  0.08660  0.60012  0.77728  1.0000
  S   S70       1.0  0.12789  0.62123  0.77373  1.0000
  N   N17       1.0  0.30235  0.41919  0.69452  1.0000
  H   H256      1.0  0.10929  0.53732  0.70182  1.0000
  Fe  Fe40      1.0  0.21980  0.55449  0.69877  1.0000
  S   S71       1.0  0.26007  0.57858  0.70090  1.0000
  S   S72       1.0  0.19934  0.52668  0.72269  1.0000
  Fe  Fe41      1.0  0.21201  0.57308  0.65657  1.0000
  S   S73       1.0  0.25149  0.59886  0.65465  1.0000
  S   S74       1.0  0.18395  0.57377  0.63097  1.0000
  Fe  Fe42      1.0  0.26789  0.55665  0.67136  1.0000
  H   H257      1.0  0.24545  0.59282  0.58906  1.0000
  S   S75       1.0  0.22924  0.52863  0.67071  1.0000
  C   C153      1.0  0.19788  0.55191  0.61136  1.0000
  C   C154      1.0  0.12754  0.61524  0.71038  1.0000
  N   N18       1.0  0.11257  0.58921  0.70037  1.0000
  C   C155      1.0  0.28882  0.61745  0.60732  1.0000
  C   C156      1.0  0.19219  0.56122  0.59213  1.0000
  H   H258      1.0  0.12281  0.63943  0.70407  1.0000
  H   H259      1.0  0.26718  0.50610  0.64176  1.0000
  C   C157      1.0  0.14949  0.59444  0.76126  1.0000
  C   C158      1.0  0.17113  0.60663  0.75040  1.0000
  C   C159      1.0  0.18690  0.58576  0.73879  1.0000
  C   C160      1.0  0.18146  0.55258  0.73846  1.0000
  H   H260      1.0  0.17523  0.63234  0.75048  1.0000
  H   H261      1.0  0.20325  0.59537  0.73008  1.0000
  H   H262      1.0  0.24137  0.48962  0.60182  1.0000
  C   C161      1.0  0.22285  0.51975  0.57992  1.0000
  C   C162      1.0  0.27609  0.68132  0.65825  1.0000
  H   H263      1.0  0.26938  0.62225  0.61505  1.0000
  H   H264      1.0  0.10102  0.67899  0.78829  1.0000
  H   H265      1.0  0.11456  0.61279  0.67235  1.0000
  H   H266      1.0  0.26619  0.45304  0.62490  1.0000
  Fe  Fe43      1.0  0.24045  0.61886  0.68403  1.0000
  C   C163      1.0  0.08325  0.59484  0.70289  1.0000
  S   S76       1.0  0.19930  0.59683  0.68457  1.0000
  C   C164      1.0  0.21544  0.52589  0.61480  1.0000
  H   H267      1.0  0.21948  0.51820  0.62957  1.0000
  C   C165      1.0  0.27418  0.68672  0.67842  1.0000
  H   H268      1.0  0.11525  0.55685  0.72487  1.0000
  H   H269      1.0  0.17847  0.58120  0.58941  1.0000
  H   H270      1.0  0.33065  0.58027  0.59537  1.0000
  H   H271      1.0  0.13165  0.65152  0.81197  1.0000
  C   C166      1.0  0.16053  0.54021  0.74997  1.0000
  C   C167      1.0  0.14435  0.56119  0.76120  1.0000
  H   H272      1.0  0.15637  0.51452  0.74977  1.0000
  H   H273      1.0  0.12790  0.55159  0.76980  1.0000
  H   H274      1.0  0.29926  0.55720  0.62012  1.0000
  H   H275      1.0  0.32244  0.46007  0.70738  1.0000
  H   H276      1.0  0.07117  0.57544  0.69586  1.0000
  H   H277      1.0  0.26089  0.66722  0.65091  1.0000
  H   H278      1.0  0.07676  0.61835  0.69644  1.0000
  C   C168      1.0  0.31625  0.71464  0.65679  1.0000
  H   H279      1.0  0.14135  0.58440  0.67687  1.0000
  S   S77       1.0  0.24736  0.67087  0.69203  1.0000
  H   H280      1.0  0.08166  0.71373  0.79601  1.0000
  H   H281      1.0  0.10827  0.57001  0.67127  1.0000
  C   C169      1.0  0.12010  0.55762  0.70898  1.0000
  H   H282      1.0  0.29293  0.63870  0.59779  1.0000
  N   N19       1.0  0.28761  0.58720  0.59577  1.0000
  C   C170      1.0  0.22766  0.50958  0.59909  1.0000
  C   C171      1.0  0.11944  0.58913  0.67931  1.0000
  S   S78       1.0  0.34094  0.73437  0.64285  1.0000
  H   H283      1.0  0.29216  0.70975  0.70338  1.0000
  H   H284      1.0  0.12248  0.61624  0.72626  1.0000
  H   H285      1.0  0.07744  0.59549  0.71863  1.0000
  H   H286      1.0  0.14974  0.61141  0.70919  1.0000
  H   H287      1.0  0.28374  0.43124  0.72207  1.0000
  H   H288      1.0  0.33211  0.72276  0.60188  1.0000
  H   H289      1.0  0.14711  0.72116  0.82229  1.0000
  C   C172      1.0  0.31451  0.71959  0.67697  1.0000
  C   C173      1.0  0.13233  0.71651  0.81041  1.0000
  H   H290      1.0  0.28254  0.43939  0.58734  1.0000
  C   C174      1.0  0.09089  0.69057  0.80109  1.0000
  H   H291      1.0  0.29827  0.69149  0.63181  1.0000
  N   N20       1.0  0.10995  0.69596  0.81730  1.0000
  C   C175      1.0  0.20488  0.54534  0.57641  1.0000
  H   H292      1.0  0.35006  0.43827  0.63813  1.0000
  C   C176      1.0  0.31601  0.45078  0.69286  1.0000
  C   C177      1.0  0.27825  0.42277  0.70715  1.0000
  S   S79       1.0  0.30920  0.53734  0.66387  1.0000
  H   H293      1.0  0.28039  0.42596  0.66772  1.0000
  C   C178      1.0  0.33203  0.45310  0.63883  1.0000
  C   C179      1.0  0.28482  0.46161  0.63123  1.0000
  S   S80       1.0  0.06958  0.56165  0.75797  1.0000
  H   H294      1.0  0.31742  0.60280  0.57497  1.0000
  C   C180      1.0  0.26527  0.58952  0.58158  1.0000
  H   H295      1.0  0.34443  0.70074  0.58097  1.0000
  H   H296      1.0  0.30492  0.61621  0.61864  1.0000
  C   C181      1.0  0.29714  0.69525  0.64744  1.0000
  C   C182      1.0  0.28528  0.49148  0.64092  1.0000
  C   C183      1.0  0.29340  0.70589  0.68775  1.0000
  C   C184      1.0  0.34967  0.71975  0.59184  1.0000
  H   H297      1.0  0.33433  0.44899  0.68346  1.0000
  H   H298      1.0  0.14342  0.70479  0.79804  1.0000
  S   S81       1.0  0.07098  0.57823  0.80500  1.0000
  H   H299      1.0  0.28202  0.53624  0.60079  1.0000
  C   C185      1.0  0.30904  0.50206  0.64972  1.0000
  H   H300      1.0  0.35112  0.49177  0.65475  1.0000
  C   C186      1.0  0.28297  0.55951  0.60900  1.0000
  C   C187      1.0  0.30798  0.44205  0.63066  1.0000
  C   C188      1.0  0.33263  0.48336  0.64814  1.0000
  H   H301      1.0  0.14216  0.55269  0.70742  1.0000
  H   H302      1.0  0.26374  0.44081  0.70100  1.0000
  C   C189      1.0  0.31332  0.58232  0.58512  1.0000
  H   H303      1.0  0.26358  0.56227  0.61710  1.0000
  C   C190      1.0  0.29798  0.44619  0.57624  1.0000
  H   H304      1.0  0.30250  0.46951  0.68629  1.0000
  H   H305      1.0  0.32950  0.73367  0.68438  1.0000
  H   H306      1.0  0.31287  0.55989  0.57607  1.0000
  H   H307      1.0  0.31717  0.45047  0.58422  1.0000
  H   H308      1.0  0.07422  0.67435  0.80567  1.0000
  C   C191      1.0  0.29402  0.40807  0.67491  1.0000
  H   H309      1.0  0.36679  0.71049  0.60082  1.0000
  S   S82       1.0  0.05184  0.63417  0.77297  1.0000
  S   S83       1.0  0.30573  0.40309  0.62085  1.0000
  H   H310      1.0  0.31178  0.40439  0.66515  1.0000
  H   H311      1.0  0.32773  0.40235  0.71799  1.0000
  Fe  Fe44      1.0  0.05042  0.54256  0.78532  1.0000
  H   H312      1.0  0.09344  0.45422  0.87437  1.0000
  H   H313      1.0  0.21494  0.63096  0.99141  1.0000
  C   C192      1.0  0.22971  0.63400  0.97929  1.0000
  H   H314      1.0  0.35352  0.51372  0.04984  1.0000
  H   H315      1.0  0.24094  0.61065  0.97773  1.0000
  H   H316      1.0  0.27750  0.67481  0.00475  1.0000
  H   H317      1.0  0.13505  0.66739  0.83632  1.0000
  H   H318      1.0  0.27498  0.63210  0.00072  1.0000
  S   S84       1.0  0.36850  0.58105  0.98738  1.0000
  H   H319      1.0  0.10942  0.71694  0.84616  1.0000
  Fe  Fe45      1.0  0.37747  0.63355  0.98202  1.0000
  H   H320      1.0  0.21766  0.69045  0.99709  1.0000
  C   C193      1.0  0.31379  0.72770  0.99942  1.0000
  C   C194      1.0  0.23264  0.69160  0.98498  1.0000
  H   H321      1.0  0.12934  0.41407  0.93127  1.0000
  H   H322      1.0  0.24939  0.52310  0.97634  1.0000
  H   H323      1.0  0.24914  0.65311  0.01424  1.0000
  H   H324      1.0  0.24540  0.46874  0.99163  1.0000
  C   C195      1.0  0.10666  0.43245  0.87590  1.0000
  N   N21       1.0  0.24827  0.66112  0.98315  1.0000
  C   C196      1.0  0.26307  0.65501  0.00153  1.0000
  H   H325      1.0  0.21825  0.63782  0.96552  1.0000
  C   C197      1.0  0.30421  0.49292  0.01241  1.0000
  H   H326      1.0  0.22168  0.69753  0.97125  1.0000
  H   H327      1.0  0.31988  0.48421  0.02199  1.0000
  S   S85       1.0  0.32493  0.69753  0.03410  1.0000
  C   C198      1.0  0.26244  0.48397  0.99503  1.0000
  C   C199      1.0  0.26467  0.51473  0.98644  1.0000
  C   C200      1.0  0.11323  0.43077  0.84092  1.0000
  C   C201      1.0  0.26770  0.66391  0.96681  1.0000
  C   C202      1.0  0.14505  0.45887  0.86138  1.0000
  H   H328      1.0  0.29907  0.47932  0.05465  1.0000
  Fe  Fe46      1.0  0.37390  0.59411  0.01900  1.0000
  H   H329      1.0  0.15583  0.45949  0.87565  1.0000
  H   H330      1.0  0.09325  0.41095  0.87573  1.0000
  H   H331      1.0  0.16063  0.45833  0.84960  1.0000
  S   S86       1.0  0.27906  0.43575  0.02002  1.0000
  H   H332      1.0  0.27963  0.64112  0.96487  1.0000
  S   S87       1.0  0.28906  0.57338  0.98067  1.0000
  C   C203      1.0  0.28661  0.53459  0.99093  1.0000
  H   H333      1.0  0.24605  0.71239  0.98812  1.0000
  H   H334      1.0  0.13355  0.48202  0.85993  1.0000
  C   C204      1.0  0.28210  0.47323  0.00820  1.0000
  H   H335      1.0  0.25733  0.66897  0.95273  1.0000
  H   H336      1.0  0.28224  0.68393  0.96936  1.0000
  Fe  Fe47      1.0  0.32594  0.59805  0.99212  1.0000
  C   C205      1.0  0.30832  0.72629  0.01944  1.0000
  H   H337      1.0  0.12790  0.42937  0.82858  1.0000
  C   C206      1.0  0.35224  0.49170  0.05920  1.0000
  S   S88       1.0  0.33046  0.60648  0.02427  1.0000
  S   S89       1.0  0.33416  0.64942  0.98388  1.0000
  C   C207      1.0  0.30645  0.52357  0.00385  1.0000
  H   H338      1.0  0.30501  0.52214  0.05461  1.0000
  H   H339      1.0  0.32369  0.53849  0.00709  1.0000
  H   H340      1.0  0.33051  0.71417  0.99334  1.0000
  Fe  Fe48      1.0  0.34214  0.65684  0.01581  1.0000
  H   H341      1.0  0.10083  0.45314  0.83889  1.0000
  H   H342      1.0  0.34874  0.47066  0.04935  1.0000
  N   N22       1.0  0.12700  0.43061  0.86008  1.0000
  H   H343      1.0  0.09931  0.40993  0.83943  1.0000
  S   S90       1.0  0.20673  0.40250  0.00468  1.0000
  C   C208      1.0  0.30447  0.50029  0.06414  1.0000
  S   S91       1.0  0.17810  0.41138  0.95345  1.0000
  Fe  Fe49      1.0  0.25199  0.40164  0.00365  1.0000
  H   H344      1.0  0.11633  0.43346  0.89055  1.0000
  H   H345      1.0  0.37235  0.48826  0.06611  1.0000
  H   H346      1.0  0.07864  0.69742  0.83909  1.0000
  C   C209      1.0  0.09572  0.71230  0.83363  1.0000
  H   H347      1.0  0.10420  0.64816  0.82895  1.0000
  H   H348      1.0  0.34909  0.66732  0.07250  1.0000
  C   C210      1.0  0.12073  0.66440  0.82398  1.0000
  N   N23       1.0  0.33245  0.84771  0.16561  1.0000
  H   H349      1.0  0.36934  0.82508  0.15592  1.0000
  C   C211      1.0  0.19103  0.84846  0.07619  1.0000
  S   S92       1.0  0.09490  0.84410  0.25391  1.0000
  Fe  Fe50      1.0  0.23445  0.85213  0.17675  1.0000
  S   S93       1.0  0.19106  0.84219  0.17016  1.0000
  H   H350      1.0  0.15976  0.76444  0.31243  1.0000
  H   H351      1.0  0.20967  0.05939  0.17786  1.0000
  C   C212      1.0  0.30574  0.96093  0.17950  1.0000
  Fe  Fe51      1.0  0.06543  0.81694  0.27269  1.0000
  Fe  Fe52      1.0  0.20638  0.82418  0.14125  1.0000
  S   S94       1.0  0.18151  0.83148  0.11424  1.0000
  Fe  Fe53      1.0  0.20025  0.79188  0.18048  1.0000
  S   S95       1.0  0.16928  0.76279  0.19678  1.0000
  H   H352      1.0  0.13085  0.80168  0.27916  1.0000
  S   S96       1.0  0.24252  0.80316  0.18987  1.0000
  Fe  Fe54      1.0  0.25417  0.78890  0.15930  1.0000
  H   H353      1.0  0.27606  0.05909  0.15288  1.0000
  N   N24       1.0  0.11381  0.81275  0.15367  1.0000
  H   H354      1.0  0.08059  0.77995  0.15660  1.0000
  C   C213      1.0  0.34564  0.87852  0.17085  1.0000
  C   C214      1.0  0.22077  0.87209  0.10021  1.0000
  C   C215      1.0  0.19902  0.85204  0.09569  1.0000
  C   C216      1.0  0.26573  0.03529  0.15286  1.0000
  H   H355      1.0  0.22660  0.87568  0.11524  1.0000
  H   H356      1.0  0.21614  0.99940  0.17939  1.0000
  C   C217      1.0  0.14869  0.78560  0.21253  1.0000
  C   C218      1.0  0.12539  0.77161  0.22035  1.0000
  C   C219      1.0  0.10841  0.78961  0.23279  1.0000
  C   C220      1.0  0.11473  0.82165  0.23743  1.0000
  C   C221      1.0  0.13787  0.83575  0.22939  1.0000
  C   C222      1.0  0.15494  0.81770  0.21706  1.0000
  H   H357      1.0  0.27394  0.01717  0.19008  1.0000
  H   H358      1.0  0.09043  0.77874  0.23870  1.0000
  H   H359      1.0  0.14286  0.86053  0.23301  1.0000
  H   H360      1.0  0.17303  0.82858  0.21122  1.0000
  H   H361      1.0  0.28162  0.01639  0.15455  1.0000
  S   S97       1.0  0.24742  0.89677  0.19310  1.0000
  H   H362      1.0  0.33091  0.89894  0.17088  1.0000
  H   H363      1.0  0.14175  0.85006  0.14550  1.0000
  Fe  Fe55      1.0  0.05771  0.75883  0.29895  1.0000
  H   H364      1.0  0.35470  0.87747  0.18570  1.0000
  C   C223      1.0  0.12162  0.84052  0.14131  1.0000
  S   S98       1.0  0.07731  0.80701  0.30373  1.0000
  C   C224      1.0  0.27085  0.91943  0.15956  1.0000
  H   H365      1.0  0.30044  0.81773  0.17645  1.0000
  C   C225      1.0  0.13396  0.78641  0.15142  1.0000
  H   H366      1.0  0.13581  0.77833  0.13592  1.0000
  H   H367      1.0  0.24388  0.03533  0.20005  1.0000
  C   C226      1.0  0.30777  0.95765  0.15919  1.0000
  H   H368      1.0  0.31708  0.74150  0.09283  1.0000
  S   S99       1.0  0.33139  0.04917  0.18591  1.0000
  C   C227      1.0  0.26955  0.92146  0.17993  1.0000
  H   H369      1.0  0.10689  0.80268  0.18412  1.0000
  C   C228      1.0  0.35239  0.82095  0.16630  1.0000
  H   H370      1.0  0.09762  0.84294  0.17668  1.0000
  C   C229      1.0  0.23146  0.00192  0.16756  1.0000
  H   H371      1.0  0.07131  0.82019  0.14912  1.0000
  H   H372      1.0  0.15507  0.79101  0.26069  1.0000
  H   H373      1.0  0.36187  0.88485  0.16027  1.0000
  H   H374      1.0  0.12314  0.83350  0.12560  1.0000
  S   S100      1.0  0.24919  0.83857  0.14676  1.0000
  H   H375      1.0  0.25687  0.90438  0.15171  1.0000
  C   C230      1.0  0.08704  0.80095  0.14756  1.0000
  H   H376      1.0  0.21509  0.05857  0.15182  1.0000
  H   H377      1.0  0.28561  0.94445  0.20566  1.0000
  H   H378      1.0  0.31791  0.84006  0.19495  1.0000
  S   S101      1.0  0.21267  0.77301  0.15102  1.0000
  H   H379      1.0  0.10724  0.75086  0.27440  1.0000
  H   H380      1.0  0.13249  0.83205  0.17947  1.0000
  C   C231      1.0  0.11260  0.82308  0.17436  1.0000
  C   C232      1.0  0.31042  0.84117  0.17965  1.0000
  C   C233      1.0  0.28665  0.94271  0.18988  1.0000
  C   C234      1.0  0.22540  0.06000  0.16622  1.0000
  N   N25       1.0  0.24530  0.03346  0.16861  1.0000
  H   H381      1.0  0.36103  0.81818  0.18121  1.0000
  H   H382      1.0  0.30607  0.87000  0.14459  1.0000
  H   H383      1.0  0.12415  0.76448  0.30773  1.0000
  C   C235      1.0  0.25866  0.03666  0.18781  1.0000
  C   C236      1.0  0.14362  0.75253  0.30381  1.0000
  C   C237      1.0  0.17480  0.73806  0.27795  1.0000
  H   H384      1.0  0.25655  0.03201  0.13818  1.0000
  H   H385      1.0  0.24601  0.98149  0.16915  1.0000
  S   S102      1.0  0.29291  0.76275  0.15199  1.0000
  C   C238      1.0  0.32128  0.85016  0.14564  1.0000
  C   C239      1.0  0.29013  0.93719  0.14923  1.0000
  H   H386      1.0  0.07104  0.95069  0.31050  1.0000
  C   C240      1.0  0.23469  0.88819  0.08525  1.0000
  H   H387      1.0  0.05846  0.89256  0.31076  1.0000
  H   H388      1.0  0.29140  0.93504  0.13347  1.0000
  H   H389      1.0  0.25144  0.90375  0.08882  1.0000
  H   H390      1.0  0.34294  0.79740  0.16235  1.0000
  H   H391      1.0  0.10686  0.86085  0.14252  1.0000
  Fe  Fe56      1.0  0.34537  0.02577  0.15805  1.0000
  H   H392      1.0  0.31111  0.82733  0.14121  1.0000
  H   H393      1.0  0.29456  0.86029  0.17912  1.0000
  H   H394      1.0  0.31951  0.97653  0.18727  1.0000
  S   S103      1.0  0.33282  0.97767  0.14598  1.0000
  C   C241      1.0  0.15036  0.78876  0.27655  1.0000
  C   C242      1.0  0.38004  0.05596  0.09932  1.0000
  H   H395      1.0  0.22106  0.99864  0.15330  1.0000
  H   H396      1.0  0.33730  0.85522  0.13466  1.0000
  H   H397      1.0  0.15432  0.79439  0.15599  1.0000
  H   H398      1.0  0.08726  0.79303  0.13199  1.0000
  H   H399      1.0  0.12890  0.76505  0.16061  1.0000
  H   H400      1.0  0.12039  0.74685  0.21670  1.0000
  H   H401      1.0  0.16621  0.80203  0.28470  1.0000
  Fe  Fe57      1.0  0.37391  0.06736  0.18803  1.0000
  N   N26       1.0  0.14892  0.75443  0.28256  1.0000
  H   H402      1.0  0.26926  0.06027  0.18913  1.0000
  H   H403      1.0  0.17934  0.73913  0.26198  1.0000
  C   C243      1.0  0.12689  0.73832  0.27186  1.0000
  H   H404      1.0  0.37503  0.04409  0.11289  1.0000
  H   H405      1.0  0.13073  0.73805  0.25585  1.0000
  H   H406      1.0  0.19190  0.74962  0.28575  1.0000
  C   C244      1.0  0.36985  0.04387  0.08168  1.0000
  H   H407      1.0  0.35668  0.02307  0.08182  1.0000
  C   C245      1.0  0.05126  0.90855  0.32222  1.0000
  C   C246      1.0  0.05837  0.94144  0.32210  1.0000
  H   H408      1.0  0.33699  0.95026  0.55843  1.0000
  H   H409      1.0  0.18451  0.99822  0.50130  1.0000
  C   C247      1.0  0.34370  0.78380  0.43565  1.0000
  H   H410      1.0  0.09833  0.98596  0.39667  1.0000
  Fe  Fe58      1.0  0.26921  0.02253  0.47099  1.0000
  Fe  Fe59      1.0  0.36728  0.78729  0.49606  1.0000
  S   S104      1.0  0.23544  0.99337  0.48312  1.0000
  H   H411      1.0  0.08608  0.03426  0.42248  1.0000
  C   C248      1.0  0.13196  0.98316  0.35332  1.0000
  C   C249      1.0  0.37939  0.74533  0.56863  1.0000
  H   H412      1.0  0.34943  0.94990  0.45937  1.0000
  C   C250      1.0  0.16878  0.98229  0.50750  1.0000
  N   N27       1.0  0.12526  0.99652  0.37283  1.0000
  C   C251      1.0  0.11559  0.03028  0.37071  1.0000
  H   H413      1.0  0.11038  0.95100  0.38356  1.0000
  Fe  Fe60      1.0  0.20775  0.02802  0.46792  1.0000
  H   H414      1.0  0.31012  0.99902  0.55120  1.0000
  C   C252      1.0  0.12298  0.02182  0.43736  1.0000
  H   H415      1.0  0.37293  0.82543  0.41402  1.0000
  C   C253      1.0  0.10576  0.04255  0.42690  1.0000
  C   C254      1.0  0.29345  0.98897  0.56022  1.0000
  H   H416      1.0  0.17886  0.96691  0.51871  1.0000
  N   N28       1.0  0.14640  0.00164  0.51593  1.0000
  C   C255      1.0  0.30629  0.97008  0.49624  1.0000
  H   H417      1.0  0.30475  0.94658  0.52421  1.0000
  C   C256      1.0  0.12580  0.97963  0.52397  1.0000
  H   H418      1.0  0.16615  0.01046  0.37891  1.0000
  S   S105      1.0  0.22958  0.00565  0.53654  1.0000
  H   H419      1.0  0.13442  0.96387  0.53561  1.0000
  C   C257      1.0  0.34819  0.92651  0.48758  1.0000
  C   C258      1.0  0.13420  0.02202  0.50049  1.0000
  H   H420      1.0  0.33128  0.79630  0.42441  1.0000
  C   C259      1.0  0.37314  0.76031  0.41112  1.0000
  H   H421      1.0  0.12645  0.00705  0.48818  1.0000
  Fe  Fe61      1.0  0.23481  0.02963  0.50740  1.0000
  C   C260      1.0  0.31992  0.94111  0.56746  1.0000
  S   S106      1.0  0.30748  0.99901  0.46022  1.0000
  C   C261      1.0  0.14951  0.99597  0.38537  1.0000
  H   H422      1.0  0.37866  0.73911  0.44835  1.0000
  H   H423      1.0  0.11756  0.96353  0.51237  1.0000
  H   H424      1.0  0.29008  0.98669  0.49975  1.0000
  H   H425      1.0  0.34225  0.79830  0.44937  1.0000
  H   H426      1.0  0.14780  0.99768  0.34591  1.0000
  H   H427      1.0  0.11662  0.99745  0.44075  1.0000
  S   S107      1.0  0.34548  0.89736  0.52384  1.0000
  C   C262      1.0  0.10388  0.97669  0.38189  1.0000
  C   C263      1.0  0.14839  0.03254  0.44342  1.0000
  S   S108      1.0  0.16988  0.00577  0.45589  1.0000
  C   C264      1.0  0.22268  0.03113  0.55644  1.0000
  C   C265      1.0  0.33560  0.92553  0.50593  1.0000
  C   C266      1.0  0.15691  0.02249  0.53175  1.0000
  H   H428      1.0  0.15717  0.97084  0.38759  1.0000
  H   H429      1.0  0.13932  0.95770  0.35432  1.0000
  H   H430      1.0  0.27991  0.97544  0.55019  1.0000
  H   H431      1.0  0.13132  0.04609  0.36423  1.0000
  H   H432      1.0  0.08523  0.97671  0.37281  1.0000
  H   H433      1.0  0.10975  0.04095  0.38506  1.0000
  C   C267      1.0  0.31863  0.97095  0.47783  1.0000
  H   H434      1.0  0.33422  0.76000  0.43890  1.0000
  H   H435      1.0  0.14514  0.00636  0.40010  1.0000
  C   C268      1.0  0.31476  0.94747  0.51021  1.0000
  H   H436      1.0  0.16665  0.00790  0.54350  1.0000
  H   H437      1.0  0.14923  0.03881  0.49400  1.0000
  H   H438      1.0  0.11392  0.98314  0.34360  1.0000
  H   H439      1.0  0.17258  0.03933  0.52621  1.0000
  H   H440      1.0  0.09758  0.03170  0.36109  1.0000
  H   H441      1.0  0.11720  0.03700  0.50624  1.0000
  H   H442      1.0  0.10858  0.99341  0.53045  1.0000
  H   H443      1.0  0.28151  0.00974  0.56617  1.0000
  S   S109      1.0  0.24170  0.05385  0.45293  1.0000
  Fe  Fe62      1.0  0.37075  0.85604  0.51214  1.0000
  S   S110      1.0  0.36744  0.83612  0.48181  1.0000
  S   S111      1.0  0.36647  0.80744  0.52645  1.0000
  C   C269      1.0  0.33297  0.76272  0.57116  1.0000
  H   H444      1.0  0.36451  0.90987  0.48424  1.0000
  C   C270      1.0  0.21609  0.06383  0.55383  1.0000
  H   H445      1.0  0.16182  0.96644  0.49536  1.0000
  C   C271      1.0  0.33976  0.94930  0.47356  1.0000
  S   S112      1.0  0.33948  0.75009  0.48321  1.0000
  H   H446      1.0  0.32701  0.74540  0.55945  1.0000
  H   H447      1.0  0.14068  0.03747  0.53857  1.0000
  H   H448      1.0  0.30750  0.92558  0.55771  1.0000
  H   H449      1.0  0.38356  0.82732  0.43902  1.0000
  H   H450      1.0  0.33740  0.78627  0.56394  1.0000
  S   S113      1.0  0.27122  0.05623  0.49661  1.0000
  H   H451      1.0  0.36163  0.77217  0.39913  1.0000
  S   S114      1.0  0.05839  0.00339  0.33641  1.0000
  N   N29       1.0  0.37206  0.77981  0.42924  1.0000
  H   H452      1.0  0.34665  0.04736  0.44548  1.0000
  H   H453      1.0  0.33094  0.05531  0.47932  1.0000
  S   S115      1.0  0.20497  0.06284  0.49301  1.0000
  C   C272      1.0  0.15642  0.06416  0.43924  1.0000
  H   H454      1.0  0.30026  0.06617  0.45121  1.0000
  H   H455      1.0  0.36445  0.73582  0.41348  1.0000
  H   H456      1.0  0.30544  0.79929  0.68481  1.0000
  H   H457      1.0  0.14339  0.94519  0.73658  1.0000
  H   H458      1.0  0.34746  0.77959  0.60764  1.0000
  H   H459      1.0  0.13273  0.02202  0.71027  1.0000
  N   N30       1.0  0.26557  0.80349  0.67295  1.0000
  Fe  Fe63      1.0  0.35335  0.83666  0.68163  1.0000
  S   S116      1.0  0.28737  0.97826  0.63574  1.0000
  C   C273      1.0  0.21845  0.03769  0.59156  1.0000
  C   C274      1.0  0.26968  0.83683  0.66572  1.0000
  H   H460      1.0  0.12515  0.98599  0.76044  1.0000
  Fe  Fe64      1.0  0.26529  0.02164  0.64789  1.0000
  H   H461      1.0  0.23254  0.81697  0.69173  1.0000
  S   S117      1.0  0.22012  0.02649  0.64918  1.0000
  C   C275      1.0  0.12353  0.00284  0.74778  1.0000
  C   C276      1.0  0.32089  0.98715  0.58932  1.0000
  H   H462      1.0  0.26707  0.94058  0.57754  1.0000
  N   N31       1.0  0.11740  0.98533  0.72947  1.0000
  C   C277      1.0  0.11374  0.00879  0.71337  1.0000
  H   H463      1.0  0.10740  0.02071  0.75145  1.0000
  H   H464      1.0  0.21947  0.02749  0.60607  1.0000
  H   H465      1.0  0.09418  0.94911  0.74442  1.0000
  H   H466      1.0  0.26741  0.96253  0.67459  1.0000
  H   H467      1.0  0.14287  0.01615  0.74669  1.0000
  H   H468      1.0  0.32986  0.93135  0.63500  1.0000
  C   C278      1.0  0.05369  0.99140  0.81771  1.0000
  H   H469      1.0  0.17633  0.06140  0.74120  1.0000
  H   H470      1.0  0.25606  0.84270  0.65332  1.0000
  H   H471      1.0  0.15922  0.97667  0.72260  1.0000
  H   H472      1.0  0.07494  0.98283  0.73564  1.0000
  C   C279      1.0  0.14001  0.96313  0.72469  1.0000
  C   C280      1.0  0.09234  0.96661  0.73209  1.0000
  Fe  Fe65      1.0  0.05980  0.03740  0.77492  1.0000
  H   H473      1.0  0.29081  0.84042  0.66061  1.0000
  H   H474      1.0  0.32864  0.92521  0.57897  1.0000
  C   C281      1.0  0.29171  0.92188  0.68421  1.0000
  H   H475      1.0  0.28127  0.77243  0.69552  1.0000
  N   N32       1.0  0.35656  0.75063  0.58222  1.0000
  C   C282      1.0  0.29754  0.94953  0.65316  1.0000
  S   S118      1.0  0.36198  0.78556  0.69114  1.0000
  C   C283      1.0  0.28403  0.79716  0.68945  1.0000
  H   H476      1.0  0.22809  0.99263  0.57725  1.0000
  H   H477      1.0  0.10777  0.99659  0.69955  1.0000
  H   H478      1.0  0.13614  0.94950  0.71094  1.0000
  H   H479      1.0  0.26597  0.85509  0.67746  1.0000
  H   H480      1.0  0.32869  0.97209  0.60161  1.0000
  H   H481      1.0  0.22287  0.80427  0.66758  1.0000
  S   S119      1.0  0.20692  0.04768  0.70684  1.0000
  C   C284      1.0  0.28404  0.94643  0.67106  1.0000
  H   H482      1.0  0.29270  0.78134  0.65217  1.0000
  H   H483      1.0  0.28088  0.81488  0.70156  1.0000
  H   H484      1.0  0.08715  0.95271  0.71870  1.0000
  H   H485      1.0  0.26745  0.75482  0.66183  1.0000
  C   C285      1.0  0.28086  0.95453  0.58715  1.0000
  H   H486      1.0  0.23376  0.77477  0.68522  1.0000
  H   H487      1.0  0.26879  0.97416  0.59428  1.0000
  Fe  Fe66      1.0  0.36210  0.77433  0.65896  1.0000
  C   C286      1.0  0.06000  0.97003  0.80246  1.0000
  C   C287      1.0  0.27124  0.78014  0.65703  1.0000
  C   C288      1.0  0.31910  0.92874  0.64868  1.0000
  H   H488      1.0  0.05581  0.01720  0.81568  1.0000
  H   H489      1.0  0.28094  0.91910  0.69787  1.0000
  S   S120      1.0  0.27180  0.04319  0.67749  1.0000
  N   N33       1.0  0.30380  0.96793  0.57602  1.0000
  S   S121      1.0  0.06942  0.98465  0.77932  1.0000
  S   S122      1.0  0.35014  0.82430  0.64986  1.0000
  H   H490      1.0  0.38182  0.76628  0.60593  1.0000
  H   H491      1.0  0.33849  0.99761  0.58151  1.0000
  C   C289      1.0  0.23739  0.79975  0.67966  1.0000
  H   H492      1.0  0.34442  0.88981  0.65865  1.0000
  C   C290      1.0  0.31318  0.90089  0.67960  1.0000
  C   C291      1.0  0.32718  0.90489  0.66201  1.0000
  H   H493      1.0  0.09796  0.02725  0.71695  1.0000
  S   S123      1.0  0.32132  0.86840  0.69519  1.0000
  H   H494      1.0  0.25832  0.78477  0.64406  1.0000
  H   H495      1.0  0.30924  0.00748  0.59612  1.0000
  H   H496      1.0  0.12472  0.74043  0.80520  1.0000
  H   H497      1.0  0.06266  0.91992  0.79370  1.0000
  C   C292      1.0  0.05784  0.93659  0.80545  1.0000
  Fe  Fe67      1.0  0.22720  0.05296  0.67747  1.0000
  C   C293      1.0  0.36425  0.77479  0.59716  1.0000
  H   H498      1.0  0.31520  0.76654  0.58088  1.0000
  H   H499      1.0  0.28791  0.93822  0.59907  1.0000
  C   C294      1.0  0.22347  0.01802  0.57526  1.0000
  H   H500      1.0  0.37005  0.79826  0.59037  1.0000
  C   C295      1.0  0.17580  0.06751  0.70994  1.0000
  C   C296      1.0  0.26730  0.02222  0.96553  1.0000
  C   C297      1.0  0.20256  0.90686  0.91368  1.0000
  H   H501      1.0  0.35132  0.97651  0.03924  1.0000
  S   S124      1.0  0.12710  0.82481  0.89213  1.0000
  Fe  Fe68      1.0  0.20088  0.88644  0.98085  1.0000
  S   S125      1.0  0.23359  0.86681  0.96145  1.0000
  S   S126      1.0  0.16041  0.90076  0.96852  1.0000
  Fe  Fe69      1.0  0.23706  0.88756  0.01650  1.0000
  N   N34       1.0  0.31910  0.96683  0.01911  1.0000
  S   S127      1.0  0.24506  0.90431  0.04725  1.0000
  Fe  Fe70      1.0  0.26028  0.90232  0.97649  1.0000
  H   H502      1.0  0.27786  0.96734  0.02917  1.0000
  Fe  Fe71      1.0  0.24282  0.83399  0.98660  1.0000
  H   H503      1.0  0.18492  0.96637  0.90396  1.0000
  S   S128      1.0  0.22696  0.92505  0.99394  1.0000
  S   S129      1.0  0.20779  0.85062  0.00505  1.0000
  C   C298      1.0  0.27185  0.76535  0.01512  1.0000
  H   H504      1.0  0.25306  0.92823  0.90651  1.0000
  Fe  Fe72      1.0  0.08475  0.83350  0.88134  1.0000
  H   H505      1.0  0.20884  0.92978  0.95039  1.0000
  H   H506      1.0  0.32869  0.94708  0.99082  1.0000
  H   H507      1.0  0.18016  0.90834  0.91268  1.0000
  H   H508      1.0  0.10362  0.79801  0.96775  1.0000
  H   H509      1.0  0.33845  0.01079  0.00999  1.0000
  C   C299      1.0  0.20515  0.86430  0.06120  1.0000
  H   H510      1.0  0.24924  0.97509  0.96831  1.0000
  C   C300      1.0  0.13656  0.84665  0.91303  1.0000
  C   C301      1.0  0.12278  0.87489  0.91859  1.0000
  C   C302      1.0  0.13016  0.89136  0.93572  1.0000
  C   C303      1.0  0.15132  0.87962  0.94732  1.0000
  C   C304      1.0  0.16496  0.85128  0.94182  1.0000
  C   C305      1.0  0.15774  0.83499  0.92462  1.0000
  H   H511      1.0  0.10673  0.88433  0.90955  1.0000
  H   H512      1.0  0.11957  0.91332  0.93991  1.0000
  H   H513      1.0  0.18090  0.84165  0.95091  1.0000
  H   H514      1.0  0.16833  0.81301  0.92044  1.0000
  C   C306      1.0  0.20338  0.94775  0.93897  1.0000
  H   H515      1.0  0.18093  0.94942  0.93883  1.0000
  H   H516      1.0  0.20742  0.88745  0.92439  1.0000
  H   H517      1.0  0.08713  0.73612  0.82904  1.0000
  H   H518      1.0  0.30782  0.00183  0.99735  1.0000
  H   H519      1.0  0.24889  0.03524  0.96905  1.0000
  C   C307      1.0  0.24398  0.93495  0.92086  1.0000
  S   S130      1.0  0.27270  0.86772  0.99997  1.0000
  N   N35       1.0  0.21429  0.93819  0.91965  1.0000
  H   H520      1.0  0.31816  0.98185  0.04923  1.0000
  C   C308      1.0  0.37585  0.05930  0.06402  1.0000
  H   H521      1.0  0.21589  0.98713  0.90912  1.0000
  C   C309      1.0  0.20720  0.96323  0.90510  1.0000
  S   S131      1.0  0.05861  0.78977  0.87827  1.0000
  C   C310      1.0  0.33645  0.94706  0.00606  1.0000
  H   H522      1.0  0.28356  0.74506  0.04290  1.0000
  S   S132      1.0  0.25282  0.78250  0.97892  1.0000
  H   H523      1.0  0.21036  0.89876  0.89920  1.0000
  C   C311      1.0  0.26748  0.98821  0.96515  1.0000
  H   H524      1.0  0.30656  0.01666  0.02197  1.0000
  H   H525      1.0  0.25354  0.95786  0.92581  1.0000
  H   H526      1.0  0.21132  0.97159  0.94379  1.0000
  H   H527      1.0  0.21496  0.95669  0.89031  1.0000
  H   H528      1.0  0.25003  0.91586  0.93148  1.0000
  H   H529      1.0  0.19888  0.86142  0.04621  1.0000
  H   H530      1.0  0.05883  0.79472  0.92441  1.0000
  C   C312      1.0  0.09332  0.82126  0.96413  1.0000
  S   S133      1.0  0.07443  0.85287  0.85170  1.0000
  H   H531      1.0  0.33122  0.94168  0.04519  1.0000
  C   C313      1.0  0.29127  0.97142  0.96052  1.0000
  C   C314      1.0  0.07673  0.79992  0.93362  1.0000
  H   H532      1.0  0.10827  0.83645  0.95625  1.0000
  C   C315      1.0  0.28781  0.74584  0.02740  1.0000
  H   H533      1.0  0.08840  0.83389  0.97810  1.0000
  H   H534      1.0  0.29178  0.92778  0.02505  1.0000
  H   H535      1.0  0.28262  0.95263  0.00462  1.0000
  H   H536      1.0  0.08744  0.77657  0.93619  1.0000
  S   S134      1.0  0.29226  0.92899  0.95981  1.0000
  H   H537      1.0  0.33736  0.92136  0.01092  1.0000
  C   C316      1.0  0.29111  0.03937  0.96192  1.0000
  H   H538      1.0  0.25533  0.77946  0.02117  1.0000
  H   H539      1.0  0.35743  0.95648  0.00556  1.0000
  C   C317      1.0  0.29164  0.95312  0.01950  1.0000
  C   C318      1.0  0.33045  0.96662  0.03907  1.0000
  C   C319      1.0  0.31487  0.98863  0.95646  1.0000
  C   C320      1.0  0.27624  0.76489  0.99490  1.0000
  H   H540      1.0  0.33331  0.03568  0.95457  1.0000
  H   H541      1.0  0.33329  0.97571  0.95279  1.0000
  C   C321      1.0  0.31492  0.02254  0.95750  1.0000
  C   C322      1.0  0.31790  0.00048  0.01178  1.0000
  C   C323      1.0  0.22706  0.88410  0.06570  1.0000
  C   C324      1.0  0.05595  0.84751  0.94791  1.0000
  S   S135      1.0  0.05344  0.86301  0.89712  1.0000
  H   H542      1.0  0.09032  0.81538  0.92477  1.0000
  S   S136      1.0  0.35980  0.04645  0.04253  1.0000
  N   N36       1.0  0.06895  0.81598  0.95215  1.0000
  H   H543      1.0  0.17411  0.83317  0.07263  1.0000
  H   H544      1.0  0.06989  0.86386  0.93987  1.0000
  H   H545      1.0  0.05880  0.77109  0.96616  1.0000
  H   H546      1.0  0.30112  0.74638  0.97151  1.0000
  C   C325      1.0  0.29747  0.74644  0.98712  1.0000
  H   H547      1.0  0.49100  0.11058  0.18703  1.0000
  C   C326      1.0  0.57303  0.17267  0.30429  1.0000
  C   C327      1.0  0.66410  0.07730  0.20906  1.0000
  C   C328      1.0  0.50005  0.21084  0.31757  1.0000
  H   H548      1.0  0.71286  0.09469  0.07387  1.0000
  C   C329      1.0  0.54827  0.12522  0.31482  1.0000
  H   H549      1.0  0.62018  0.39145  0.23874  1.0000
  C   C330      1.0  0.56888  0.18734  0.32258  1.0000
  S   S137      1.0  0.53321  0.08761  0.30996  1.0000
  H   H550      1.0  0.44441  0.12899  0.17954  1.0000
  S   S138      1.0  0.40440  0.10258  0.12152  1.0000
  C   C331      1.0  0.48552  0.08672  0.18066  1.0000
  H   H551      1.0  0.50991  0.18824  0.31209  1.0000
  H   H552      1.0  0.50441  0.07474  0.17544  1.0000
  H   H553      1.0  0.43993  0.08346  0.24276  1.0000
  H   H554      1.0  0.44965  0.19768  0.30565  1.0000
  S   S139      1.0  0.62591  0.08405  0.23767  1.0000
  H   H555      1.0  0.56569  0.13077  0.28614  1.0000
  H   H556      1.0  0.60396  0.38990  0.26233  1.0000
  H   H557      1.0  0.49435  0.22557  0.30461  1.0000
  H   H558      1.0  0.48113  0.13580  0.15485  1.0000
  C   C332      1.0  0.56278  0.14165  0.30041  1.0000
  C   C333      1.0  0.55543  0.38110  0.30550  1.0000
  H   H559      1.0  0.58387  0.18553  0.29298  1.0000
  H   H560      1.0  0.42526  0.10875  0.16101  1.0000
  H   H561      1.0  0.67556  0.09481  0.21733  1.0000
  C   C334      1.0  0.40362  0.09781  0.08160  1.0000
  H   H562      1.0  0.55653  0.36473  0.29315  1.0000
  H   H563      1.0  0.46607  0.16111  0.31357  1.0000
  S   S140      1.0  0.54841  0.07548  0.25188  1.0000
  H   H564      1.0  0.66500  0.38371  0.25417  1.0000
  C   C335      1.0  0.44053  0.10504  0.17268  1.0000
  H   H565      1.0  0.43118  0.08946  0.18405  1.0000
  H   H566      1.0  0.49548  0.10079  0.14294  1.0000
  H   H567      1.0  0.64892  0.38143  0.27772  1.0000
  H   H568      1.0  0.46187  0.11403  0.13698  1.0000
  C   C336      1.0  0.45685  0.18429  0.31877  1.0000
  H   H569      1.0  0.41649  0.11888  0.08153  1.0000
  C   C337      1.0  0.47655  0.11116  0.14921  1.0000
  C   C338      1.0  0.39625  0.08355  0.09936  1.0000
  N   N37       1.0  0.46553  0.09023  0.16478  1.0000
  H   H570      1.0  0.47747  0.07172  0.19283  1.0000
  S   S141      1.0  0.39578  0.07337  0.21658  1.0000
  H   H571      1.0  0.41870  0.40017  0.19721  1.0000
  H   H572      1.0  0.69530  0.06993  0.18753  1.0000
  C   C339      1.0  0.65762  0.39841  0.26678  1.0000
  C   C340      1.0  0.63832  0.06842  0.21546  1.0000
  S   S142      1.0  0.52693  0.28245  0.35151  1.0000
  H   H573      1.0  0.46636  0.28518  0.48795  1.0000
  Fe  Fe73      1.0  0.51803  0.26066  0.38086  1.0000
  S   S143      1.0  0.47940  0.23525  0.38858  1.0000
  H   H574      1.0  0.64711  0.36232  0.41600  1.0000
  H   H575      1.0  0.50635  0.35300  0.46754  1.0000
  H   H576      1.0  0.63205  0.34423  0.38299  1.0000
  H   H577      1.0  0.47747  0.24892  0.34551  1.0000
  S   S144      1.0  0.43957  0.31795  0.52078  1.0000
  H   H578      1.0  0.50307  0.34047  0.44246  1.0000
  C   C341      1.0  0.48393  0.30018  0.48346  1.0000
  N   N38       1.0  0.48113  0.31156  0.46310  1.0000
  H   H579      1.0  0.50246  0.28522  0.48546  1.0000
  H   H580      1.0  0.43797  0.31674  0.46470  1.0000
  H   H581      1.0  0.52383  0.31736  0.45888  1.0000
  H   H582      1.0  0.55323  0.34261  0.32679  1.0000
  C   C342      1.0  0.43632  0.32239  0.54621  1.0000
  C   C343      1.0  0.41098  0.32577  0.55510  1.0000
  S   S145      1.0  0.39408  0.32249  0.43335  1.0000
  C   C344      1.0  0.45561  0.25951  0.40088  1.0000
  C   C345      1.0  0.43773  0.24528  0.41422  1.0000
  C   C346      1.0  0.41897  0.26450  0.42452  1.0000
  C   C347      1.0  0.41753  0.29780  0.42101  1.0000
  C   C348      1.0  0.43512  0.31190  0.40742  1.0000
  C   C349      1.0  0.45442  0.29288  0.39757  1.0000
  H   H583      1.0  0.43861  0.21945  0.41676  1.0000
  H   H584      1.0  0.65475  0.40112  0.40582  1.0000
  H   H585      1.0  0.43393  0.33767  0.40463  1.0000
  H   H586      1.0  0.46809  0.30397  0.38723  1.0000
  C   C350      1.0  0.47972  0.28331  0.44986  1.0000
  S   S146      1.0  0.54849  0.37460  0.36450  1.0000
  H   H587      1.0  0.47820  0.29105  0.43436  1.0000
  C   C351      1.0  0.50468  0.33151  0.45777  1.0000
  H   H588      1.0  0.49797  0.26758  0.45106  1.0000
  H   H589      1.0  0.45350  0.34064  0.44616  1.0000
  S   S147      1.0  0.53674  0.30121  0.39767  1.0000
  C   C352      1.0  0.62341  0.36888  0.38073  1.0000
  C   C353      1.0  0.46349  0.23421  0.33652  1.0000
  H   H590      1.0  0.58764  0.37327  0.42317  1.0000
  C   C354      1.0  0.69276  0.22520  0.46470  1.0000
  N   N39       1.0  0.61484  0.38374  0.39945  1.0000
  C   C355      1.0  0.45620  0.33121  0.46128  1.0000
  H   H591      1.0  0.50136  0.19800  0.35551  1.0000
  Fe  Fe74      1.0  0.54938  0.32036  0.36832  1.0000
  Fe  Fe75      1.0  0.40085  0.30923  0.50481  1.0000
  N   N40       1.0  0.70590  0.21381  0.44648  1.0000
  H   H592      1.0  0.48491  0.32085  0.49393  1.0000
  S   S148      1.0  0.71556  0.32791  0.42347  1.0000
  S   S149      1.0  0.40120  0.27029  0.48201  1.0000
  C   C356      1.0  0.45958  0.32266  0.55773  1.0000
  H   H593      1.0  0.45612  0.35221  0.47151  1.0000
  H   H594      1.0  0.60183  0.33824  0.41136  1.0000
  H   H595      1.0  0.46178  0.26814  0.45314  1.0000
  H   H596      1.0  0.47922  0.32021  0.55093  1.0000
  H   H597      1.0  0.40528  0.25350  0.43488  1.0000
  H   H598      1.0  0.46834  0.18121  0.35785  1.0000
  H   H599      1.0  0.57590  0.36111  0.39951  1.0000
  H   H600      1.0  0.68361  0.24968  0.46281  1.0000
  H   H601      1.0  0.55210  0.18126  0.35137  1.0000
  H   H602      1.0  0.70212  0.16329  0.45358  1.0000
  Fe  Fe76      1.0  0.56542  0.25362  0.35344  1.0000
  C   C357      1.0  0.48525  0.18503  0.34736  1.0000
  S   S150      1.0  0.55510  0.22933  0.38171  1.0000
  Fe  Fe77      1.0  0.57488  0.27187  0.39597  1.0000
  H   H603      1.0  0.49339  0.16087  0.34316  1.0000
  S   S151      1.0  0.59843  0.26854  0.42403  1.0000
  H   H604      1.0  0.53404  0.12655  0.34459  1.0000
  S   S152      1.0  0.58890  0.29368  0.36774  1.0000
  H   H605      1.0  0.63903  0.38365  0.37327  1.0000
  C   C358      1.0  0.55502  0.17044  0.33715  1.0000
  H   H606      1.0  0.69492  0.20362  0.41671  1.0000
  C   C359      1.0  0.68327  0.31081  0.42380  1.0000
  C   C360      1.0  0.67125  0.30151  0.40616  1.0000
  C   C361      1.0  0.64527  0.28818  0.40609  1.0000
  C   C362      1.0  0.63123  0.28419  0.42367  1.0000
  C   C363      1.0  0.64330  0.29334  0.44130  1.0000
  C   C364      1.0  0.66919  0.30683  0.44136  1.0000
  H   H607      1.0  0.68212  0.30449  0.39254  1.0000
  H   H608      1.0  0.63627  0.28063  0.39247  1.0000
  H   H609      1.0  0.63239  0.29054  0.45493  1.0000
  H   H610      1.0  0.67795  0.31483  0.45495  1.0000
  C   C365      1.0  0.54478  0.13945  0.33328  1.0000
  C   C366      1.0  0.68570  0.21222  0.43066  1.0000
  H   H611      1.0  0.66889  0.19562  0.43444  1.0000
  H   H612      1.0  0.45699  0.24932  0.32392  1.0000
  H   H613      1.0  0.39301  0.32647  0.54627  1.0000
  C   C367      1.0  0.55158  0.38956  0.34052  1.0000
  H   H614      1.0  0.67643  0.20858  0.46941  1.0000
  H   H615      1.0  0.67661  0.23647  0.42777  1.0000
  H   H616      1.0  0.60611  0.36646  0.37048  1.0000
  C   C368      1.0  0.59417  0.36324  0.40881  1.0000
  H   H617      1.0  0.44549  0.22962  0.34589  1.0000
  C   C369      1.0  0.55352  0.36853  0.32453  1.0000
  H   H618      1.0  0.70752  0.22690  0.47692  1.0000
  H   H619      1.0  0.43888  0.17813  0.32780  1.0000
  N   N41       1.0  0.47642  0.20362  0.33005  1.0000
  C   C370      1.0  0.63838  0.38652  0.41256  1.0000
  H   H620      1.0  0.51569  0.22458  0.32572  1.0000
  S   S153      1.0  0.58017  0.22720  0.32653  1.0000
  H   H621      1.0  0.63278  0.39809  0.42672  1.0000
  Fe  Fe78      1.0  0.38922  0.33291  0.62630  1.0000
  C   C371      1.0  0.61744  0.22731  0.75471  1.0000
  S   S154      1.0  0.43053  0.33299  0.61260  1.0000
  H   H622      1.0  0.44627  0.28883  0.64332  1.0000
  H   H623      1.0  0.50351  0.30860  0.65525  1.0000
  H   H624      1.0  0.38942  0.33202  0.58215  1.0000
  S   S155      1.0  0.49317  0.35367  0.77896  1.0000
  Fe  Fe79      1.0  0.50442  0.37432  0.74974  1.0000
  H   H625      1.0  0.44901  0.36426  0.67322  1.0000
  H   H626      1.0  0.60733  0.23975  0.79276  1.0000
  H   H627      1.0  0.43658  0.34747  0.65102  1.0000
  C   C372      1.0  0.65599  0.38617  0.65794  1.0000
  H   H628      1.0  0.42363  0.33313  0.67372  1.0000
  C   C373      1.0  0.39882  0.35116  0.70780  1.0000
  C   C374      1.0  0.45754  0.32594  0.57808  1.0000
  C   C375      1.0  0.40894  0.32903  0.57549  1.0000
  Fe  Fe80      1.0  0.68370  0.29903  0.65525  1.0000
  C   C376      1.0  0.43802  0.35132  0.72931  1.0000
  C   C377      1.0  0.41425  0.33661  0.72260  1.0000
  C   C378      1.0  0.43222  0.32902  0.58703  1.0000
  H   H629      1.0  0.45006  0.33968  0.74048  1.0000
  H   H630      1.0  0.40808  0.31358  0.72862  1.0000
  C   C379      1.0  0.52628  0.21353  0.80379  1.0000
  Fe  Fe81      1.0  0.52315  0.31440  0.77164  1.0000
  C   C380      1.0  0.48695  0.32693  0.65511  1.0000
  S   S156      1.0  0.51813  0.26081  0.77633  1.0000
  C   C381      1.0  0.44608  0.38102  0.72152  1.0000
  H   H631      1.0  0.49520  0.35015  0.66074  1.0000
  N   N42       1.0  0.46358  0.31624  0.66687  1.0000
  C   C382      1.0  0.45303  0.28565  0.65874  1.0000
  C   C383      1.0  0.47189  0.31116  0.68739  1.0000
  H   H632      1.0  0.46863  0.26615  0.65881  1.0000
  H   H633      1.0  0.43534  0.27690  0.66726  1.0000
  H   H634      1.0  0.48799  0.29235  0.68854  1.0000
  H   H635      1.0  0.45456  0.30326  0.69659  1.0000
  H   H636      1.0  0.47974  0.33389  0.69404  1.0000
  C   C384      1.0  0.44228  0.34138  0.66623  1.0000
  H   H637      1.0  0.48113  0.33091  0.63954  1.0000
  Fe  Fe82      1.0  0.52926  0.38084  0.79002  1.0000
  H   H638      1.0  0.47563  0.32607  0.58688  1.0000
  C   C385      1.0  0.52555  0.24691  0.80007  1.0000
  H   H639      1.0  0.52142  0.19661  0.79225  1.0000
  H   H640      1.0  0.65398  0.36153  0.66432  1.0000
  S   S157      1.0  0.53117  0.33254  0.74118  1.0000
  C   C386      1.0  0.40675  0.38104  0.70021  1.0000
  C   C387      1.0  0.59150  0.24736  0.78220  1.0000
  H   H641      1.0  0.53118  0.29441  0.81241  1.0000
  S   S158      1.0  0.64143  0.29197  0.66691  1.0000
  H   H642      1.0  0.58902  0.27198  0.73482  1.0000
  S   S159      1.0  0.68783  0.32627  0.62703  1.0000
  H   H643      1.0  0.57006  0.28690  0.75535  1.0000
  H   H644      1.0  0.63891  0.27657  0.77526  1.0000
  H   H645      1.0  0.57672  0.22725  0.78099  1.0000
  H   H646      1.0  0.63115  0.28992  0.75090  1.0000
  Fe  Fe83      1.0  0.56435  0.36081  0.75528  1.0000
  S   S160      1.0  0.60768  0.36327  0.74523  1.0000
  C   C388      1.0  0.63238  0.31055  0.68913  1.0000
  C   C389      1.0  0.60499  0.31469  0.69372  1.0000
  C   C390      1.0  0.59716  0.33069  0.71097  1.0000
  C   C391      1.0  0.61673  0.34244  0.72377  1.0000
  C   C392      1.0  0.64413  0.33786  0.71934  1.0000
  C   C393      1.0  0.65195  0.32183  0.70209  1.0000
  H   H647      1.0  0.58980  0.30596  0.68371  1.0000
  H   H648      1.0  0.57603  0.33444  0.71413  1.0000
  H   H649      1.0  0.65936  0.34670  0.72929  1.0000
  H   H650      1.0  0.67308  0.31796  0.69890  1.0000
  H   H651      1.0  0.62633  0.23288  0.74012  1.0000
  C   C394      1.0  0.58114  0.26548  0.74955  1.0000
  N   N43       1.0  0.60308  0.25574  0.76293  1.0000
  C   C395      1.0  0.62212  0.28289  0.76519  1.0000
  H   H652      1.0  0.58045  0.26833  0.78876  1.0000
  C   C396      1.0  0.53194  0.26862  0.81505  1.0000
  H   H653      1.0  0.63417  0.21927  0.76442  1.0000
  H   H654      1.0  0.60355  0.20645  0.75280  1.0000
  H   H655      1.0  0.61183  0.30487  0.77116  1.0000
  H   H656      1.0  0.56602  0.24586  0.74775  1.0000
  S   S161      1.0  0.55820  0.33973  0.78510  1.0000
  S   S162      1.0  0.71084  0.25825  0.64546  1.0000
  H   H657      1.0  0.39489  0.39257  0.68890  1.0000
  H   H658      1.0  0.63097  0.38825  0.69246  1.0000
  S   S163      1.0  0.47596  0.40001  0.72912  1.0000
  H   H659      1.0  0.67356  0.38554  0.64781  1.0000
  C   C397      1.0  0.43021  0.39602  0.70716  1.0000
  H   H660      1.0  0.68080  0.37897  0.69260  1.0000
  H   H661      1.0  0.63772  0.39083  0.64894  1.0000
  S   S164      1.0  0.71638  0.32629  0.67071  1.0000
  C   C398      1.0  0.53366  0.20188  0.82233  1.0000
  H   H662      1.0  0.45626  0.25662  0.87070  1.0000
  H   H663      1.0  0.67037  0.08996  0.95603  1.0000
  S   S165      1.0  0.53198  0.14327  0.89739  1.0000
  H   H664      1.0  0.45919  0.18206  0.86673  1.0000
  N   N44       1.0  0.47255  0.21748  0.88771  1.0000
  H   H665      1.0  0.48325  0.21098  0.85737  1.0000
  H   H666      1.0  0.48886  0.12224  0.92446  1.0000
  H   H667      1.0  0.50464  0.24993  0.87991  1.0000
  S   S166      1.0  0.42193  0.14063  0.97597  1.0000
  H   H668      1.0  0.47397  0.13562  0.95815  1.0000
  H   H669      1.0  0.39892  0.09699  0.05030  1.0000
  H   H670      1.0  0.39143  0.12102  0.94163  1.0000
  H   H671      1.0  0.46058  0.21191  0.91786  1.0000
  Fe  Fe84      1.0  0.50298  0.11050  0.88213  1.0000
  C   C399      1.0  0.45916  0.12969  0.94714  1.0000
  C   C400      1.0  0.41265  0.12136  0.93788  1.0000
  C   C401      1.0  0.45079  0.24097  0.88333  1.0000
  C   C402      1.0  0.46456  0.19718  0.90451  1.0000
  H   H672      1.0  0.48065  0.17932  0.90820  1.0000
  C   C403      1.0  0.47731  0.19662  0.87045  1.0000
  C   C404      1.0  0.49761  0.23501  0.89247  1.0000
  H   H673      1.0  0.49483  0.25126  0.90532  1.0000
  H   H674      1.0  0.49397  0.17924  0.87325  1.0000
  S   S167      1.0  0.51462  0.12625  0.85186  1.0000
  H   H675      1.0  0.43168  0.22836  0.87961  1.0000
  Fe  Fe85      1.0  0.56141  0.10203  0.89461  1.0000
  C   C405      1.0  0.44857  0.11530  0.91362  1.0000
  H   H676      1.0  0.44604  0.18300  0.90132  1.0000
  C   C406      1.0  0.63316  0.08721  0.93996  1.0000
  H   H677      1.0  0.44661  0.25706  0.89608  1.0000
  H   H678      1.0  0.51440  0.21788  0.89595  1.0000
  C   C407      1.0  0.43170  0.12930  0.95213  1.0000
  C   C408      1.0  0.42108  0.11470  0.91861  1.0000
  C   C409      1.0  0.46762  0.12222  0.92803  1.0000
  S   S168      1.0  0.54989  0.20986  0.86062  1.0000
  H   H679      1.0  0.54443  0.27389  0.84506  1.0000
  C   C410      1.0  0.61752  0.10026  0.92483  1.0000
  C   C411      1.0  0.53935  0.25697  0.83357  1.0000
  S   S169      1.0  0.57795  0.11848  0.86577  1.0000
  C   C412      1.0  0.54029  0.22358  0.83726  1.0000
  Fe  Fe86      1.0  0.54538  0.15658  0.86704  1.0000
  H   H680      1.0  0.66066  0.15904  0.90967  1.0000
  C   C413      1.0  0.65301  0.13900  0.91814  1.0000
  C   C414      1.0  0.39335  0.08575  0.06394  1.0000
  S   S170      1.0  0.45841  0.10964  0.88903  1.0000
  C   C415      1.0  0.66871  0.12574  0.93322  1.0000
  H   H681      1.0  0.61538  0.13659  0.90232  1.0000
  C   C416      1.0  0.62738  0.12634  0.91398  1.0000
  C   C417      1.0  0.65863  0.10000  0.94421  1.0000
  S   S171      1.0  0.70106  0.14121  0.93792  1.0000
  Fe  Fe87      1.0  0.54581  0.08676  0.85307  1.0000
  H   H682      1.0  0.40626  0.10924  0.90753  1.0000
  S   S172      1.0  0.58680  0.08162  0.91897  1.0000
  H   H683      1.0  0.53460  0.17610  0.82494  1.0000
  H   H684      1.0  0.62426  0.07884  0.88217  1.0000
  H   H685      1.0  0.70867  0.13652  0.06743  1.0000
  H   H686      1.0  0.71487  0.21060  0.94401  1.0000
  C   C418      1.0  0.47928  0.63315  0.28559  1.0000
  S   S173      1.0  0.52918  0.55379  0.21714  1.0000
  H   H687      1.0  0.70461  0.52332  0.24653  1.0000
  C   C419      1.0  0.40192  0.45470  0.21522  1.0000
  H   H688      1.0  0.66699  0.45825  0.25238  1.0000
  S   S174      1.0  0.53893  0.58473  0.31167  1.0000
  C   C420      1.0  0.55558  0.41468  0.30239  1.0000
  H   H689      1.0  0.51238  0.62818  0.25412  1.0000
  H   H690      1.0  0.50878  0.58533  0.25110  1.0000
  C   C421      1.0  0.71187  0.48716  0.08053  1.0000
  C   C422      1.0  0.49405  0.54877  0.21538  1.0000
  C   C423      1.0  0.43761  0.54352  0.21290  1.0000
  C   C424      1.0  0.45178  0.56081  0.19869  1.0000
  C   C425      1.0  0.47997  0.56351  0.19998  1.0000
  H   H691      1.0  0.44104  0.57237  0.18681  1.0000
  H   H692      1.0  0.49089  0.57719  0.18907  1.0000
  H   H693      1.0  0.45346  0.57632  0.28724  1.0000
  H   H694      1.0  0.44078  0.51504  0.23918  1.0000
  C   C426      1.0  0.47372  0.57584  0.28020  1.0000
  H   H695      1.0  0.49412  0.62836  0.29750  1.0000
  H   H696      1.0  0.68912  0.64697  0.17444  1.0000
  C   C427      1.0  0.64965  0.44480  0.24606  1.0000
  C   C428      1.0  0.47985  0.53099  0.22936  1.0000
  C   C429      1.0  0.45167  0.52860  0.22821  1.0000
  H   H697      1.0  0.49057  0.51885  0.24095  1.0000
  C   C430      1.0  0.50719  0.60541  0.26189  1.0000
  C   C431      1.0  0.69706  0.64372  0.21339  1.0000
  H   H698      1.0  0.52294  0.60122  0.27316  1.0000
  S   S175      1.0  0.52845  0.52048  0.27202  1.0000
  H   H699      1.0  0.46038  0.59480  0.24374  1.0000
  H   H700      1.0  0.68161  0.66215  0.20930  1.0000
  N   N45       1.0  0.47999  0.60708  0.27075  1.0000
  H   H701      1.0  0.47393  0.55561  0.26943  1.0000
  N   N46       1.0  0.63742  0.42274  0.26054  1.0000
  H   H702      1.0  0.61285  0.45989  0.27347  1.0000
  C   C432      1.0  0.39939  0.55964  0.07972  1.0000
  C   C433      1.0  0.45988  0.61383  0.25532  1.0000
  Fe  Fe88      1.0  0.54954  0.53727  0.24488  1.0000
  H   H703      1.0  0.45902  0.63532  0.29254  1.0000
  H   H704      1.0  0.46381  0.63737  0.24799  1.0000
  C   C434      1.0  0.55414  0.43570  0.31841  1.0000
  H   H705      1.0  0.40034  0.55875  0.11127  1.0000
  C   C435      1.0  0.70249  0.51591  0.21535  1.0000
  S   S176      1.0  0.39379  0.54314  0.15462  1.0000
  H   H706      1.0  0.64515  0.45506  0.28464  1.0000
  H   H707      1.0  0.48873  0.56978  0.29176  1.0000
  N   N47       1.0  0.69784  0.61666  0.19922  1.0000
  H   H708      1.0  0.65489  0.61768  0.19457  1.0000
  Fe  Fe89      1.0  0.55704  0.55377  0.28760  1.0000
  C   C436      1.0  0.67130  0.60055  0.19872  1.0000
  H   H709      1.0  0.69832  0.55074  0.07717  1.0000
  S   S177      1.0  0.40235  0.54023  0.21204  1.0000
  H   H710      1.0  0.69213  0.63497  0.22838  1.0000
  H   H711      1.0  0.48444  0.65701  0.27910  1.0000
  H   H712      1.0  0.43900  0.61461  0.26134  1.0000
  C   C437      1.0  0.69145  0.52160  0.23398  1.0000
  H   H713      1.0  0.67125  0.58028  0.18793  1.0000
  H   H714      1.0  0.61872  0.42593  0.28898  1.0000
  C   C438      1.0  0.62826  0.44165  0.27772  1.0000
  Fe  Fe90      1.0  0.60512  0.53108  0.26329  1.0000
  H   H715      1.0  0.40086  0.53363  0.07824  1.0000
  S   S178      1.0  0.65037  0.53221  0.25994  1.0000
  C   C439      1.0  0.38862  0.47022  0.18267  1.0000
  C   C440      1.0  0.39828  0.60757  0.10033  1.0000
  S   S179      1.0  0.58839  0.51497  0.29224  1.0000
  S   S180      1.0  0.69894  0.50973  0.17533  1.0000
  Fe  Fe91      1.0  0.56162  0.48344  0.27414  1.0000
  S   S181      1.0  0.55752  0.42953  0.27833  1.0000
  H   H716      1.0  0.69138  0.49261  0.08645  1.0000
  C   C441      1.0  0.56746  0.68922  0.31982  1.0000
  S   S182      1.0  0.57625  0.57289  0.26023  1.0000
  C   C442      1.0  0.55043  0.62477  0.31472  1.0000
  S   S183      1.0  0.58024  0.49725  0.24541  1.0000
  C   C443      1.0  0.66350  0.52512  0.23642  1.0000
  C   C444      1.0  0.68562  0.51388  0.19907  1.0000
  C   C445      1.0  0.65760  0.51659  0.20159  1.0000
  C   C446      1.0  0.64656  0.52247  0.22020  1.0000
  H   H717      1.0  0.64444  0.51493  0.18903  1.0000
  H   H718      1.0  0.62498  0.52530  0.22192  1.0000
  C   C447      1.0  0.57692  0.67070  0.30398  1.0000
  H   H719      1.0  0.59108  0.68113  0.29374  1.0000
  H   H720      1.0  0.63481  0.46331  0.24102  1.0000
  H   H721      1.0  0.65704  0.43155  0.23290  1.0000
  H   H722      1.0  0.55415  0.46163  0.31614  1.0000
  C   C448      1.0  0.56854  0.63854  0.30147  1.0000
  H   H723      1.0  0.71695  0.65611  0.21413  1.0000
  C   C449      1.0  0.39919  0.57383  0.09839  1.0000
  H   H724      1.0  0.57629  0.62439  0.28940  1.0000
  H   H725      1.0  0.67543  0.41018  0.27359  1.0000
  C   C450      1.0  0.61409  0.40620  0.25166  1.0000
  C   C451      1.0  0.39728  0.62700  0.08363  1.0000
  H   H726      1.0  0.40870  0.41187  0.17296  1.0000
  H   H727      1.0  0.66600  0.59005  0.21323  1.0000
  H   H728      1.0  0.39702  0.65308  0.08508  1.0000
  N   N48       1.0  0.39329  0.44252  0.19589  1.0000
  H   H729      1.0  0.59850  0.42394  0.24673  1.0000
  H   H730      1.0  0.71434  0.58289  0.21996  1.0000
  H   H731      1.0  0.42091  0.46889  0.21405  1.0000
  H   H732      1.0  0.40718  0.48501  0.18089  1.0000
  C   C452      1.0  0.70446  0.62915  0.17955  1.0000
  H   H733      1.0  0.70553  0.60919  0.16859  1.0000
  H   H734      1.0  0.43389  0.43471  0.18573  1.0000
  H   H735      1.0  0.40550  0.43459  0.22571  1.0000
  C   C453      1.0  0.41459  0.42134  0.18758  1.0000
  S   S184      1.0  0.39779  0.62584  0.12344  1.0000
  H   H736      1.0  0.71204  0.46160  0.07531  1.0000
  H   H737      1.0  0.38647  0.47127  0.22173  1.0000
  S   S185      1.0  0.57845  0.72952  0.32233  1.0000
  C   C454      1.0  0.60337  0.41628  0.39567  1.0000
  H   H738      1.0  0.58566  0.41497  0.38568  1.0000
  C   C455      1.0  0.54927  0.67554  0.33306  1.0000
  C   C456      1.0  0.54068  0.64342  0.33044  1.0000
  C   C457      1.0  0.55207  0.42314  0.33744  1.0000
  H   H739      1.0  0.69627  0.70872  0.45698  1.0000
  H   H740      1.0  0.59635  0.42811  0.40942  1.0000
  H   H741      1.0  0.68286  0.71236  0.42239  1.0000
  H   H742      1.0  0.61843  0.43244  0.38866  1.0000
  H   H743      1.0  0.55049  0.43951  0.34976  1.0000
  H   H744      1.0  0.54188  0.68965  0.34533  1.0000
  C   C458      1.0  0.70515  0.73332  0.45587  1.0000
  H   H745      1.0  0.52669  0.63289  0.34076  1.0000
  H   H746      1.0  0.50048  0.49004  0.78071  1.0000
  N   N49       1.0  0.46191  0.46704  0.78345  1.0000
  C   C459      1.0  0.45949  0.46247  0.76209  1.0000
  H   H747      1.0  0.54869  0.45208  0.79199  1.0000
  S   S186      1.0  0.52669  0.40546  0.81946  1.0000
  C   C460      1.0  0.68320  0.40285  0.68535  1.0000
  C   C461      1.0  0.43506  0.47422  0.79194  1.0000
  C   C462      1.0  0.67555  0.73120  0.61466  1.0000
  C   C463      1.0  0.66362  0.44295  0.66396  1.0000
  H   H748      1.0  0.61683  0.41906  0.67717  1.0000
  C   C464      1.0  0.53179  0.44746  0.82086  1.0000
  H   H749      1.0  0.47484  0.43944  0.80847  1.0000
  C   C465      1.0  0.48032  0.49424  0.78750  1.0000
  H   H750      1.0  0.68209  0.44277  0.65458  1.0000
  C   C466      1.0  0.54250  0.46470  0.80511  1.0000
  H   H751      1.0  0.49323  0.43122  0.78644  1.0000
  H   H752      1.0  0.64632  0.44973  0.65444  1.0000
  H   H753      1.0  0.47234  0.51751  0.78162  1.0000
  H   H754      1.0  0.47945  0.45690  0.75526  1.0000
  H   H755      1.0  0.43633  0.41907  0.70115  1.0000
  H   H756      1.0  0.48355  0.49755  0.80350  1.0000
  H   H757      1.0  0.45972  0.41590  0.78933  1.0000
  C   C467      1.0  0.47283  0.43711  0.79231  1.0000
  H   H758      1.0  0.44599  0.44186  0.75844  1.0000
  H   H759      1.0  0.42614  0.49662  0.78555  1.0000
  C   C468      1.0  0.54523  0.49848  0.80635  1.0000
  H   H760      1.0  0.55338  0.51180  0.79408  1.0000
  H   H761      1.0  0.45130  0.48449  0.75481  1.0000
  H   H762      1.0  0.57342  0.69318  0.80431  1.0000
  H   H763      1.0  0.52607  0.71740  0.77914  1.0000
  H   H764      1.0  0.66619  0.46240  0.67506  1.0000
  C   C469      1.0  0.56791  0.70889  0.81638  1.0000
  H   H765      1.0  0.43633  0.47785  0.80806  1.0000
  H   H766      1.0  0.63718  0.43004  0.69787  1.0000
  S   S187      1.0  0.53847  0.40452  0.76135  1.0000
  C   C470      1.0  0.63504  0.41225  0.68574  1.0000
  H   H767      1.0  0.46764  0.72029  0.76224  1.0000
  H   H768      1.0  0.42075  0.45404  0.78924  1.0000
  N   N50       1.0  0.65945  0.41107  0.67326  1.0000
  H   H769      1.0  0.67753  0.73347  0.59846  1.0000
  H   H770      1.0  0.67563  0.70490  0.61819  1.0000
  H   H771      1.0  0.68656  0.42123  0.69698  1.0000
  H   H772      1.0  0.49674  0.69565  0.78732  1.0000
  C   C471      1.0  0.50779  0.71890  0.78866  1.0000
  H   H773      1.0  0.51504  0.72071  0.80401  1.0000
  H   H774      1.0  0.45540  0.72724  0.79742  1.0000
  H   H775      1.0  0.69443  0.71880  0.65064  1.0000
  H   H776      1.0  0.70194  0.40153  0.67634  1.0000
  H   H777      1.0  0.43683  0.61097  0.02496  1.0000
  C   C472      1.0  0.62344  0.67907  0.92786  1.0000
  S   S188      1.0  0.40540  0.65519  0.95966  1.0000
  S   S189      1.0  0.50899  0.61210  0.86722  1.0000
  H   H778      1.0  0.47173  0.61923  0.02964  1.0000
  Fe  Fe92      1.0  0.51861  0.58680  0.89551  1.0000
  S   S190      1.0  0.55028  0.62216  0.90492  1.0000
  H   H779      1.0  0.49423  0.55677  0.01147  1.0000
  C   C473      1.0  0.46662  0.62294  0.92536  1.0000
  C   C474      1.0  0.44783  0.64295  0.93507  1.0000
  H   H780      1.0  0.48231  0.63352  0.91644  1.0000
  H   H781      1.0  0.44917  0.66899  0.93364  1.0000
  S   S191      1.0  0.71318  0.58646  0.01803  1.0000
  C   C475      1.0  0.59674  0.70946  0.90472  1.0000
  H   H782      1.0  0.60559  0.66425  0.93188  1.0000
  H   H783      1.0  0.51607  0.45077  0.85022  1.0000
  C   C476      1.0  0.45763  0.60081  0.02374  1.0000
  H   H784      1.0  0.59826  0.50869  0.88724  1.0000
  H   H785      1.0  0.46778  0.61567  0.97537  1.0000
  H   H786      1.0  0.45837  0.57926  0.03351  1.0000
  S   S192      1.0  0.48877  0.56360  0.91594  1.0000
  H   H787      1.0  0.44143  0.63139  0.99074  1.0000
  Fe  Fe93      1.0  0.54128  0.57992  0.85441  1.0000
  H   H788      1.0  0.44553  0.54536  0.00561  1.0000
  H   H789      1.0  0.47597  0.64076  0.99591  1.0000
  C   C477      1.0  0.42747  0.62943  0.94669  1.0000
  C   C478      1.0  0.42580  0.59579  0.94846  1.0000
  C   C479      1.0  0.44465  0.57578  0.93885  1.0000
  C   C480      1.0  0.46509  0.58931  0.92731  1.0000
  H   H790      1.0  0.40995  0.58516  0.95714  1.0000
  H   H791      1.0  0.44328  0.54974  0.94020  1.0000
  S   S193      1.0  0.54820  0.55195  0.88194  1.0000
  H   H792      1.0  0.52075  0.51044  0.85232  1.0000
  N   N51       1.0  0.46429  0.59210  0.00330  1.0000
  C   C481      1.0  0.49203  0.57883  0.00226  1.0000
  C   C482      1.0  0.44511  0.56745  0.99630  1.0000
  C   C483      1.0  0.46232  0.62124  0.99083  1.0000
  H   H793      1.0  0.49754  0.57197  0.98697  1.0000
  H   H794      1.0  0.50708  0.59685  0.00734  1.0000
  H   H795      1.0  0.42410  0.57691  0.99666  1.0000
  H   H796      1.0  0.44962  0.55998  0.98098  1.0000
  S   S194      1.0  0.54325  0.69915  0.87273  1.0000
  H   H797      1.0  0.61798  0.47569  0.82960  1.0000
  Fe  Fe94      1.0  0.54340  0.64468  0.87536  1.0000
  H   H798      1.0  0.60138  0.46601  0.88249  1.0000
  C   C484      1.0  0.60635  0.47122  0.84327  1.0000
  H   H799      1.0  0.57847  0.69464  0.90769  1.0000
  S   S195      1.0  0.66084  0.62199  0.98109  1.0000
  Fe  Fe95      1.0  0.57915  0.58924  0.88909  1.0000
  S   S196      1.0  0.62160  0.57537  0.89759  1.0000
  H   H800      1.0  0.61395  0.53408  0.83628  1.0000
  S   S197      1.0  0.57491  0.61457  0.86037  1.0000
  H   H801      1.0  0.58462  0.47042  0.83917  1.0000
  C   C485      1.0  0.65008  0.60820  0.95801  1.0000
  C   C486      1.0  0.63210  0.58756  0.92102  1.0000
  C   C487      1.0  0.65975  0.58924  0.92506  1.0000
  C   C488      1.0  0.66871  0.59974  0.94344  1.0000
  H   H802      1.0  0.67432  0.58277  0.91388  1.0000
  H   H803      1.0  0.69005  0.60183  0.94620  1.0000
  H   H804      1.0  0.65295  0.50287  0.85006  1.0000
  H   H805      1.0  0.60747  0.54834  0.86066  1.0000
  H   H806      1.0  0.64033  0.64729  0.89541  1.0000
  H   H807      1.0  0.64450  0.51612  0.87437  1.0000
  C   C489      1.0  0.62239  0.60657  0.95395  1.0000
  C   C490      1.0  0.61340  0.59626  0.93548  1.0000
  H   H808      1.0  0.60788  0.61313  0.96515  1.0000
  H   H809      1.0  0.59202  0.59473  0.93257  1.0000
  C   C491      1.0  0.52716  0.49777  0.83924  1.0000
  H   H810      1.0  0.70435  0.52380  0.03641  1.0000
  N   N52       1.0  0.61136  0.49658  0.85809  1.0000
  C   C492      1.0  0.64034  0.49723  0.86309  1.0000
  N   N53       1.0  0.62178  0.69033  0.90740  1.0000
  C   C493      1.0  0.59543  0.48958  0.87589  1.0000
  C   C494      1.0  0.60324  0.52844  0.85017  1.0000
  H   H811      1.0  0.61198  0.44674  0.84876  1.0000
  H   H812      1.0  0.57345  0.48835  0.87259  1.0000
  H   H813      1.0  0.64483  0.71933  0.88745  1.0000
  C   C495      1.0  0.52440  0.46402  0.83799  1.0000
  H   H814      1.0  0.67860  0.51235  0.05347  1.0000
  C   C496      1.0  0.39730  0.57909  0.06305  1.0000
  H   H815      1.0  0.62430  0.69969  0.93834  1.0000
  S   S198      1.0  0.54041  0.55741  0.82429  1.0000
  H   H816      1.0  0.64728  0.47357  0.86907  1.0000
  Fe  Fe96      1.0  0.70398  0.61013  0.98923  1.0000
  C   C497      1.0  0.62153  0.66207  0.89411  1.0000
  H   H817      1.0  0.58130  0.52929  0.84706  1.0000
  H   H818      1.0  0.64615  0.73234  0.91253  1.0000
  H   H819      1.0  0.55945  0.66935  0.83594  1.0000
  C   C498      1.0  0.55286  0.71545  0.84998  1.0000
  H   H820      1.0  0.69976  0.48204  0.04202  1.0000
  S   S199      1.0  0.39567  0.56115  0.03982  1.0000
  H   H821      1.0  0.64174  0.66378  0.93031  1.0000
  C   C499      1.0  0.56007  0.69535  0.83432  1.0000
  H   H822      1.0  0.39483  0.62801  0.05233  1.0000
  H   H823      1.0  0.66462  0.69691  0.90487  1.0000
  C   C500      1.0  0.64540  0.71066  0.90285  1.0000
  H   H824      1.0  0.60445  0.64573  0.89755  1.0000
  C   C501      1.0  0.69952  0.50681  0.04850  1.0000
  H   H825      1.0  0.61931  0.66953  0.87856  1.0000
  H   H826      1.0  0.59485  0.71853  0.88944  1.0000
  S   S200      1.0  0.38623  0.64535  0.01337  1.0000
  H   H827      1.0  0.59594  0.73081  0.91465  1.0000
  C   C502      1.0  0.39614  0.61278  0.06506  1.0000
  C   C503      1.0  0.53735  0.51509  0.82334  1.0000
  H   H828      1.0  0.60331  0.03966  0.20918  1.0000
  H   H829      1.0  0.46414  0.99178  0.19907  1.0000
  C   C504      1.0  0.43356  0.02695  0.20688  1.0000
  S   S201      1.0  0.50952  0.00449  0.22347  1.0000
  H   H830      1.0  0.61280  0.90827  0.31933  1.0000
  C   C505      1.0  0.54481  0.80760  0.30520  1.0000
  H   H831      1.0  0.56104  0.86336  0.28912  1.0000
  C   C506      1.0  0.45889  0.01185  0.20857  1.0000
  S   S202      1.0  0.53491  0.01026  0.27820  1.0000
  C   C507      1.0  0.62346  0.04609  0.20460  1.0000
  C   C508      1.0  0.66272  0.98388  0.22403  1.0000
  N   N54       1.0  0.56568  0.81161  0.28994  1.0000
  C   C509      1.0  0.47059  0.04840  0.23488  1.0000
  C   C510      1.0  0.47749  0.02268  0.22249  1.0000
  H   H832      1.0  0.41921  0.01827  0.19628  1.0000
  H   H833      1.0  0.65666  0.95738  0.27087  1.0000
  C   C511      1.0  0.63472  0.03195  0.18773  1.0000
  H   H834      1.0  0.54146  0.94544  0.29158  1.0000
  H   H835      1.0  0.62330  0.01436  0.17950  1.0000
  H   H836      1.0  0.48486  0.05682  0.24566  1.0000
  Fe  Fe97      1.0  0.53783  0.02334  0.24642  1.0000
  H   H837      1.0  0.54464  0.78173  0.26931  1.0000
  H   H838      1.0  0.59711  0.79056  0.30753  1.0000
  H   H839      1.0  0.56734  0.03604  0.32208  1.0000
  N   N55       1.0  0.66850  0.98397  0.24522  1.0000
  H   H840      1.0  0.65931  0.93348  0.24889  1.0000
  Fe  Fe98      1.0  0.57866  0.99705  0.27545  1.0000
  H   H841      1.0  0.57308  0.99342  0.31944  1.0000
  H   H842      1.0  0.57592  0.84603  0.26755  1.0000
  C   C512      1.0  0.55091  0.93057  0.30260  1.0000
  H   H843      1.0  0.60887  0.81591  0.28805  1.0000
  S   S203      1.0  0.67529  0.01975  0.16152  1.0000
  C   C513      1.0  0.56477  0.78378  0.27634  1.0000
  H   H844      1.0  0.52412  0.80764  0.29896  1.0000
  S   S204      1.0  0.59327  0.04664  0.28316  1.0000
  C   C514      1.0  0.66083  0.04014  0.18163  1.0000
  H   H845      1.0  0.71159  0.02056  0.08828  1.0000
  H   H846      1.0  0.70483  0.95568  0.24192  1.0000
  C   C515      1.0  0.44520  0.06343  0.23323  1.0000
  H   H847      1.0  0.56875  0.76055  0.28417  1.0000
  C   C516      1.0  0.59260  0.81305  0.29913  1.0000
  S   S205      1.0  0.58068  0.00601  0.24324  1.0000
  S   S206      1.0  0.59944  0.95388  0.28919  1.0000
  H   H848      1.0  0.70963  0.99871  0.24121  1.0000
  H   H849      1.0  0.58021  0.78593  0.26459  1.0000
  Fe  Fe99      1.0  0.59117  0.05705  0.25104  1.0000
  H   H850      1.0  0.54564  0.82737  0.31617  1.0000
  Fe  Fe100     1.0  0.71691  0.03445  0.15176  1.0000
  H   H851      1.0  0.66891  0.96069  0.21698  1.0000
  H   H852      1.0  0.67360  0.00369  0.21638  1.0000
  C   C517      1.0  0.42675  0.05292  0.21912  1.0000
  C   C518      1.0  0.57902  0.92948  0.30412  1.0000
  H   H853      1.0  0.59401  0.83376  0.30951  1.0000
  H   H854      1.0  0.67085  0.03600  0.24677  1.0000
  C   C519      1.0  0.56052  0.84202  0.27915  1.0000
  H   H855      1.0  0.54031  0.84196  0.27209  1.0000
  H   H856      1.0  0.45105  0.04155  0.16785  1.0000
  C   C520      1.0  0.69775  0.97910  0.24828  1.0000
  H   H857      1.0  0.66403  0.01645  0.26974  1.0000
  H   H858      1.0  0.52448  0.98219  0.32148  1.0000
  H   H859      1.0  0.63121  0.96053  0.25249  1.0000
  C   C521      1.0  0.65335  0.95763  0.25477  1.0000
  H   H860      1.0  0.47778  0.04612  0.15038  1.0000
  H   H861      1.0  0.54751  0.78448  0.31327  1.0000
  H   H862      1.0  0.64079  0.98746  0.22118  1.0000
  Fe  Fe101     1.0  0.54961  0.06091  0.28356  1.0000
  H   H863      1.0  0.51310  0.91315  0.31408  1.0000
  C   C522      1.0  0.67535  0.06317  0.19220  1.0000
  C   C523      1.0  0.66012  0.01538  0.25375  1.0000
  H   H864      1.0  0.63818  0.01985  0.25166  1.0000
  C   C524      1.0  0.45940  0.05802  0.15651  1.0000
  C   C525      1.0  0.59104  0.90913  0.31802  1.0000
  H   H865      1.0  0.44426  0.05983  0.14453  1.0000
  H   H866      1.0  0.70284  0.97904  0.26412  1.0000
  S   S207      1.0  0.38873  0.03956  0.16182  1.0000
  C   C526      1.0  0.53487  0.91208  0.31526  1.0000
  S   S208      1.0  0.52533  0.77713  0.35552  1.0000
  C   C527      1.0  0.47499  0.76569  0.43945  1.0000
  Fe  Fe102     1.0  0.54524  0.82551  0.35910  1.0000
  H   H867      1.0  0.70848  0.79202  0.43897  1.0000
  S   S209      1.0  0.41218  0.78083  0.49498  1.0000
  S   S210      1.0  0.69101  0.82091  0.52488  1.0000
  H   H868      1.0  0.68961  0.75092  0.46097  1.0000
  H   H869      1.0  0.57493  0.84314  0.47665  1.0000
  Fe  Fe103     1.0  0.41251  0.83126  0.48285  1.0000
  S   S211      1.0  0.43541  0.84756  0.45607  1.0000
  H   H870      1.0  0.53068  0.82371  0.48924  1.0000
  S   S212      1.0  0.43584  0.78523  0.54900  1.0000
  H   H871      1.0  0.69711  0.74304  0.40687  1.0000
  H   H872      1.0  0.54322  0.78273  0.48911  1.0000
  H   H873      1.0  0.40895  0.75915  0.44034  1.0000
  H   H874      1.0  0.60653  0.76273  0.42030  1.0000
  H   H875      1.0  0.38742  0.77751  0.45837  1.0000
  S   S213      1.0  0.50866  0.74766  0.40963  1.0000
  C   C528      1.0  0.48710  0.77498  0.42180  1.0000
  C   C529      1.0  0.48276  0.80624  0.41460  1.0000
  C   C530      1.0  0.46660  0.82824  0.42517  1.0000
  C   C531      1.0  0.45495  0.81916  0.44302  1.0000
  C   C532      1.0  0.45916  0.78783  0.45013  1.0000
  N   N56       1.0  0.54934  0.80864  0.46223  1.0000
  H   H876      1.0  0.49188  0.81350  0.40092  1.0000
  H   H877      1.0  0.46336  0.85247  0.41958  1.0000
  H   H878      1.0  0.45051  0.78069  0.46393  1.0000
  C   C533      1.0  0.57500  0.89055  0.33065  1.0000
  H   H879      1.0  0.53967  0.05730  0.34897  1.0000
  Fe  Fe104     1.0  0.53602  0.76995  0.38712  1.0000
  H   H880      1.0  0.53556  0.97075  0.36460  1.0000
  S   S214      1.0  0.52621  0.86958  0.34513  1.0000
  H   H881      1.0  0.52670  0.03049  0.36735  1.0000
  C   C534      1.0  0.53535  0.83366  0.45054  1.0000
  S   S215      1.0  0.55221  0.82004  0.39134  1.0000
  N   N57       1.0  0.54738  0.00678  0.34357  1.0000
  H   H882      1.0  0.56232  0.03847  0.36599  1.0000
  S   S216      1.0  0.71448  0.75132  0.50900  1.0000
  Fe  Fe105     1.0  0.41161  0.80548  0.52417  1.0000
  H   H883      1.0  0.51484  0.82561  0.44632  1.0000
  H   H884      1.0  0.54656  0.83907  0.43680  1.0000
  C   C535      1.0  0.57631  0.82048  0.46786  1.0000
  Fe  Fe106     1.0  0.59173  0.79745  0.38265  1.0000
  H   H885      1.0  0.41158  0.84814  0.55518  1.0000
  S   S217      1.0  0.63024  0.81354  0.39682  1.0000
  C   C536      1.0  0.55277  0.97689  0.35482  1.0000
  H   H886      1.0  0.47836  0.74151  0.44507  1.0000
  S   S218      1.0  0.58614  0.80710  0.35073  1.0000
  Fe  Fe107     1.0  0.68640  0.79004  0.49805  1.0000
  S   S219      1.0  0.64644  0.77464  0.48530  1.0000
  H   H887      1.0  0.67448  0.75415  0.42620  1.0000
  H   H888      1.0  0.50474  0.99785  0.34141  1.0000
  C   C537      1.0  0.53333  0.80169  0.48000  1.0000
  C   C538      1.0  0.54687  0.89209  0.32934  1.0000
  H   H889      1.0  0.51277  0.79289  0.47620  1.0000
  H   H890      1.0  0.53233  0.76821  0.44683  1.0000
  C   C539      1.0  0.64149  0.78598  0.46084  1.0000
  C   C540      1.0  0.62391  0.76810  0.44905  1.0000
  C   C541      1.0  0.61983  0.77682  0.42943  1.0000
  C   C542      1.0  0.63369  0.80315  0.42151  1.0000
  C   C543      1.0  0.65136  0.82086  0.43328  1.0000
  C   C544      1.0  0.65501  0.81252  0.45295  1.0000
  H   H891      1.0  0.57113  0.97923  0.36402  1.0000
  C   C545      1.0  0.55228  0.77872  0.45049  1.0000
  H   H892      1.0  0.66199  0.84135  0.42721  1.0000
  H   H893      1.0  0.66794  0.82704  0.46207  1.0000
  H   H894      1.0  0.58896  0.82571  0.45476  1.0000
  H   H895      1.0  0.58443  0.87574  0.34175  1.0000
  H   H896      1.0  0.56390  0.75979  0.45846  1.0000
  S   S220      1.0  0.41604  0.85569  0.51212  1.0000
  H   H897      1.0  0.58745  0.80228  0.47682  1.0000
  C   C546      1.0  0.52253  0.00271  0.33193  1.0000
  H   H898      1.0  0.56280  0.78337  0.43638  1.0000
  Fe  Fe108     1.0  0.56705  0.75802  0.34946  1.0000
  H   H899      1.0  0.53291  0.85670  0.45884  1.0000
  H   H900      1.0  0.61368  0.74728  0.45505  1.0000
  C   C547      1.0  0.54385  0.03444  0.35712  1.0000
  H   H901      1.0  0.55612  0.95580  0.34494  1.0000
  H   H902      1.0  0.39434  0.75692  0.40598  1.0000
  H   H903      1.0  0.40551  0.80993  0.42101  1.0000
  S   S221      1.0  0.57638  0.74660  0.38086  1.0000
  N   N58       1.0  0.71418  0.74061  0.43575  1.0000
  C   C548      1.0  0.69120  0.73731  0.42218  1.0000
  C   C549      1.0  0.38752  0.76308  0.44468  1.0000
  H   H904      1.0  0.58964  0.01542  0.33853  1.0000
  C   C550      1.0  0.57038  0.01316  0.33035  1.0000
  C   C551      1.0  0.42967  0.80776  0.57028  1.0000
  C   C552      1.0  0.41712  0.83813  0.56920  1.0000
  H   H905      1.0  0.71566  0.83523  0.56527  1.0000
  H   H906      1.0  0.38415  0.76784  0.56051  1.0000
  C   C553      1.0  0.38398  0.81199  0.42560  1.0000
  H   H907      1.0  0.51790  0.02477  0.32318  1.0000
  H   H908      1.0  0.51581  0.78020  0.79905  1.0000
  Fe  Fe109     1.0  0.53869  0.86568  0.77092  1.0000
  S   S222      1.0  0.40629  0.78308  0.65500  1.0000
  Fe  Fe110     1.0  0.40544  0.79840  0.68651  1.0000
  S   S223      1.0  0.43996  0.77994  0.70477  1.0000
  N   N59       1.0  0.69763  0.74825  0.62477  1.0000
  C   C554      1.0  0.49473  0.98215  0.81432  1.0000
  Fe  Fe111     1.0  0.39436  0.83439  0.64909  1.0000
  S   S224      1.0  0.49779  0.88073  0.75975  1.0000
  H   H909      1.0  0.47359  0.87664  0.63456  1.0000
  H   H910      1.0  0.67527  0.75595  0.65150  1.0000
  C   C555      1.0  0.45613  0.80880  0.71934  1.0000
  C   C556      1.0  0.44364  0.83829  0.72399  1.0000
  C   C557      1.0  0.45673  0.86049  0.73623  1.0000
  C   C558      1.0  0.48228  0.85323  0.74382  1.0000
  C   C559      1.0  0.49492  0.82397  0.73887  1.0000
  C   C560      1.0  0.48190  0.80186  0.72659  1.0000
  H   H911      1.0  0.42359  0.84362  0.71865  1.0000
  H   H912      1.0  0.44681  0.88306  0.74008  1.0000
  H   H913      1.0  0.51463  0.81823  0.74455  1.0000
  H   H914      1.0  0.49175  0.77924  0.72276  1.0000
  C   C561      1.0  0.41886  0.84303  0.60453  1.0000
  C   C562      1.0  0.43088  0.81232  0.60567  1.0000
  H   H915      1.0  0.44946  0.88473  0.68581  1.0000
  H   H916      1.0  0.43639  0.80233  0.61968  1.0000
  H   H917      1.0  0.49982  0.89905  0.64647  1.0000
  S   S225      1.0  0.41227  0.86547  0.62576  1.0000
  H   H918      1.0  0.69450  0.90106  0.73570  1.0000
  H   H919      1.0  0.46780  0.93075  0.78086  1.0000
  C   C563      1.0  0.41214  0.85599  0.58629  1.0000
  H   H920      1.0  0.48004  0.81472  0.65940  1.0000
  H   H921      1.0  0.65989  0.89651  0.70788  1.0000
  N   N60       1.0  0.47841  0.86603  0.66512  1.0000
  C   C564      1.0  0.50015  0.86426  0.67985  1.0000
  C   C565      1.0  0.45822  0.89059  0.67123  1.0000
  C   C566      1.0  0.46536  0.83410  0.66349  1.0000
  H   H922      1.0  0.50483  0.85689  0.64068  1.0000
  H   H923      1.0  0.44925  0.83435  0.65221  1.0000
  H   H924      1.0  0.44123  0.89213  0.66060  1.0000
  C   C567      1.0  0.56822  0.74259  0.81390  1.0000
  H   H925      1.0  0.71109  0.75662  0.65419  1.0000
  C   C568      1.0  0.48974  0.87507  0.64588  1.0000
  H   H926      1.0  0.46725  0.91512  0.67227  1.0000
  C   C569      1.0  0.50676  0.77684  0.78430  1.0000
  C   C570      1.0  0.46792  0.74952  0.79753  1.0000
  C   C571      1.0  0.69671  0.78297  0.61953  1.0000
  H   H927      1.0  0.50539  0.90493  0.79870  1.0000
  H   H928      1.0  0.69796  0.78639  0.60341  1.0000
  H   H929      1.0  0.48809  0.00548  0.80770  1.0000
  S   S226      1.0  0.56923  0.90431  0.77618  1.0000
  S   S227      1.0  0.39682  0.85075  0.68021  1.0000
  H   H930      1.0  0.51039  0.88799  0.68161  1.0000
  N   N61       1.0  0.49537  0.95564  0.79977  1.0000
  H   H931      1.0  0.51576  0.84595  0.67574  1.0000
  H   H932      1.0  0.49207  0.85723  0.69447  1.0000
  C   C572      1.0  0.51379  0.96430  0.78359  1.0000
  H   H933      1.0  0.49652  0.74091  0.75254  1.0000
  C   C573      1.0  0.69702  0.86709  0.76877  1.0000
  H   H934      1.0  0.50730  0.98707  0.77625  1.0000
  C   C574      1.0  0.57470  0.99907  0.81318  1.0000
  S   S228      1.0  0.57624  0.75855  0.79077  1.0000
  H   H935      1.0  0.53473  0.96797  0.78891  1.0000
  H   H936      1.0  0.45590  0.82691  0.67755  1.0000
  C   C575      1.0  0.57981  0.96572  0.81467  1.0000
  H   H937      1.0  0.67836  0.86193  0.76036  1.0000
  H   H938      1.0  0.71040  0.92557  0.75383  1.0000
  H   H939      1.0  0.68585  0.85841  0.68706  1.0000
  H   H940      1.0  0.70133  0.84536  0.77786  1.0000
  H   H941      1.0  0.44621  0.77131  0.58937  1.0000
  H   H942      1.0  0.57945  0.01166  0.79975  1.0000
  S   S229      1.0  0.54298  0.84423  0.80079  1.0000
  N   N62       1.0  0.49057  0.74696  0.78348  1.0000
  S   S230      1.0  0.60901  0.84676  0.79368  1.0000
  S   S231      1.0  0.56805  0.83157  0.75661  1.0000
  Fe  Fe112     1.0  0.59926  0.86831  0.76436  1.0000
  S   S232      1.0  0.62979  0.88761  0.74301  1.0000
  H   H943      1.0  0.58881  0.95283  0.80252  1.0000
  Fe  Fe113     1.0  0.57633  0.88005  0.80493  1.0000
  H   H944      1.0  0.67771  0.79476  0.62465  1.0000
  Fe  Fe114     1.0  0.57490  0.81281  0.78708  1.0000
  C   C576      1.0  0.67460  0.81619  0.70346  1.0000
  C   C577      1.0  0.65865  0.80448  0.71885  1.0000
  C   C578      1.0  0.64375  0.82610  0.73066  1.0000
  C   C579      1.0  0.64463  0.85940  0.72694  1.0000
  C   C580      1.0  0.65951  0.87083  0.71099  1.0000
  C   C581      1.0  0.67446  0.84931  0.69930  1.0000
  H   H945      1.0  0.65856  0.77883  0.72207  1.0000
  H   H946      1.0  0.63224  0.81710  0.74296  1.0000
  H   H947      1.0  0.47538  0.75302  0.81274  1.0000
  S   S233      1.0  0.69603  0.78975  0.69041  1.0000
  H   H948      1.0  0.52592  0.92822  0.81485  1.0000
  H   H949      1.0  0.46001  0.97280  0.78476  1.0000
  H   H950      1.0  0.52381  0.77598  0.77365  1.0000
  C   C582      1.0  0.69441  0.74468  0.64615  1.0000
  H   H951      1.0  0.45447  0.77042  0.79401  1.0000
  H   H952      1.0  0.51465  0.94488  0.77227  1.0000
  C   C583      1.0  0.43657  0.79485  0.58852  1.0000
  H   H953      1.0  0.49441  0.79874  0.78089  1.0000
  H   H954      1.0  0.70638  0.84211  0.73323  1.0000
  H   H955      1.0  0.49201  0.91856  0.82173  1.0000
  H   H956      1.0  0.71377  0.79649  0.62612  1.0000
  C   C584      1.0  0.71339  0.90410  0.74420  1.0000
  H   H957      1.0  0.40282  0.87972  0.58537  1.0000
  C   C585      1.0  0.46795  0.95055  0.79196  1.0000
  C   C586      1.0  0.47989  0.74268  0.76349  1.0000
  H   H958      1.0  0.45355  0.94374  0.80375  1.0000
  H   H959      1.0  0.39807  0.73785  0.57647  1.0000
  C   C587      1.0  0.50505  0.92554  0.80919  1.0000
  H   H960      1.0  0.46672  0.76343  0.75916  1.0000
  H   H961      1.0  0.69222  0.88768  0.77874  1.0000
  H   H962      1.0  0.51505  0.98622  0.82064  1.0000
  H   H963      1.0  0.65549  0.74131  0.61889  1.0000
  H   H964      1.0  0.65788  0.06537  0.87637  1.0000
  C   C588      1.0  0.70410  0.03083  0.05786  1.0000
  C   C589      1.0  0.56097  0.76275  0.82953  1.0000
  H   H965      1.0  0.54781  0.76486  0.85962  1.0000
  H   H966      1.0  0.68283  0.93242  0.97020  1.0000
  C   C590      1.0  0.55338  0.74918  0.84755  1.0000
  C   C591      1.0  0.67459  0.93998  0.98468  1.0000
  C   C592      1.0  0.55761  0.99986  0.84635  1.0000
  H   H967      1.0  0.55778  0.95375  0.86119  1.0000
  H   H968      1.0  0.63927  0.97818  0.87218  1.0000
  C   C593      1.0  0.62256  0.03257  0.85431  1.0000
  H   H969      1.0  0.61498  0.00992  0.84748  1.0000
  N   N63       1.0  0.62763  0.02814  0.87543  1.0000
  H   H970      1.0  0.65125  0.99734  0.89410  1.0000
  H   H971      1.0  0.67093  0.98112  0.01547  1.0000
  C   C594      1.0  0.57355  0.94927  0.83191  1.0000
  H   H972      1.0  0.66669  0.00642  0.87094  1.0000
  S   S234      1.0  0.69613  0.04706  0.01957  1.0000
  H   H973      1.0  0.68365  0.03927  0.06035  1.0000
  C   C595      1.0  0.63876  0.05830  0.88370  1.0000
  H   H974      1.0  0.69734  0.99850  0.98674  1.0000
  H   H975      1.0  0.58667  0.03973  0.88322  1.0000
  C   C596      1.0  0.56277  0.96646  0.84784  1.0000
  S   S235      1.0  0.57800  0.90715  0.83358  1.0000
  C   C597      1.0  0.64711  0.00131  0.87828  1.0000
  H   H976      1.0  0.54863  0.01277  0.85849  1.0000
  H   H977      1.0  0.56126  0.78877  0.82778  1.0000
  H   H978      1.0  0.66302  0.91925  0.99073  1.0000
  H   H979      1.0  0.59336  0.99727  0.88005  1.0000
  H   H980      1.0  0.60715  0.05187  0.85167  1.0000
  C   C598      1.0  0.60204  0.02035  0.88548  1.0000
  H   H981      1.0  0.66004  0.96024  0.98216  1.0000
  C   C599      1.0  0.56343  0.01616  0.82895  1.0000
  H   H982      1.0  0.64120  0.03959  0.84633  1.0000
  H   H983      1.0  0.64302  0.05571  0.89961  1.0000
  C   C600      1.0  0.68469  0.95981  0.01707  1.0000
  S   S236      1.0  0.55641  0.05757  0.82622  1.0000
  H   H984      1.0  0.60485  0.01812  0.90158  1.0000
  H   H985      1.0  0.67302  0.93988  0.02391  1.0000
  N   N64       1.0  0.69641  0.94989  0.99805  1.0000
  H   H986      1.0  0.48088  0.97665  0.82670  1.0000
  H   H987      1.0  0.70476  0.90074  0.00685  1.0000
  C   C601      1.0  0.71505  0.03135  0.03898  1.0000
  H   H988      1.0  0.70068  0.96700  0.02759  1.0000
  H   H989      1.0  0.62554  0.06713  0.94843  1.0000
  C   C602      1.0  0.71104  0.97747  0.98940  1.0000
  S   S237      1.0  0.53114  0.06770  0.88181  1.0000
  C   C603      1.0  0.71526  0.92242  0.00103  1.0000
  H   H990      1.0  0.92375  0.35049  0.23275  1.0000
  C   C604      1.0  0.84294  0.08543  0.17980  1.0000
  C   C605      1.0  0.81635  0.20752  0.13026  1.0000
  C   C606      1.0  0.79196  0.19260  0.13533  1.0000
  C   C607      1.0  0.76003  0.15409  0.07462  1.0000
  H   H991      1.0  0.86207  0.13682  0.19938  1.0000
  S   S238      1.0  0.75659  0.14238  0.13684  1.0000
  H   H992      1.0  0.80012  0.10816  0.15985  1.0000
  H   H993      1.0  0.77688  0.20600  0.14357  1.0000
  C   C608      1.0  0.80666  0.14317  0.11934  1.0000
  C   C609      1.0  0.89597  0.31471  0.20662  1.0000
  H   H994      1.0  0.80328  0.11826  0.11531  1.0000
  S   S239      1.0  0.04962  0.21400  0.28692  1.0000
  C   C610      1.0  0.78717  0.16035  0.13002  1.0000
  H   H995      1.0  0.78846  0.37798  0.17893  1.0000
  H   H996      1.0  0.76270  0.10274  0.09876  1.0000
  H   H997      1.0  0.02071  0.30860  0.18955  1.0000
  H   H998      1.0  0.88021  0.37248  0.22087  1.0000
  H   H999      1.0  0.85555  0.28838  0.22699  1.0000
  H   H1000     1.0  0.88721  0.27217  0.23543  1.0000
  C   C611      1.0  0.96556  0.28585  0.19406  1.0000
  Fe  Fe115     1.0  0.02213  0.32696  0.26561  1.0000
  C   C612      1.0  0.80788  0.38961  0.18026  1.0000
  S   S240      1.0  0.99236  0.34948  0.24477  1.0000
  C   C613      1.0  0.97030  0.33884  0.20891  1.0000
  H   H1001     1.0  0.86383  0.35731  0.24241  1.0000
  S   S241      1.0  0.01287  0.30065  0.29360  1.0000
  H   H1002     1.0  0.96699  0.36477  0.20844  1.0000
  Fe  Fe116     1.0  0.91945  0.27975  0.15697  1.0000
  S   S242      1.0  0.87890  0.25727  0.16197  1.0000
  S   S243      1.0  0.95373  0.26078  0.17532  1.0000
  Fe  Fe117     1.0  0.89910  0.32131  0.12336  1.0000
  S   S244      1.0  0.85708  0.30207  0.12555  1.0000
  S   S245      1.0  0.90522  0.36094  0.10137  1.0000
  Fe  Fe118     1.0  0.86299  0.30782  0.15784  1.0000
  H   H1003     1.0  0.98221  0.24602  0.21053  1.0000
  Fe  Fe119     1.0  0.87708  0.25367  0.12930  1.0000
  C   C614      1.0  0.76533  0.09766  0.08288  1.0000
  S   S246      1.0  0.90367  0.33077  0.15545  1.0000
  S   S247      1.0  0.91892  0.27234  0.12450  1.0000
  C   C615      1.0  0.96162  0.31936  0.19337  1.0000
  H   H1004     1.0  0.99747  0.28050  0.23807  1.0000
  H   H1005     1.0  0.95194  0.33027  0.18085  1.0000
  H   H1006     1.0  0.79777  0.14644  0.17203  1.0000
  C   C616      1.0  0.91028  0.34487  0.07787  1.0000
  H   H1007     1.0  0.87146  0.13461  0.16393  1.0000
  H   H1008     1.0  0.83209  0.07338  0.19207  1.0000
  H   H1009     1.0  0.90949  0.29308  0.20574  1.0000
  H   H1010     1.0  0.92974  0.30125  0.08791  1.0000
  C   C617      1.0  0.80512  0.12103  0.17364  1.0000
  C   C618      1.0  0.98312  0.32486  0.22509  1.0000
  C   C619      1.0  0.98775  0.29146  0.22554  1.0000
  C   C620      1.0  0.97902  0.27198  0.21001  1.0000
  H   H1011     1.0  0.82909  0.12697  0.20852  1.0000
  H   H1012     1.0  0.04290  0.33147  0.21867  1.0000
  H   H1013     1.0  0.83609  0.26222  0.09212  1.0000
  H   H1014     1.0  0.92722  0.30827  0.23821  1.0000
  C   C621      1.0  0.87017  0.35088  0.22727  1.0000
  H   H1015     1.0  0.90788  0.33423  0.25413  1.0000
  H   H1016     1.0  0.04386  0.27193  0.21267  1.0000
  C   C622      1.0  0.87408  0.29418  0.23548  1.0000
  H   H1017     1.0  0.03982  0.33490  0.17409  1.0000
  H   H1018     1.0  0.87796  0.30958  0.19747  1.0000
  H   H1019     1.0  0.75781  0.16089  0.09034  1.0000
  C   C623      1.0  0.04011  0.31092  0.18148  1.0000
  C   C624      1.0  0.03199  0.19496  0.30603  1.0000
  H   H1020     1.0  0.85702  0.39419  0.11896  1.0000
  H   H1021     1.0  0.86786  0.29895  0.25087  1.0000
  S   S248      1.0  0.86611  0.20858  0.11262  1.0000
  C   C625      1.0  0.84932  0.13446  0.16123  1.0000
  C   C626      1.0  0.91278  0.32908  0.23854  1.0000
  N   N65       1.0  0.83440  0.11961  0.17764  1.0000
  H   H1022     1.0  0.04038  0.29184  0.16995  1.0000
  H   H1023     1.0  0.85154  0.34653  0.21856  1.0000
  N   N66       1.0  0.88826  0.32224  0.22701  1.0000
  H   H1024     1.0  0.80752  0.26252  0.07598  1.0000
  Fe  Fe120     1.0  0.04503  0.33216  0.30662  1.0000
  H   H1025     1.0  0.83399  0.16342  0.19463  1.0000
  C   C627      1.0  0.84015  0.13750  0.19587  1.0000
  H   H1026     1.0  0.88266  0.25642  0.07846  1.0000
  C   C628      1.0  0.83158  0.37098  0.17931  1.0000
  C   C629      1.0  0.83066  0.15842  0.11371  1.0000
  H   H1027     1.0  0.82008  0.23231  0.13462  1.0000
  C   C630      1.0  0.83565  0.19045  0.11937  1.0000
  H   H1028     1.0  0.84565  0.14520  0.10529  1.0000
  Fe  Fe121     1.0  0.04760  0.26841  0.28483  1.0000
  S   S249      1.0  0.82971  0.32874  0.17648  1.0000
  H   H1029     1.0  0.82621  0.22566  0.08019  1.0000
  Fe  Fe122     1.0  0.75463  0.08812  0.13954  1.0000
  C   C631      1.0  0.85658  0.38609  0.18133  1.0000
  H   H1030     1.0  0.79320  0.10955  0.18554  1.0000
  C   C632      1.0  0.03630  0.16183  0.30939  1.0000
  H   H1031     1.0  0.90676  0.33533  0.19978  1.0000
  H   H1032     1.0  0.87491  0.37195  0.18101  1.0000
  C   C633      1.0  0.82811  0.25231  0.07817  1.0000
  H   H1033     1.0  0.04980  0.14825  0.29993  1.0000
  C   C634      1.0  0.01435  0.21233  0.31821  1.0000
  H   H1034     1.0  0.84598  0.12101  0.14735  1.0000
  H   H1035     1.0  0.84281  0.16002  0.15877  1.0000
  C   C635      1.0  0.72103  0.11943  0.07629  1.0000
  H   H1036     1.0  0.71779  0.12553  0.09202  1.0000
  C   C636      1.0  0.92201  0.31422  0.07544  1.0000
  H   H1037     1.0  0.01087  0.23785  0.31571  1.0000
  H   H1038     1.0  0.78729  0.09842  0.07947  1.0000
  H   H1039     1.0  0.86495  0.08322  0.18271  1.0000
  H   H1040     1.0  0.75851  0.07246  0.08029  1.0000
  H   H1041     1.0  0.83856  0.07110  0.16637  1.0000
  S   S250      1.0  0.72992  0.36864  0.52134  1.0000
  Fe  Fe123     1.0  0.73916  0.32542  0.45161  1.0000
  H   H1042     1.0  0.73048  0.25874  0.54791  1.0000
  H   H1043     1.0  0.86773  0.12014  0.41364  1.0000
  H   H1044     1.0  0.88784  0.10515  0.44519  1.0000
  N   N67       1.0  0.90267  0.07782  0.56268  1.0000
  C   C637      1.0  0.93362  0.09823  0.40819  1.0000
  Fe  Fe124     1.0  0.79410  0.33899  0.46881  1.0000
  Fe  Fe125     1.0  0.76398  0.27757  0.47989  1.0000
  S   S251      1.0  0.01500  0.09419  0.40037  1.0000
  S   S252      1.0  0.77827  0.29737  0.45115  1.0000
  H   H1045     1.0  0.81716  0.16557  0.55460  1.0000
  S   S253      1.0  0.75629  0.36886  0.46698  1.0000
  H   H1046     1.0  0.98751  0.21012  0.34307  1.0000
  H   H1047     1.0  0.73845  0.20331  0.56737  1.0000
  C   C638      1.0  0.73063  0.30708  0.53620  1.0000
  H   H1048     1.0  0.74431  0.15792  0.54382  1.0000
  S   S254      1.0  0.76389  0.22653  0.49127  1.0000
  S   S255      1.0  0.78368  0.31629  0.49750  1.0000
  H   H1049     1.0  0.77590  0.16097  0.50030  1.0000
  S   S256      1.0  0.04424  0.35276  0.33719  1.0000
  H   H1050     1.0  0.79268  0.22791  0.45387  1.0000
  C   C639      1.0  0.79421  0.20395  0.46007  1.0000
  H   H1051     1.0  0.78716  0.23126  0.54685  1.0000
  H   H1052     1.0  0.77750  0.14341  0.53769  1.0000
  Fe  Fe126     1.0  0.83870  0.08024  0.46836  1.0000
  H   H1053     1.0  0.76351  0.13472  0.56127  1.0000
  S   S257      1.0  0.72369  0.30245  0.47908  1.0000
  H   H1054     1.0  0.92087  0.08737  0.44612  1.0000
  H   H1055     1.0  0.72185  0.37591  0.56294  1.0000
  C   C640      1.0  0.78499  0.16632  0.48629  1.0000
  Fe  Fe127     1.0  0.74465  0.34300  0.49445  1.0000
  C   C641      1.0  0.79910  0.14202  0.47623  1.0000
  C   C642      1.0  0.78268  0.19736  0.47834  1.0000
  H   H1056     1.0  0.78900  0.37627  0.52011  1.0000
  C   C643      1.0  0.80707  0.39206  0.52088  1.0000
  C   C644      1.0  0.81052  0.14833  0.45792  1.0000
  H   H1057     1.0  0.80090  0.11827  0.48263  1.0000
  H   H1058     1.0  0.02686  0.12066  0.32750  1.0000
  C   C645      1.0  0.72793  0.34016  0.54033  1.0000
  C   C646      1.0  0.90813  0.10517  0.43813  1.0000
  H   H1059     1.0  0.94271  0.12268  0.40963  1.0000
  H   H1060     1.0  0.74286  0.23849  0.45256  1.0000
  C   C647      1.0  0.80359  0.17685  0.56575  1.0000
  C   C648      1.0  0.88846  0.12057  0.40727  1.0000
  H   H1061     1.0  0.97813  0.08314  0.47047  1.0000
  H   H1062     1.0  0.72871  0.17236  0.43650  1.0000
  C   C649      1.0  0.88126  0.10193  0.56701  1.0000
  S   S258      1.0  0.85983  0.09927  0.49476  1.0000
  S   S259      1.0  0.82845  0.11752  0.44569  1.0000
  C   C650      1.0  0.91347  0.08346  0.54279  1.0000
  C   C651      1.0  0.71781  0.18133  0.44972  1.0000
  H   H1063     1.0  0.75921  0.21299  0.53464  1.0000
  Fe  Fe128     1.0  0.01109  0.09926  0.36785  1.0000
  C   C652      1.0  0.76491  0.15368  0.54976  1.0000
  H   H1064     1.0  0.81689  0.18436  0.43566  1.0000
  N   N68       1.0  0.90641  0.09702  0.41711  1.0000
  H   H1065     1.0  0.03121  0.19458  0.37276  1.0000
  C   C653      1.0  0.80791  0.17929  0.44975  1.0000
  H   H1066     1.0  0.71927  0.26139  0.43836  1.0000
  S   S260      1.0  0.99057  0.14494  0.35753  1.0000
  H   H1067     1.0  0.81949  0.38356  0.53340  1.0000
  H   H1068     1.0  0.73368  0.29894  0.52135  1.0000
  N   N69       1.0  0.77663  0.18391  0.55752  1.0000
  S   S261      1.0  0.81293  0.08616  0.53820  1.0000
  S   S262      1.0  0.83527  0.36119  0.46705  1.0000
  C   C654      1.0  0.00586  0.16359  0.33725  1.0000
  C   C655      1.0  0.72392  0.35037  0.55966  1.0000
  H   H1069     1.0  0.92235  0.10801  0.54134  1.0000
  H   H1070     1.0  0.81900  0.38794  0.50724  1.0000
  H   H1071     1.0  0.93313  0.09205  0.39235  1.0000
  H   H1072     1.0  0.81338  0.19926  0.57124  1.0000
  H   H1073     1.0  0.88670  0.11522  0.39138  1.0000
  H   H1074     1.0  0.91695  0.12955  0.44047  1.0000
  C   C656      1.0  0.00114  0.19659  0.33369  1.0000
  C   C657      1.0  0.77911  0.20776  0.54151  1.0000
  H   H1075     1.0  0.89608  0.14574  0.40883  1.0000
  H   H1076     1.0  0.94761  0.08065  0.41523  1.0000
  C   C658      1.0  0.04292  0.39518  0.33940  1.0000
  H   H1077     1.0  0.79274  0.19883  0.52965  1.0000
  C   C659      1.0  0.04810  0.17963  0.37867  1.0000
  C   C660      1.0  0.72482  0.29439  0.57058  1.0000
  H   H1078     1.0  0.89740  0.08139  0.53151  1.0000
  H   H1079     1.0  0.04424  0.15419  0.37420  1.0000
  C   C661      1.0  0.72743  0.23660  0.44089  1.0000
  H   H1080     1.0  0.88919  0.12706  0.56670  1.0000
  H   H1081     1.0  0.04687  0.18043  0.39492  1.0000
  H   H1082     1.0  0.86467  0.10063  0.55611  1.0000
  C   C662      1.0  0.72890  0.28426  0.55127  1.0000
  H   H1083     1.0  0.73268  0.18171  0.46190  1.0000
  C   C663      1.0  0.02340  0.14621  0.32503  1.0000
  H   H1084     1.0  0.73798  0.22883  0.42727  1.0000
  C   C664      1.0  0.81813  0.33099  0.67457  1.0000
  H   H1085     1.0  0.82300  0.30929  0.68358  1.0000
  S   S263      1.0  0.75335  0.31518  0.63102  1.0000
  C   C665      1.0  0.04688  0.24409  0.81826  1.0000
  Fe  Fe129     1.0  0.74401  0.28780  0.65843  1.0000
  H   H1086     1.0  0.86983  0.31375  0.66946  1.0000
  H   H1087     1.0  0.01312  0.09664  0.68738  1.0000
  H   H1088     1.0  0.98326  0.16675  0.71520  1.0000
  H   H1089     1.0  0.99936  0.18409  0.68213  1.0000
  S   S264      1.0  0.72267  0.26528  0.58917  1.0000
  H   H1090     1.0  0.77368  0.24499  0.63484  1.0000
  S   S265      1.0  0.77724  0.26377  0.67549  1.0000
  S   S266      1.0  0.87617  0.07422  0.62988  1.0000
  H   H1091     1.0  0.99706  0.13075  0.72602  1.0000
  C   C666      1.0  0.86249  0.33402  0.66012  1.0000
  C   C667      1.0  0.03527  0.22481  0.80368  1.0000
  H   H1092     1.0  0.82262  0.35279  0.68349  1.0000
  H   H1093     1.0  0.02872  0.19024  0.71141  1.0000
  S   S267      1.0  0.83034  0.14838  0.62751  1.0000
  C   C668      1.0  0.04126  0.19151  0.80260  1.0000
  Fe  Fe130     1.0  0.84390  0.10423  0.64437  1.0000
  H   H1094     1.0  0.80228  0.15973  0.57830  1.0000
  N   N70       1.0  0.01600  0.14489  0.69898  1.0000
  C   C669      1.0  0.82439  0.35847  0.64376  1.0000
  H   H1095     1.0  0.75641  0.18000  0.58536  1.0000
  H   H1096     1.0  0.83502  0.27882  0.65431  1.0000
  H   H1097     1.0  0.80232  0.35748  0.64080  1.0000
  H   H1098     1.0  0.97584  0.12787  0.70490  1.0000
  H   H1099     1.0  0.87215  0.09790  0.58173  1.0000
  H   H1100     1.0  0.91861  0.08873  0.73553  1.0000
  C   C670      1.0  0.81627  0.07348  0.57697  1.0000
  C   C671      1.0  0.95961  0.07287  0.73063  1.0000
  H   H1101     1.0  0.83949  0.29915  0.63126  1.0000
  C   C672      1.0  0.03656  0.16541  0.70841  1.0000
  C   C673      1.0  0.79117  0.23091  0.66239  1.0000
  H   H1102     1.0  0.75983  0.37936  0.66954  1.0000
  C   C674      1.0  0.82857  0.30015  0.64548  1.0000
  C   C675      1.0  0.81941  0.18240  0.66140  1.0000
  H   H1103     1.0  0.79595  0.33058  0.67196  1.0000
  S   S268      1.0  0.03913  0.12521  0.76096  1.0000
  S   S269      1.0  0.86084  0.09805  0.67462  1.0000
  C   C676      1.0  0.99204  0.14251  0.71183  1.0000
  H   H1104     1.0  0.86683  0.35713  0.66792  1.0000
  C   C677      1.0  0.80776  0.20830  0.67190  1.0000
  H   H1105     1.0  0.87463  0.33385  0.64640  1.0000
  C   C678      1.0  0.79875  0.20244  0.63174  1.0000
  C   C679      1.0  0.81505  0.17957  0.64127  1.0000
  H   H1106     1.0  0.02133  0.23556  0.79337  1.0000
  H   H1107     1.0  0.80676  0.29679  0.64242  1.0000
  H   H1108     1.0  0.81135  0.21056  0.68743  1.0000
  H   H1109     1.0  0.71953  0.33550  0.58971  1.0000
  C   C680      1.0  0.72256  0.32749  0.57481  1.0000
  H   H1110     1.0  0.82838  0.38211  0.65106  1.0000
  H   H1111     1.0  0.83494  0.35874  0.62939  1.0000
  H   H1112     1.0  0.83200  0.16487  0.66884  1.0000
  H   H1113     1.0  0.81248  0.09909  0.57906  1.0000
  H   H1114     1.0  0.03235  0.09988  0.70952  1.0000
  H   H1115     1.0  0.79526  0.20031  0.61619  1.0000
  N   N71       1.0  0.83338  0.33091  0.65596  1.0000
  C   C681      1.0  0.78654  0.22779  0.64230  1.0000
  C   C682      1.0  0.00800  0.15936  0.68009  1.0000
  H   H1116     1.0  0.99239  0.14442  0.67266  1.0000
  H   H1117     1.0  0.93359  0.10549  0.57684  1.0000
  C   C683      1.0  0.02744  0.11223  0.69551  1.0000
  Fe  Fe131     1.0  0.71822  0.28830  0.61874  1.0000
  H   H1118     1.0  0.03187  0.17668  0.79157  1.0000
  S   S270      1.0  0.03751  0.28516  0.82037  1.0000
  H   H1119     1.0  0.76722  0.22010  0.57926  1.0000
  Fe  Fe132     1.0  0.01377  0.08044  0.76151  1.0000
  Fe  Fe133     1.0  0.72246  0.35076  0.64181  1.0000
  H   H1120     1.0  0.91695  0.07667  0.59232  1.0000
  H   H1121     1.0  0.90489  0.08187  0.70100  1.0000
  S   S271      1.0  0.96939  0.08057  0.75489  1.0000
  H   H1122     1.0  0.02556  0.16126  0.66997  1.0000
  C   C684      1.0  0.93308  0.07977  0.72490  1.0000
  C   C685      1.0  0.92527  0.07593  0.70532  1.0000
  H   H1123     1.0  0.04325  0.15490  0.72257  1.0000
  C   C686      1.0  0.92455  0.08090  0.57718  1.0000
  H   H1124     1.0  0.04649  0.11327  0.68686  1.0000
  C   C687      1.0  0.75893  0.19730  0.57303  1.0000
  Fe  Fe134     1.0  0.76355  0.12652  0.99453  1.0000
  H   H1125     1.0  0.78521  0.18904  0.95550  1.0000
  N   N72       1.0  0.75710  0.21435  0.93691  1.0000
  H   H1126     1.0  0.73678  0.18764  0.95953  1.0000
  H   H1127     1.0  0.77118  0.24994  0.91643  1.0000
  C   C688      1.0  0.75518  0.18846  0.92203  1.0000
  H   H1128     1.0  0.00023  0.16263  0.85893  1.0000
  N   N73       1.0  0.74991  0.12105  0.07092  1.0000
  H   H1129     1.0  0.74391  0.25992  0.99174  1.0000
  H   H1130     1.0  0.99764  0.26303  0.87419  1.0000
  H   H1131     1.0  0.74442  0.20245  0.00265  1.0000
  C   C689      1.0  0.02582  0.20776  0.87989  1.0000
  C   C690      1.0  0.90132  0.36207  0.06148  1.0000
  C   C691      1.0  0.76290  0.24773  0.99454  1.0000
  S   S272      1.0  0.76870  0.11914  0.96224  1.0000
  H   H1132     1.0  0.73473  0.23089  0.96202  1.0000
  H   H1133     1.0  0.73511  0.24914  0.91976  1.0000
  S   S273      1.0  0.78663  0.30314  0.98142  1.0000
  H   H1134     1.0  0.97748  0.24830  0.85435  1.0000
  C   C692      1.0  0.99684  0.24472  0.86228  1.0000
  H   H1135     1.0  0.77132  0.19047  0.91078  1.0000
  C   C693      1.0  0.78340  0.21189  0.94697  1.0000
  H   H1136     1.0  0.74553  0.08836  0.04664  1.0000
  H   H1137     1.0  0.87215  0.21920  0.06753  1.0000
  C   C694      1.0  0.76319  0.21529  0.00066  1.0000
  H   H1138     1.0  0.84843  0.25152  0.03066  1.0000
  Fe  Fe135     1.0  0.02971  0.30998  0.89158  1.0000
  Fe  Fe136     1.0  0.85734  0.38837  0.99045  1.0000
  H   H1139     1.0  0.01338  0.25029  0.85184  1.0000
  S   S274      1.0  0.00519  0.28425  0.91438  1.0000
  H   H1140     1.0  0.89513  0.36094  0.03031  1.0000
  H   H1141     1.0  0.97850  0.22301  0.89675  1.0000
  S   S275      1.0  0.01319  0.33440  0.86491  1.0000
  C   C695      1.0  0.87317  0.24583  0.06518  1.0000
  Fe  Fe137     1.0  0.87517  0.34703  0.95613  1.0000
  H   H1142     1.0  0.02848  0.18298  0.88598  1.0000
  H   H1143     1.0  0.99562  0.38855  0.89113  1.0000
  Fe  Fe138     1.0  0.88398  0.32367  0.99755  1.0000
  S   S276      1.0  0.84542  0.34569  0.00865  1.0000
  S   S277      1.0  0.91066  0.29611  0.01818  1.0000
  Fe  Fe139     1.0  0.82762  0.32633  0.98097  1.0000
  H   H1144     1.0  0.73533  0.18917  0.91443  1.0000
  H   H1145     1.0  0.74886  0.17238  0.06579  1.0000
  S   S278      1.0  0.71840  0.12696  0.99374  1.0000
  S   S279      1.0  0.86529  0.30044  0.97120  1.0000
  C   C696      1.0  0.92389  0.30029  0.05678  1.0000
  C   C697      1.0  0.91342  0.31661  0.04056  1.0000
  H   H1146     1.0  0.97809  0.18990  0.84601  1.0000
  C   C698      1.0  0.99776  0.18801  0.85374  1.0000
  C   C699      1.0  0.90275  0.34788  0.04284  1.0000
  C   C700      1.0  0.75481  0.24635  0.92738  1.0000
  H   H1147     1.0  0.95735  0.20851  0.87739  1.0000
  H   H1148     1.0  0.83096  0.20461  0.00524  1.0000
  S   S280      1.0  0.78860  0.15978  0.01292  1.0000
  C   C701      1.0  0.81193  0.21664  0.00230  1.0000
  H   H1149     1.0  0.83042  0.26147  0.99384  1.0000
  C   C702      1.0  0.97203  0.29887  0.91690  1.0000
  C   C703      1.0  0.95945  0.29840  0.93526  1.0000
  C   C704      1.0  0.93395  0.31286  0.93786  1.0000
  C   C705      1.0  0.92084  0.32727  0.92199  1.0000
  C   C706      1.0  0.93276  0.32607  0.90342  1.0000
  C   C707      1.0  0.95842  0.31211  0.90090  1.0000
  H   H1150     1.0  0.96980  0.28789  0.94767  1.0000
  H   H1151     1.0  0.92476  0.31352  0.95224  1.0000
  H   H1152     1.0  0.92239  0.33671  0.89107  1.0000
  H   H1153     1.0  0.96760  0.31175  0.88658  1.0000
  H   H1154     1.0  0.97883  0.18073  0.89044  1.0000
  H   H1155     1.0  0.83296  0.21948  0.04434  1.0000
  H   H1156     1.0  0.00194  0.37778  0.92547  1.0000
  H   H1157     1.0  0.78179  0.15608  0.07073  1.0000
  H   H1158     1.0  0.02788  0.22530  0.89220  1.0000
  H   H1159     1.0  0.75693  0.16404  0.92880  1.0000
  N   N74       1.0  0.99948  0.21149  0.87003  1.0000
  H   H1160     1.0  0.04034  0.39801  0.83311  1.0000
  H   H1161     1.0  0.86065  0.30195  0.04654  1.0000
  H   H1162     1.0  0.89250  0.38595  0.06324  1.0000
  H   H1163     1.0  0.93264  0.27637  0.05503  1.0000
  C   C708      1.0  0.75327  0.11297  0.04998  1.0000
  S   S281      1.0  0.89083  0.34931  0.92527  1.0000
  C   C709      1.0  0.97755  0.20560  0.88426  1.0000
  C   C710      1.0  0.78775  0.19979  0.00457  1.0000
  H   H1164     1.0  0.96041  0.37925  0.89171  1.0000
  C   C711      1.0  0.81165  0.24883  0.99584  1.0000
  H   H1165     1.0  0.96733  0.36645  0.92788  1.0000
  S   S282      1.0  0.89758  0.36794  0.98155  1.0000
  H   H1166     1.0  0.98062  0.39689  0.94360  1.0000
  H   H1167     1.0  0.81480  0.25666  0.04001  1.0000
  C   C712      1.0  0.78716  0.26432  0.99173  1.0000
  H   H1168     1.0  0.75635  0.26639  0.93829  1.0000
  H   H1169     1.0  0.78621  0.23226  0.95737  1.0000
  S   S283      1.0  0.83582  0.37136  0.96360  1.0000
  Fe  Fe140     1.0  0.72350  0.11506  0.96186  1.0000
  Fe  Fe141     1.0  0.04709  0.30890  0.84918  1.0000
  H   H1170     1.0  0.80054  0.21268  0.93645  1.0000
  H   H1171     1.0  0.74222  0.13039  0.04046  1.0000
  H   H1172     1.0  0.04285  0.21195  0.86956  1.0000
  C   C713      1.0  0.97523  0.39887  0.89404  1.0000
  C   C714      1.0  0.83505  0.24627  0.04339  1.0000
  C   C715      1.0  0.84836  0.29550  0.05957  1.0000
  C   C716      1.0  0.73496  0.21076  0.95126  1.0000
  N   N75       1.0  0.84616  0.25998  0.06161  1.0000
  H   H1173     1.0  0.01386  0.19228  0.84265  1.0000
  C   C717      1.0  0.98125  0.38736  0.92837  1.0000
  S   S284      1.0  0.76729  0.07391  0.00147  1.0000
  H   H1174     1.0  0.77487  0.11353  0.04546  1.0000
  H   H1175     1.0  0.88698  0.25014  0.05259  1.0000
  Fe  Fe142     1.0  0.04377  0.37277  0.87119  1.0000
  Fe  Fe143     1.0  0.72241  0.07325  0.99806  1.0000
  H   H1176     1.0  0.82825  0.30717  0.05765  1.0000
  H   H1177     1.0  0.85816  0.30662  0.07257  1.0000
  C   C718      1.0  0.85789  0.41960  0.18442  1.0000
  H   H1178     1.0  0.95798  0.70090  0.19501  1.0000
  S   S285      1.0  0.77200  0.53867  0.19344  1.0000
  Fe  Fe144     1.0  0.78241  0.53386  0.13725  1.0000
  S   S286      1.0  0.79185  0.52621  0.10540  1.0000
  H   H1179     1.0  0.85330  0.72775  0.08907  1.0000
  S   S287      1.0  0.77239  0.49005  0.15504  1.0000
  C   C719      1.0  0.80326  0.65612  0.17054  1.0000
  C   C720      1.0  0.80921  0.42334  0.18284  1.0000
  C   C721      1.0  0.78654  0.56036  0.09057  1.0000
  C   C722      1.0  0.77479  0.58879  0.09800  1.0000
  H   H1180     1.0  0.77075  0.59107  0.11347  1.0000
  Fe  Fe145     1.0  0.78126  0.57878  0.17238  1.0000
  S   S288      1.0  0.78165  0.63020  0.18346  1.0000
  H   H1181     1.0  0.90872  0.65902  0.18546  1.0000
  H   H1182     1.0  0.79442  0.69739  0.18888  1.0000
  C   C723      1.0  0.80593  0.68845  0.17651  1.0000
  Fe  Fe146     1.0  0.80247  0.50983  0.17623  1.0000
  C   C724      1.0  0.86250  0.41695  0.12671  1.0000
  H   H1183     1.0  0.79085  0.43761  0.18360  1.0000
  C   C725      1.0  0.81663  0.43678  0.12525  1.0000
  S   S289      1.0  0.81468  0.55154  0.15732  1.0000
  C   C726      1.0  0.93803  0.70697  0.20163  1.0000
  C   C727      1.0  0.91434  0.67935  0.17562  1.0000
  N   N76       1.0  0.02585  0.59721  0.32241  1.0000
  H   H1184     1.0  0.88432  0.69851  0.20617  1.0000
  H   H1185     1.0  0.87728  0.43112  0.18619  1.0000
  C   C728      1.0  0.85295  0.47392  0.13146  1.0000
  C   C729      1.0  0.83103  0.73143  0.08954  1.0000
  H   H1186     1.0  0.72636  0.48886  0.09293  1.0000
  H   H1187     1.0  0.87429  0.48045  0.12843  1.0000
  H   H1188     1.0  0.84741  0.65637  0.13234  1.0000
  H   H1189     1.0  0.73902  0.60423  0.20588  1.0000
  H   H1190     1.0  0.02765  0.63541  0.30101  1.0000
  H   H1191     1.0  0.82553  0.73420  0.17121  1.0000
  H   H1192     1.0  0.81575  0.62009  0.14955  1.0000
  S   S290      1.0  0.83672  0.48029  0.18839  1.0000
  C   C730      1.0  0.82356  0.70926  0.16656  1.0000
  N   N77       1.0  0.91688  0.71011  0.18654  1.0000
  C   C731      1.0  0.89081  0.71801  0.19602  1.0000
  Fe  Fe147     1.0  0.74265  0.52250  0.17054  1.0000
  C   C732      1.0  0.83580  0.66543  0.14463  1.0000
  H   H1193     1.0  0.80291  0.45689  0.12073  1.0000
  S   S291      1.0  0.86211  0.72217  0.13865  1.0000
  H   H1194     1.0  0.81363  0.43292  0.14122  1.0000
  H   H1195     1.0  0.89838  0.68118  0.16419  1.0000
  C   C733      1.0  0.83871  0.69759  0.15074  1.0000
  H   H1196     1.0  0.93353  0.67271  0.16809  1.0000
  C   C734      1.0  0.00912  0.57540  0.31040  1.0000
  S   S292      1.0  0.74979  0.56464  0.15058  1.0000
  H   H1197     1.0  0.83520  0.47049  0.09448  1.0000
  H   H1198     1.0  0.85089  0.47064  0.14754  1.0000
  C   C735      1.0  0.81799  0.64478  0.15444  1.0000
  C   C736      1.0  0.02126  0.63119  0.31641  1.0000
  N   N78       1.0  0.84506  0.44437  0.12072  1.0000
  H   H1199     1.0  0.75771  0.63561  0.09092  1.0000
  H   H1200     1.0  0.86936  0.45555  0.09555  1.0000
  H   H1201     1.0  0.87453  0.72114  0.18498  1.0000
  C   C737      1.0  0.83425  0.43831  0.18499  1.0000
  H   H1202     1.0  0.93303  0.68776  0.21241  1.0000
  H   H1203     1.0  0.84004  0.49503  0.12734  1.0000
  C   C738      1.0  0.84809  0.44987  0.09947  1.0000
  C   C739      1.0  0.76743  0.61401  0.08523  1.0000
  H   H1204     1.0  0.99963  0.63827  0.31777  1.0000
  H   H1205     1.0  0.01235  0.54956  0.31463  1.0000
  H   H1206     1.0  0.88414  0.42161  0.12337  1.0000
  H   H1207     1.0  0.86081  0.41219  0.14266  1.0000
  H   H1208     1.0  0.84233  0.42803  0.09091  1.0000
  H   H1209     1.0  0.03169  0.46369  0.31291  1.0000
  H   H1210     1.0  0.98724  0.58089  0.31227  1.0000
  H   H1211     1.0  0.82418  0.72453  0.10449  1.0000
  C   C740      1.0  0.71868  0.59303  0.20523  1.0000
  H   H1212     1.0  0.71990  0.57245  0.19474  1.0000
  H   H1213     1.0  0.81669  0.66872  0.09154  1.0000
  H   H1214     1.0  0.01410  0.57762  0.29459  1.0000
  H   H1215     1.0  0.94408  0.73155  0.16567  1.0000
  H   H1216     1.0  0.77996  0.70930  0.09028  1.0000
  H   H1217     1.0  0.73266  0.54595  0.08486  1.0000
  H   H1218     1.0  0.81003  0.41438  0.11762  1.0000
  H   H1219     1.0  0.72406  0.51319  0.21361  1.0000
  H   H1220     1.0  0.03061  0.40390  0.30972  1.0000
  C   C741      1.0  0.78780  0.71732  0.07582  1.0000
  H   H1221     1.0  0.72444  0.64137  0.17941  1.0000
  H   H1222     1.0  0.94053  0.73006  0.20991  1.0000
  H   H1223     1.0  0.84567  0.67273  0.07589  1.0000
  C   C742      1.0  0.82359  0.67749  0.07698  1.0000
  N   N79       1.0  0.81729  0.71225  0.07429  1.0000
  H   H1224     1.0  0.79136  0.69294  0.53737  1.0000
  C   C743      1.0  0.79351  0.69194  0.52163  1.0000
  H   H1225     1.0  0.74323  0.72242  0.41499  1.0000
  H   H1226     1.0  0.79687  0.46273  0.44206  1.0000
  C   C744      1.0  0.81364  0.41778  0.45273  1.0000
  H   H1227     1.0  0.02068  0.56792  0.34799  1.0000
  H   H1228     1.0  0.88975  0.68104  0.52131  1.0000
  C   C745      1.0  0.78351  0.43672  0.50580  1.0000
  H   H1229     1.0  0.02906  0.70466  0.36877  1.0000
  H   H1230     1.0  0.04167  0.73136  0.33767  1.0000
  H   H1231     1.0  0.92334  0.71429  0.50313  1.0000
  H   H1232     1.0  0.04811  0.51069  0.48061  1.0000
  H   H1233     1.0  0.79931  0.40286  0.44502  1.0000
  H   H1234     1.0  0.91966  0.72023  0.47722  1.0000
  C   C746      1.0  0.83380  0.40331  0.46409  1.0000
  H   H1235     1.0  0.75360  0.71991  0.44010  1.0000
  H   H1236     1.0  0.72897  0.69220  0.43084  1.0000
  S   S293      1.0  0.04551  0.50556  0.34471  1.0000
  S   S294      1.0  0.02554  0.55763  0.38978  1.0000
  C   C747      1.0  0.93704  0.51955  0.42825  1.0000
  H   H1237     1.0  0.86836  0.41155  0.48237  1.0000
  S   S295      1.0  0.01875  0.51533  0.44212  1.0000
  Fe  Fe148     1.0  0.89731  0.58030  0.49476  1.0000
  S   S296      1.0  0.85727  0.59329  0.48170  1.0000
  S   S297      1.0  0.93242  0.60744  0.48198  1.0000
  Fe  Fe149     1.0  0.87241  0.53315  0.52355  1.0000
  S   S298      1.0  0.83048  0.54255  0.51289  1.0000
  S   S299      1.0  0.87445  0.49612  0.54747  1.0000
  Fe  Fe150     1.0  0.84928  0.53996  0.48316  1.0000
  H   H1238     1.0  0.84583  0.62752  0.56892  1.0000
  S   S300      1.0  0.89061  0.52665  0.49369  1.0000
  C   C748      1.0  0.81236  0.45163  0.45100  1.0000
  C   C749      1.0  0.85272  0.42271  0.47361  1.0000
  S   S301      1.0  0.04728  0.64628  0.38715  1.0000
  C   C750      1.0  0.80779  0.66358  0.49236  1.0000
  H   H1239     1.0  0.81846  0.47270  0.52640  1.0000
  H   H1240     1.0  0.90859  0.44575  0.42117  1.0000
  C   C751      1.0  0.89102  0.50360  0.43440  1.0000
  C   C752      1.0  0.99611  0.54187  0.45380  1.0000
  C   C753      1.0  0.98021  0.53030  0.46920  1.0000
  C   C754      1.0  0.96079  0.55044  0.47804  1.0000
  C   C755      1.0  0.95743  0.58235  0.47164  1.0000
  H   H1241     1.0  0.98273  0.50561  0.47420  1.0000
  H   H1242     1.0  0.94866  0.54142  0.48998  1.0000
  H   H1243     1.0  0.91536  0.47648  0.40329  1.0000
  C   C756      1.0  0.04510  0.69452  0.35983  1.0000
  H   H1244     1.0  0.79346  0.42259  0.55420  1.0000
  Fe  Fe151     1.0  0.84248  0.59467  0.51267  1.0000
  C   C757      1.0  0.79908  0.68991  0.48095  1.0000
  S   S302      1.0  0.88316  0.58571  0.52581  1.0000
  H   H1245     1.0  0.99713  0.60096  0.34602  1.0000
  C   C758      1.0  0.91642  0.70271  0.48934  1.0000
  H   H1246     1.0  0.92635  0.49664  0.46399  1.0000
  C   C759      1.0  0.80529  0.66474  0.51274  1.0000
  H   H1247     1.0  0.86534  0.47121  0.47998  1.0000
  H   H1248     1.0  0.81615  0.64230  0.48539  1.0000
  H   H1249     1.0  0.87696  0.48333  0.43751  1.0000
  C   C760      1.0  0.97389  0.59421  0.45660  1.0000
  C   C761      1.0  0.99310  0.57391  0.44757  1.0000
  H   H1250     1.0  0.97145  0.61894  0.45166  1.0000
  H   H1251     1.0  0.00537  0.58301  0.43569  1.0000
  H   H1252     1.0  0.94861  0.46894  0.45168  1.0000
  C   C762      1.0  0.73594  0.71774  0.43012  1.0000
  C   C763      1.0  0.78236  0.43038  0.54087  1.0000
  C   C764      1.0  0.85096  0.45653  0.47231  1.0000
  N   N80       1.0  0.79916  0.42645  0.52311  1.0000
  H   H1253     1.0  0.88823  0.52182  0.44629  1.0000
  S   S303      1.0  0.81766  0.63328  0.52756  1.0000
  C   C765      1.0  0.78447  0.71801  0.51025  1.0000
  H   H1254     1.0  0.84896  0.71490  0.49580  1.0000
  H   H1255     1.0  0.85836  0.66950  0.47263  1.0000
  H   H1256     1.0  0.95861  0.51181  0.42743  1.0000
  H   H1257     1.0  0.88425  0.51506  0.42054  1.0000
  H   H1258     1.0  0.93555  0.53911  0.43945  1.0000
  H   H1259     1.0  0.03285  0.64818  0.32574  1.0000
  H   H1260     1.0  0.93168  0.53046  0.41391  1.0000
  C   C766      1.0  0.83080  0.47108  0.46099  1.0000
  C   C767      1.0  0.92744  0.47818  0.45215  1.0000
  C   C768      1.0  0.92161  0.46695  0.41781  1.0000
  H   H1261     1.0  0.91410  0.45778  0.45649  1.0000
  Fe  Fe152     1.0  0.04265  0.53641  0.41717  1.0000
  H   H1262     1.0  0.76487  0.42201  0.50411  1.0000
  H   H1263     1.0  0.94276  0.45789  0.41639  1.0000
  N   N81       1.0  0.91928  0.49209  0.43315  1.0000
  N   N82       1.0  0.88785  0.69289  0.49069  1.0000
  S   S304      1.0  0.82897  0.51340  0.45870  1.0000
  H   H1264     1.0  0.80105  0.68898  0.46521  1.0000
  H   H1265     1.0  0.88217  0.69382  0.45952  1.0000
  H   H1266     1.0  0.91121  0.54838  0.55542  1.0000
  H   H1267     1.0  0.03138  0.60849  0.35284  1.0000
  C   C769      1.0  0.82361  0.44654  0.52488  1.0000
  C   C770      1.0  0.03631  0.41479  0.32345  1.0000
  C   C771      1.0  0.90351  0.53941  0.56915  1.0000
  C   C772      1.0  0.88600  0.51301  0.56941  1.0000
  H   H1268     1.0  0.83582  0.43969  0.53789  1.0000
  H   H1269     1.0  0.77599  0.45604  0.54298  1.0000
  H   H1270     1.0  0.76369  0.41556  0.54001  1.0000
  C   C773      1.0  0.03675  0.44867  0.32532  1.0000
  H   H1271     1.0  0.80990  0.62435  0.57026  1.0000
  C   C774      1.0  0.87981  0.67719  0.47218  1.0000
  H   H1272     1.0  0.89788  0.64821  0.50507  1.0000
  H   H1273     1.0  0.83690  0.44394  0.51186  1.0000
  H   H1274     1.0  0.86353  0.66103  0.50807  1.0000
  C   C775      1.0  0.04379  0.46308  0.34315  1.0000
  H   H1275     1.0  0.89230  0.65518  0.46917  1.0000
  C   C776      1.0  0.87058  0.72169  0.49424  1.0000
  C   C777      1.0  0.88462  0.66982  0.50701  1.0000
  H   H1276     1.0  0.77733  0.46262  0.50681  1.0000
  H   H1277     1.0  0.92986  0.68138  0.48654  1.0000
  C   C778      1.0  0.01840  0.59350  0.34321  1.0000
  C   C779      1.0  0.78739  0.71716  0.48991  1.0000
  H   H1278     1.0  0.79548  0.43376  0.49212  1.0000
  H   H1279     1.0  0.87636  0.73445  0.50793  1.0000
  C   C780      1.0  0.04947  0.40959  0.35732  1.0000
  C   C781      1.0  0.04997  0.44346  0.35918  1.0000
  H   H1280     1.0  0.72216  0.73445  0.46640  1.0000
  C   C782      1.0  0.81653  0.72114  0.66436  1.0000
  C   C783      1.0  0.76533  0.45054  0.64493  1.0000
  C   C784      1.0  0.83294  0.57148  0.58612  1.0000
  C   C785      1.0  0.75526  0.42017  0.65026  1.0000
  H   H1281     1.0  0.76242  0.67118  0.66870  1.0000
  H   H1282     1.0  0.75553  0.46431  0.63350  1.0000
  H   H1283     1.0  0.87414  0.60889  0.59715  1.0000
  H   H1284     1.0  0.80835  0.58763  0.61979  1.0000
  H   H1285     1.0  0.82698  0.65352  0.58518  1.0000
  C   C786      1.0  0.87688  0.50075  0.58731  1.0000
  C   C787      1.0  0.78282  0.67878  0.66552  1.0000
  C   C788      1.0  0.79064  0.41507  0.67443  1.0000
  C   C789      1.0  0.78854  0.46276  0.65398  1.0000
  C   C790      1.0  0.84799  0.70232  0.71394  1.0000
  H   H1286     1.0  0.77505  0.72903  0.67268  1.0000
  S   S305      1.0  0.79393  0.61441  0.65939  1.0000
  H   H1287     1.0  0.85806  0.59293  0.61847  1.0000
  Fe  Fe153     1.0  0.03317  0.59372  0.75605  1.0000
  C   C791      1.0  0.80716  0.60597  0.60790  1.0000
  Fe  Fe154     1.0  0.84397  0.50933  0.67312  1.0000
  S   S306      1.0  0.88799  0.52089  0.67653  1.0000
  S   S307      1.0  0.83178  0.45773  0.67902  1.0000
  Fe  Fe155     1.0  0.03457  0.60962  0.79940  1.0000
  C   C792      1.0  0.02687  0.72727  0.80552  1.0000
  H   H1288     1.0  0.86349  0.48017  0.58757  1.0000
  C   C793      1.0  0.80235  0.65569  0.66010  1.0000
  C   C794      1.0  0.88176  0.66498  0.70168  1.0000
  C   C795      1.0  0.88461  0.51553  0.60490  1.0000
  H   H1289     1.0  0.87747  0.50605  0.61869  1.0000
  C   C796      1.0  0.93740  0.59209  0.74145  1.0000
  C   C797      1.0  0.96533  0.59718  0.74207  1.0000
  H   H1290     1.0  0.92557  0.59391  0.75474  1.0000
  H   H1291     1.0  0.97485  0.60335  0.75575  1.0000
  S   S308      1.0  0.01253  0.57191  0.78209  1.0000
  H   H1292     1.0  0.87470  0.66810  0.68636  1.0000
  H   H1293     1.0  0.89095  0.64035  0.70282  1.0000
  S   S309      1.0  0.01600  0.59888  0.72578  1.0000
  Fe  Fe156     1.0  0.82829  0.57980  0.66571  1.0000
  S   S310      1.0  0.87075  0.59690  0.66898  1.0000
  H   H1294     1.0  0.86349  0.72116  0.71666  1.0000
  Fe  Fe157     1.0  0.87317  0.56294  0.69434  1.0000
  S   S311      1.0  0.88998  0.57737  0.72356  1.0000
  Fe  Fe158     1.0  0.88133  0.55346  0.65078  1.0000
  S   S312      1.0  0.91046  0.56230  0.62626  1.0000
  S   S313      1.0  0.82954  0.54934  0.69285  1.0000
  S   S314      1.0  0.83853  0.53842  0.64562  1.0000
  H   H1295     1.0  0.92511  0.57429  0.58648  1.0000
  C   C798      1.0  0.83572  0.69826  0.65813  1.0000
  H   H1296     1.0  0.84595  0.62001  0.71299  1.0000
  H   H1297     1.0  0.82077  0.64777  0.72195  1.0000
  C   C799      1.0  0.90181  0.54224  0.60460  1.0000
  H   H1298     1.0  0.83101  0.70649  0.72434  1.0000
  C   C800      1.0  0.83810  0.64524  0.71167  1.0000
  C   C801      1.0  0.98075  0.59481  0.72496  1.0000
  C   C802      1.0  0.96808  0.58767  0.70719  1.0000
  C   C803      1.0  0.94011  0.58244  0.70658  1.0000
  C   C804      1.0  0.92480  0.58452  0.72375  1.0000
  H   H1299     1.0  0.97993  0.58580  0.69392  1.0000
  H   H1300     1.0  0.93047  0.57664  0.69284  1.0000
  H   H1301     1.0  0.85627  0.70573  0.65533  1.0000
  H   H1302     1.0  0.83998  0.70665  0.69902  1.0000
  C   C805      1.0  0.76781  0.40253  0.66513  1.0000
  N   N83       1.0  0.83101  0.60417  0.59489  1.0000
  C   C806      1.0  0.82863  0.66567  0.65591  1.0000
  C   C807      1.0  0.80143  0.44478  0.66856  1.0000
  H   H1303     1.0  0.84353  0.64832  0.65100  1.0000
  C   C808      1.0  0.86958  0.66456  0.73587  1.0000
  H   H1304     1.0  0.87837  0.63989  0.73778  1.0000
  H   H1305     1.0  0.01899  0.68064  0.79272  1.0000
  C   C809      1.0  0.02136  0.69404  0.80615  1.0000
  H   H1306     1.0  0.83004  0.64794  0.69660  1.0000
  H   H1307     1.0  0.89811  0.68282  0.70423  1.0000
  H   H1308     1.0  0.85504  0.63525  0.61307  1.0000
  N   N84       1.0  0.98179  0.49367  0.74835  1.0000
  C   C810      1.0  0.95992  0.49792  0.73389  1.0000
  C   C811      1.0  0.98917  0.45902  0.74990  1.0000
  C   C812      1.0  0.97251  0.50563  0.76764  1.0000
  C   C813      1.0  0.00565  0.51222  0.74204  1.0000
  H   H1309     1.0  0.95417  0.52392  0.73232  1.0000
  H   H1310     1.0  0.94140  0.48462  0.73824  1.0000
  H   H1311     1.0  0.96613  0.48915  0.71914  1.0000
  H   H1312     1.0  0.97166  0.44419  0.75459  1.0000
  H   H1313     1.0  0.99657  0.44927  0.73566  1.0000
  H   H1314     1.0  0.00558  0.45525  0.76083  1.0000
  H   H1315     1.0  0.95474  0.49189  0.77299  1.0000
  H   H1316     1.0  0.96647  0.53165  0.76694  1.0000
  H   H1317     1.0  0.98872  0.50327  0.77884  1.0000
  H   H1318     1.0  0.01260  0.50490  0.72719  1.0000
  H   H1319     1.0  0.02288  0.50878  0.75223  1.0000
  H   H1320     1.0  0.00114  0.53854  0.74159  1.0000
  H   H1321     1.0  0.80537  0.63011  0.61511  1.0000
  N   N85       1.0  0.85935  0.66927  0.71579  1.0000
  H   H1322     1.0  0.79665  0.48581  0.64949  1.0000
  C   C814      1.0  0.85562  0.61069  0.60637  1.0000
  C   C815      1.0  0.91154  0.55387  0.58673  1.0000
  S   S315      1.0  0.72697  0.40457  0.63826  1.0000
  H   H1323     1.0  0.88573  0.68221  0.73942  1.0000
  H   H1324     1.0  0.85319  0.66741  0.74690  1.0000
  C   C816      1.0  0.82833  0.62850  0.57918  1.0000
  C   C817      1.0  0.78991  0.71151  0.66772  1.0000
  H   H1325     1.0  0.72545  0.70808  0.62275  1.0000
  H   H1326     1.0  0.04576  0.42262  0.80038  1.0000
  C   C818      1.0  0.72382  0.73408  0.61865  1.0000
  C   C819      1.0  0.04464  0.47176  0.81105  1.0000
  H   H1327     1.0  0.78815  0.60159  0.59974  1.0000
  H   H1328     1.0  0.85071  0.56933  0.57619  1.0000
  C   C820      1.0  0.04406  0.43803  0.81316  1.0000
  H   H1329     1.0  0.83516  0.55247  0.59755  1.0000
  S   S316      1.0  0.04802  0.48826  0.78754  1.0000
  H   H1330     1.0  0.81474  0.56569  0.57733  1.0000
  H   H1331     1.0  0.80006  0.40182  0.68620  1.0000
  Fe  Fe159     1.0  0.74073  0.55401  0.00086  1.0000
  C   C821      1.0  0.02628  0.72953  0.84086  1.0000
  Fe  Fe160     1.0  0.74872  0.61968  0.01942  1.0000
  S   S317      1.0  0.75989  0.64072  0.04885  1.0000
  S   S318      1.0  0.77699  0.58567  0.00387  1.0000
  C   C822      1.0  0.74646  0.50155  0.05731  1.0000
  C   C823      1.0  0.77486  0.44948  0.00131  1.0000
  H   H1332     1.0  0.01302  0.43294  0.91271  1.0000
  H   H1333     1.0  0.75331  0.51935  0.04617  1.0000
  Fe  Fe161     1.0  0.76238  0.60989  0.97663  1.0000
  C   C824      1.0  0.94527  0.42294  0.91795  1.0000
  C   C825      1.0  0.77141  0.48158  0.00750  1.0000
  H   H1334     1.0  0.80410  0.73188  0.96961  1.0000
  H   H1335     1.0  0.78868  0.58046  0.04252  1.0000
  S   S319      1.0  0.73691  0.64709  0.99221  1.0000
  S   S320      1.0  0.79000  0.61786  0.95101  1.0000
  H   H1336     1.0  0.80388  0.46652  0.94073  1.0000
  H   H1337     1.0  0.78691  0.47299  0.96365  1.0000
  H   H1338     1.0  0.75762  0.43563  0.99652  1.0000
  H   H1339     1.0  0.80791  0.64981  0.91656  1.0000
  H   H1340     1.0  0.82303  0.47267  0.96270  1.0000
  C   C826      1.0  0.79864  0.65853  0.94689  1.0000
  S   S321      1.0  0.03569  0.42646  0.87157  1.0000
  H   H1341     1.0  0.94303  0.43315  0.93295  1.0000
  C   C827      1.0  0.02084  0.69619  0.84149  1.0000
  C   C828      1.0  0.80456  0.48045  0.95465  1.0000
  H   H1342     1.0  0.79104  0.52356  0.01944  1.0000
  C   C829      1.0  0.80704  0.66763  0.92816  1.0000
  H   H1343     1.0  0.93852  0.44167  0.90733  1.0000
  C   C830      1.0  0.79364  0.49917  0.01402  1.0000
  H   H1344     1.0  0.03750  0.49294  0.85896  1.0000
  C   C831      1.0  0.78443  0.58284  0.05786  1.0000
  N   N86       1.0  0.80425  0.51578  0.95114  1.0000
  C   C832      1.0  0.77153  0.61064  0.06503  1.0000
  H   H1345     1.0  0.01878  0.68412  0.85544  1.0000
  C   C833      1.0  0.79215  0.55796  0.07058  1.0000
  H   H1346     1.0  0.77718  0.51288  0.92667  1.0000
  S   S322      1.0  0.72878  0.57466  0.97196  1.0000
  S   S323      1.0  0.73959  0.50006  0.00561  1.0000
  H   H1347     1.0  0.82729  0.51229  0.92455  1.0000
  N   N87       1.0  0.71915  0.50970  0.06463  1.0000
  H   H1348     1.0  0.77794  0.55175  0.93858  1.0000
  C   C834      1.0  0.80574  0.53296  0.97003  1.0000
  C   C835      1.0  0.04112  0.42406  0.83170  1.0000
  H   H1349     1.0  0.81965  0.70678  0.90962  1.0000
  C   C836      1.0  0.79753  0.68174  0.96187  1.0000
  S   S324      1.0  0.85599  0.43945  0.00172  1.0000
  H   H1350     1.0  0.79127  0.67479  0.97641  1.0000
  C   C837      1.0  0.80491  0.71402  0.95804  1.0000
  H   H1351     1.0  0.80721  0.55959  0.96799  1.0000
  H   H1352     1.0  0.76093  0.51856  0.94998  1.0000
  H   H1353     1.0  0.04262  0.51764  0.82606  1.0000
  H   H1354     1.0  0.77687  0.70333  0.06439  1.0000
  C   C838      1.0  0.81956  0.48552  0.01295  1.0000
  C   C839      1.0  0.80081  0.43579  0.00024  1.0000
  H   H1355     1.0  0.74708  0.47727  0.05021  1.0000
  C   C840      1.0  0.82766  0.52484  0.93894  1.0000
  H   H1356     1.0  0.83687  0.49957  0.01736  1.0000
  H   H1357     1.0  0.84699  0.51843  0.94629  1.0000
  C   C841      1.0  0.77898  0.52509  0.94110  1.0000
  H   H1358     1.0  0.82782  0.55146  0.93612  1.0000
  H   H1359     1.0  0.80187  0.53642  0.06478  1.0000
  H   H1360     1.0  0.78742  0.52844  0.97898  1.0000
  C   C842      1.0  0.81275  0.72311  0.93914  1.0000
  H   H1361     1.0  0.82365  0.52515  0.97866  1.0000
  C   C843      1.0  0.82322  0.45417  0.00557  1.0000
  H   H1362     1.0  0.72540  0.56089  0.06084  1.0000
  N   N88       1.0  0.97335  0.41239  0.91402  1.0000
  H   H1363     1.0  0.76152  0.50140  0.06933  1.0000
  C   C844      1.0  0.03878  0.44380  0.84825  1.0000
  C   C845      1.0  0.81372  0.69987  0.92424  1.0000
  H   H1364     1.0  0.97144  0.41770  0.88272  1.0000
  C   C846      1.0  0.99172  0.44030  0.91568  1.0000
  C   C847      1.0  0.03937  0.47756  0.84620  1.0000
  H   H1365     1.0  0.81680  0.70861  0.04286  1.0000
  H   H1366     1.0  0.99085  0.45131  0.93054  1.0000
  H   H1367     1.0  0.98656  0.45953  0.90489  1.0000
  C   C848      1.0  0.82661  0.72271  0.05475  1.0000
  H   H1368     1.0  0.80353  0.41137  0.99477  1.0000
  C   C849      1.0  0.01924  0.67823  0.82413  1.0000
  H   H1369     1.0  0.84884  0.71966  0.05303  1.0000
  S   S325      1.0  0.01641  0.63589  0.82518  1.0000
  C   C850      1.0  0.04232  0.49156  0.82760  1.0000
  H   H1370     1.0  0.93097  0.40224  0.91687  1.0000
  H   H1371     1.0  0.81349  0.66238  0.06567  1.0000
  C   C851      1.0  0.71883  0.54327  0.07220  1.0000
  C   C852      1.0  0.78519  0.91742  0.18332  1.0000
  S   S326      1.0  0.80906  0.85753  0.18467  1.0000
  Fe  Fe162     1.0  0.77679  0.02797  0.15956  1.0000
  S   S327      1.0  0.74723  0.99523  0.14497  1.0000
  C   C853      1.0  0.83379  0.91698  0.18642  1.0000
  C   C854      1.0  0.93237  0.89239  0.29546  1.0000
  S   S328      1.0  0.76755  0.99973  0.08995  1.0000
  Fe  Fe163     1.0  0.84420  0.83536  0.16841  1.0000
  H   H1372     1.0  0.82050  0.90743  0.14720  1.0000
  H   H1373     1.0  0.76657  0.96445  0.18019  1.0000
  C   C855      1.0  0.78536  0.95133  0.18177  1.0000
  C   C856      1.0  0.80976  0.96812  0.18244  1.0000
  C   C857      1.0  0.80945  0.90012  0.18525  1.0000
  H   H1374     1.0  0.84812  0.91030  0.13040  1.0000
  H   H1375     1.0  0.76630  0.90451  0.18253  1.0000
  H   H1376     1.0  0.96385  0.84007  0.28872  1.0000
  S   S329      1.0  0.78826  0.05390  0.13205  1.0000
  S   S330      1.0  0.81059  0.01026  0.17865  1.0000
  H   H1377     1.0  0.83937  0.96784  0.12539  1.0000
  S   S331      1.0  0.74602  0.06510  0.16862  1.0000
  H   H1378     1.0  0.77542  0.92679  0.13820  1.0000
  C   C858      1.0  0.82601  0.90618  0.13151  1.0000
  H   H1379     1.0  0.82208  0.88104  0.12647  1.0000
  H   H1380     1.0  0.81355  0.90184  0.09356  1.0000
  H   H1381     1.0  0.81170  0.96663  0.14230  1.0000
  H   H1382     1.0  0.90902  0.73898  0.16104  1.0000
  Fe  Fe164     1.0  0.75605  0.02401  0.11813  1.0000
  Fe  Fe165     1.0  0.86492  0.77416  0.14837  1.0000
  S   S332      1.0  0.04871  0.76740  0.26714  1.0000
  C   C859      1.0  0.96134  0.84759  0.30427  1.0000
  H   H1383     1.0  0.97972  0.83954  0.31228  1.0000
  S   S333      1.0  0.86955  0.79345  0.17890  1.0000
  S   S334      1.0  0.01700  0.77581  0.30918  1.0000
  S   S335      1.0  0.02548  0.83928  0.28063  1.0000
  Fe  Fe166     1.0  0.90416  0.82159  0.16636  1.0000
  H   H1384     1.0  0.80655  0.94424  0.08983  1.0000
  S   S336      1.0  0.94600  0.82466  0.17918  1.0000
  Fe  Fe167     1.0  0.87280  0.83973  0.12955  1.0000
  H   H1385     1.0  0.76920  0.94203  0.11402  1.0000
  S   S337      1.0  0.86983  0.86703  0.10130  1.0000
  S   S338      1.0  0.83603  0.81297  0.13909  1.0000
  H   H1386     1.0  0.77585  0.89964  0.11766  1.0000
  H   H1387     1.0  0.85254  0.90385  0.18832  1.0000
  Fe  Fe168     1.0  0.03585  0.82498  0.31128  1.0000
  S   S339      1.0  0.87915  0.86506  0.15816  1.0000
  S   S340      1.0  0.90133  0.79933  0.13652  1.0000
  H   H1388     1.0  0.83987  0.93074  0.09664  1.0000
  H   H1389     1.0  0.93384  0.88578  0.27968  1.0000
  H   H1390     1.0  0.00318  0.80516  0.23620  1.0000
  H   H1391     1.0  0.98304  0.89440  0.28177  1.0000
  H   H1392     1.0  0.97835  0.92685  0.29910  1.0000
  H   H1393     1.0  0.88489  0.79977  0.09519  1.0000
  C   C860      1.0  0.86712  0.84124  0.08100  1.0000
  C   C861      1.0  0.87625  0.80912  0.08185  1.0000
  H   H1394     1.0  0.91432  0.87998  0.30152  1.0000
  C   C862      1.0  0.83393  0.95093  0.18513  1.0000
  C   C863      1.0  0.96188  0.79247  0.24209  1.0000
  C   C864      1.0  0.93565  0.79119  0.23450  1.0000
  C   C865      1.0  0.93042  0.80155  0.21532  1.0000
  C   C866      1.0  0.95150  0.81281  0.20357  1.0000
  C   C867      1.0  0.97772  0.81403  0.21118  1.0000
  C   C868      1.0  0.98291  0.80404  0.23043  1.0000
  H   H1395     1.0  0.91930  0.78251  0.24356  1.0000
  C   C869      1.0  0.81738  0.96307  0.12672  1.0000
  H   H1396     1.0  0.99408  0.82285  0.20217  1.0000
  H   H1397     1.0  0.91010  0.80108  0.20971  1.0000
  H   H1398     1.0  0.80655  0.98184  0.11811  1.0000
  S   S341      1.0  0.72306  0.06045  0.12326  1.0000
  N   N89       1.0  0.81067  0.93011  0.11994  1.0000
  C   C870      1.0  0.78148  0.92439  0.12256  1.0000
  H   H1399     1.0  0.85286  0.96377  0.18576  1.0000
  H   H1400     1.0  0.92573  0.75997  0.18044  1.0000
  S   S342      1.0  0.96790  0.77924  0.26611  1.0000
  C   C871      1.0  0.81792  0.92666  0.09905  1.0000
  Fe  Fe169     1.0  0.00958  0.78881  0.27782  1.0000
  H   H1401     1.0  0.99954  0.89307  0.30502  1.0000
  C   C872      1.0  0.92425  0.73625  0.17283  1.0000
  N   N90       1.0  0.95713  0.88297  0.30608  1.0000
  C   C873      1.0  0.98047  0.90011  0.29758  1.0000
  H   H1402     1.0  0.78231  0.74331  0.07394  1.0000
  H   H1403     1.0  0.92866  0.91897  0.29637  1.0000
  H   H1404     1.0  0.82718  0.75786  0.08773  1.0000
  H   H1405     1.0  0.94405  0.83380  0.31035  1.0000
  C   C874      1.0  0.71993  0.02044  0.07366  1.0000
  H   H1406     1.0  0.89202  0.74088  0.20462  1.0000
  Fe  Fe170     1.0  0.83287  0.06583  0.51132  1.0000
  C   C875      1.0  0.77710  0.89430  0.49189  1.0000
  H   H1407     1.0  0.77545  0.73890  0.51730  1.0000
  S   S343      1.0  0.75704  0.80994  0.51956  1.0000
  H   H1408     1.0  0.82724  0.87793  0.56548  1.0000
  C   C876      1.0  0.78864  0.93546  0.54346  1.0000
  Fe  Fe171     1.0  0.74673  0.77920  0.49364  1.0000
  Fe  Fe172     1.0  0.04015  0.03524  0.35984  1.0000
  C   C877      1.0  0.93540  0.02001  0.46399  1.0000
  C   C878      1.0  0.77784  0.87947  0.54935  1.0000
  C   C879      1.0  0.76007  0.94800  0.49947  1.0000
  C   C880      1.0  0.75678  0.91434  0.49953  1.0000
  H   H1409     1.0  0.74434  0.96354  0.50534  1.0000
  C   C881      1.0  0.72445  0.77412  0.43490  1.0000
  H   H1410     1.0  0.87193  0.73934  0.48200  1.0000
  H   H1411     1.0  0.78311  0.87313  0.53396  1.0000
  C   C882      1.0  0.78398  0.96161  0.49230  1.0000
  H   H1412     1.0  0.77461  0.86830  0.49182  1.0000
  H   H1413     1.0  0.74165  0.77760  0.44513  1.0000
  H   H1414     1.0  0.99445  0.06382  0.43799  1.0000
  H   H1415     1.0  0.78653  0.98752  0.49260  1.0000
  S   S344      1.0  0.72954  0.76723  0.56453  1.0000
  C   C883      1.0  0.02560  0.91743  0.35195  1.0000
  H   H1416     1.0  0.82946  0.89259  0.54079  1.0000
  H   H1417     1.0  0.97273  0.88489  0.33535  1.0000
  H   H1418     1.0  0.83526  0.91966  0.56092  1.0000
  H   H1419     1.0  0.95142  0.91835  0.32892  1.0000
  C   C884      1.0  0.03256  0.95035  0.35175  1.0000
  C   C885      1.0  0.82738  0.00750  0.57182  1.0000
  H   H1420     1.0  0.76665  0.94084  0.54212  1.0000
  Fe  Fe173     1.0  0.72511  0.84375  0.50837  1.0000
  C   C886      1.0  0.94709  0.04702  0.47279  1.0000
  N   N91       1.0  0.79368  0.90739  0.55634  1.0000
  C   C887      1.0  0.82272  0.89901  0.55588  1.0000
  H   H1421     1.0  0.83233  0.98218  0.56981  1.0000
  H   H1422     1.0  0.87468  0.06242  0.42125  1.0000
  Fe  Fe174     1.0  0.84124  0.01088  0.48297  1.0000
  S   S345      1.0  0.83508  0.95795  0.47667  1.0000
  S   S346      1.0  0.86261  0.02457  0.51067  1.0000
  H   H1423     1.0  0.82100  0.01665  0.54108  1.0000
  S   S347      1.0  0.99639  0.04862  0.36301  1.0000
  H   H1424     1.0  0.02519  0.96637  0.36315  1.0000
  H   H1425     1.0  0.75576  0.88483  0.54957  1.0000
  C   C888      1.0  0.82129  0.02703  0.55560  1.0000
  C   C889      1.0  0.04896  0.96240  0.33681  1.0000
  C   C890      1.0  0.89535  0.06406  0.41489  1.0000
  H   H1426     1.0  0.87488  0.04175  0.55287  1.0000
  C   C891      1.0  0.97811  0.05146  0.44527  1.0000
  H   H1427     1.0  0.93699  0.87927  0.33391  1.0000
  S   S348      1.0  0.77638  0.75007  0.47575  1.0000
  C   C892      1.0  0.96544  0.02532  0.43610  1.0000
  H   H1428     1.0  0.79653  0.93081  0.52847  1.0000
  C   C893      1.0  0.80090  0.90797  0.48453  1.0000
  S   S349      1.0  0.04666  0.02493  0.39162  1.0000
  C   C894      1.0  0.03489  0.89649  0.33718  1.0000
  S   S350      1.0  0.02478  0.85572  0.33738  1.0000
  C   C895      1.0  0.80449  0.94162  0.48490  1.0000
  Fe  Fe175     1.0  0.00392  0.04237  0.39517  1.0000
  H   H1429     1.0  0.81670  0.89247  0.47872  1.0000
  H   H1430     1.0  0.93491  0.98871  0.43881  1.0000
  H   H1431     1.0  0.01290  0.90821  0.36354  1.0000
  S   S351      1.0  0.97330  0.01380  0.41201  1.0000
  S   S352      1.0  0.86829  0.03991  0.46337  1.0000
  C   C896      1.0  0.94457  0.00916  0.44573  1.0000
  H   H1432     1.0  0.79864  0.95769  0.54888  1.0000
  H   H1433     1.0  0.91900  0.00757  0.47117  1.0000
  H   H1434     1.0  0.90823  0.04573  0.42241  1.0000
  Fe  Fe176     1.0  0.72245  0.78485  0.53401  1.0000
  H   H1435     1.0  0.78126  0.85758  0.55852  1.0000
  H   H1436     1.0  0.90684  0.02601  0.56060  1.0000
  S   S353      1.0  0.72824  0.89782  0.51078  1.0000
  C   C897      1.0  0.95435  0.89178  0.32696  1.0000
  S   S354      1.0  0.80937  0.04974  0.48516  1.0000
  S   S355      1.0  0.93202  0.06397  0.49375  1.0000
  Fe  Fe177     1.0  0.88727  0.05651  0.49128  1.0000
  C   C898      1.0  0.96899  0.06224  0.46369  1.0000
  C   C899      1.0  0.89129  0.04489  0.56374  1.0000
  H   H1437     1.0  0.89417  0.05680  0.39925  1.0000
  C   C900      1.0  0.81630  0.06019  0.55820  1.0000
  H   H1438     1.0  0.73161  0.78042  0.41997  1.0000
  H   H1439     1.0  0.92945  0.06547  0.53883  1.0000
  S   S356      1.0  0.71823  0.81571  0.48069  1.0000
  C   C901      1.0  0.81238  0.97460  0.69366  1.0000
  S   S357      1.0  0.77169  0.80737  0.70150  1.0000
  Fe  Fe178     1.0  0.76619  0.85216  0.65205  1.0000
  C   C902      1.0  0.73690  0.85501  0.59001  1.0000
  S   S358      1.0  0.76071  0.87778  0.62334  1.0000
  C   C903      1.0  0.95716  0.95340  0.78464  1.0000
  H   H1440     1.0  0.94904  0.95295  0.76947  1.0000
  Fe  Fe179     1.0  0.77863  0.85995  0.69504  1.0000
  C   C904      1.0  0.75980  0.79324  0.59374  1.0000
  S   S359      1.0  0.75778  0.79909  0.65497  1.0000
  C   C905      1.0  0.74438  0.88034  0.76732  1.0000
  S   S360      1.0  0.02764  0.06473  0.79118  1.0000
  C   C906      1.0  0.79025  0.99042  0.72380  1.0000
  H   H1441     1.0  0.76200  0.97796  0.67423  1.0000
  H   H1442     1.0  0.77460  0.95159  0.74133  1.0000
  C   C907      1.0  0.82269  0.05412  0.59304  1.0000
  C   C908      1.0  0.76679  0.81787  0.60683  1.0000
  C   C909      1.0  0.75469  0.84843  0.60538  1.0000
  C   C910      1.0  0.76413  0.99424  0.66137  1.0000
  H   H1443     1.0  0.99057  0.98100  0.75854  1.0000
  H   H1444     1.0  0.95125  0.01347  0.76919  1.0000
  H   H1445     1.0  0.75006  0.85852  0.77593  1.0000
  H   H1446     1.0  0.97112  0.03384  0.78713  1.0000
  C   C911      1.0  0.95872  0.01186  0.78452  1.0000
  H   H1447     1.0  0.01008  0.95847  0.77618  1.0000
  Fe  Fe180     1.0  0.79465  0.79839  0.67371  1.0000
  C   C912      1.0  0.79004  0.95438  0.64329  1.0000
  H   H1448     1.0  0.72982  0.90989  0.73362  1.0000
  H   H1449     1.0  0.74150  0.90089  0.77768  1.0000
  C   C913      1.0  0.74145  0.95564  0.64074  1.0000
  C   C914      1.0  0.72457  0.84720  0.74212  1.0000
  H   H1450     1.0  0.93964  0.95348  0.79487  1.0000
  H   H1451     1.0  0.01103  0.00171  0.77602  1.0000
  H   H1452     1.0  0.78619  0.01349  0.62737  1.0000
  H   H1453     1.0  0.75013  0.01468  0.62543  1.0000
  N   N92       1.0  0.76590  0.97562  0.64291  1.0000
  H   H1454     1.0  0.78154  0.81313  0.61810  1.0000
  S   S361      1.0  0.78548  0.89317  0.72052  1.0000
  H   H1455     1.0  0.76883  0.76943  0.59515  1.0000
  S   S362      1.0  0.80936  0.04028  0.70194  1.0000
  N   N93       1.0  0.71984  0.87469  0.75561  1.0000
  H   H1456     1.0  0.74661  0.01121  0.66144  1.0000
  H   H1457     1.0  0.02925  0.73922  0.79156  1.0000
  H   H1458     1.0  0.80888  0.96866  0.64501  1.0000
  H   H1459     1.0  0.79211  0.94012  0.62953  1.0000
  H   H1460     1.0  0.78382  0.00911  0.73395  1.0000
  C   C915      1.0  0.78496  0.95788  0.72794  1.0000
  H   H1461     1.0  0.78252  0.00904  0.66378  1.0000
  Fe  Fe181     1.0  0.73546  0.81309  0.68224  1.0000
  H   H1462     1.0  0.94091  0.01344  0.79441  1.0000
  H   H1463     1.0  0.78910  0.93674  0.65556  1.0000
  H   H1464     1.0  0.99788  0.00280  0.81102  1.0000
  H   H1465     1.0  0.74134  0.85227  0.73174  1.0000
  C   C916      1.0  0.79275  0.93362  0.71476  1.0000
  H   H1466     1.0  0.72277  0.97070  0.64132  1.0000
  C   C917      1.0  0.98478  0.98155  0.80810  1.0000
  C   C918      1.0  0.82848  0.02121  0.59051  1.0000
  S   S363      1.0  0.86624  0.01939  0.66379  1.0000
  H   H1467     1.0  0.78945  0.89501  0.58668  1.0000
  H   H1468     1.0  0.96807  0.98220  0.81899  1.0000
  S   S364      1.0  0.83879  0.99790  0.61053  1.0000
  S   S365      1.0  0.74068  0.86640  0.67780  1.0000
  C   C919      1.0  0.80639  0.94194  0.69754  1.0000
  H   H1469     1.0  0.81295  0.92315  0.68753  1.0000
  H   H1470     1.0  0.96855  0.93038  0.78700  1.0000
  H   H1471     1.0  0.74009  0.93707  0.65250  1.0000
  C   C920      1.0  0.80400  0.99895  0.70670  1.0000
  S   S366      1.0  0.82719  0.76061  0.66975  1.0000
  N   N94       1.0  0.97453  0.98187  0.78782  1.0000
  Fe  Fe182     1.0  0.84830  0.03266  0.63486  1.0000
  H   H1472     1.0  0.76963  0.98490  0.61209  1.0000
  S   S367      1.0  0.80492  0.85080  0.66885  1.0000
  H   H1473     1.0  0.82325  0.98093  0.68054  1.0000
  C   C921      1.0  0.99750  0.98064  0.77400  1.0000
  H   H1474     1.0  0.79695  0.93678  0.58224  1.0000
  S   S368      1.0  0.04095  0.78515  0.82150  1.0000
  H   H1475     1.0  0.76191  0.88633  0.75780  1.0000
  H   H1476     1.0  0.74152  0.94242  0.62656  1.0000
  C   C922      1.0  0.76793  0.99817  0.62622  1.0000
  S   S369      1.0  0.04369  0.04979  0.74535  1.0000
  C   C923      1.0  0.97806  0.06101  0.71681  1.0000
  H   H1477     1.0  0.99708  0.95940  0.81106  1.0000
  H   H1478     1.0  0.74103  0.74690  0.62557  1.0000
  H   H1479     1.0  0.98456  0.04811  0.68654  1.0000
  Fe  Fe183     1.0  0.83504  0.05333  0.67606  1.0000
  S   S370      1.0  0.81500  0.06309  0.64744  1.0000
  H   H1480     1.0  0.72749  0.87864  0.58882  1.0000
  H   H1481     1.0  0.72978  0.82460  0.75012  1.0000
  H   H1482     1.0  0.88263  0.03983  0.57847  1.0000
  C   C924      1.0  0.74107  0.79932  0.57893  1.0000
  H   H1483     1.0  0.82369  0.06510  0.60731  1.0000
  C   C925      1.0  0.73018  0.83046  0.57670  1.0000
  C   C926      1.0  0.78557  0.91561  0.57657  1.0000
  H   H1484     1.0  0.76366  0.92154  0.57748  1.0000
  C   C927      1.0  0.94399  0.06519  0.69137  1.0000
  C   C928      1.0  0.97024  0.05717  0.69723  1.0000
  H   H1485     1.0  0.99836  0.05503  0.72109  1.0000
  S   S371      1.0  0.93562  0.06333  0.66644  1.0000
  Fe  Fe184     1.0  0.89090  0.06444  0.66032  1.0000
  H   H1486     1.0  0.94102  0.06300  0.57435  1.0000
  C   C929      1.0  0.03002  0.74489  0.82285  1.0000
  H   H1487     1.0  0.72662  0.73568  0.60251  1.0000
  S   S372      1.0  0.79520  0.02992  0.95396  1.0000
  C   C930      1.0  0.85428  0.83318  0.04714  1.0000
  Fe  Fe185     1.0  0.04066  0.87895  0.86709  1.0000
  C   C931      1.0  0.79152  0.99129  0.96412  1.0000
  H   H1488     1.0  0.77579  0.00896  0.99142  1.0000
  Fe  Fe186     1.0  0.76813  0.06609  0.96909  1.0000
  C   C932      1.0  0.74645  0.00982  0.07044  1.0000
  C   C933      1.0  0.78153  0.98787  0.98310  1.0000
  H   H1489     1.0  0.80696  0.96632  0.93873  1.0000
  H   H1490     1.0  0.03112  0.79106  0.95422  1.0000
  C   C934      1.0  0.87530  0.78945  0.06511  1.0000
  C   C935      1.0  0.79769  0.93292  0.96203  1.0000
  H   H1491     1.0  0.72551  0.91515  0.98715  1.0000
  H   H1492     1.0  0.84845  0.87779  0.06304  1.0000
  H   H1493     1.0  0.03757  0.84441  0.93875  1.0000
  H   H1494     1.0  0.74966  0.01931  0.02126  1.0000
  C   C936      1.0  0.77980  0.95716  0.99161  1.0000
  H   H1495     1.0  0.80357  0.91171  0.95374  1.0000
  C   C937      1.0  0.85381  0.95708  0.99401  1.0000
  H   H1496     1.0  0.91175  0.77057  0.93513  1.0000
  C   C938      1.0  0.79947  0.96377  0.95352  1.0000
  H   H1497     1.0  0.87185  0.77644  0.87995  1.0000
  H   H1498     1.0  0.93057  0.76220  0.89294  1.0000
  H   H1499     1.0  0.77735  0.00049  0.04892  1.0000
  H   H1500     1.0  0.73142  0.92862  0.01163  1.0000
  H   H1501     1.0  0.89411  0.82300  0.92355  1.0000
  Fe  Fe187     1.0  0.02632  0.82072  0.89198  1.0000
  H   H1502     1.0  0.83712  0.97319  0.98908  1.0000
  S   S373      1.0  0.00308  0.79743  0.91654  1.0000
  C   C939      1.0  0.92008  0.78508  0.89720  1.0000
  C   C940      1.0  0.86954  0.94806  0.96099  1.0000
  S   S374      1.0  0.01030  0.83925  0.86340  1.0000
  C   C941      1.0  0.87590  0.76168  0.89322  1.0000
  Fe  Fe188     1.0  0.87356  0.84759  0.96619  1.0000
  S   S375      1.0  0.83292  0.84933  0.95199  1.0000
  S   S376      1.0  0.90611  0.87787  0.95233  1.0000
  Fe  Fe189     1.0  0.85355  0.80453  0.99922  1.0000
  S   S377      1.0  0.81139  0.80212  0.98752  1.0000
  S   S378      1.0  0.86471  0.77722  0.02655  1.0000
  Fe  Fe190     1.0  0.83169  0.79606  0.95838  1.0000
  S   S379      1.0  0.78498  0.89156  0.99207  1.0000
  Fe  Fe191     1.0  0.81649  0.85542  0.98230  1.0000
  C   C942      1.0  0.04269  0.94591  0.83882  1.0000
  S   S380      1.0  0.87367  0.79380  0.97039  1.0000
  S   S381      1.0  0.85734  0.85840  0.99607  1.0000
  H   H1503     1.0  0.85908  0.96430  0.00919  1.0000
  H   H1504     1.0  0.86094  0.92320  0.96139  1.0000
  H   H1505     1.0  0.90404  0.99559  0.96962  1.0000
  H   H1506     1.0  0.84488  0.84225  0.03406  1.0000
  C   C943      1.0  0.86467  0.80163  0.04763  1.0000
  H   H1507     1.0  0.87009  0.00937  0.97409  1.0000
  H   H1508     1.0  0.84569  0.93200  0.99462  1.0000
  H   H1509     1.0  0.93391  0.79853  0.90701  1.0000
  H   H1510     1.0  0.88339  0.76507  0.06558  1.0000
  S   S382      1.0  0.82113  0.76327  0.93335  1.0000
  C   C944      1.0  0.97776  0.82122  0.92744  1.0000
  C   C945      1.0  0.96238  0.80807  0.94266  1.0000
  C   C946      1.0  0.94067  0.82564  0.95066  1.0000
  C   C947      1.0  0.93442  0.85649  0.94356  1.0000
  C   C948      1.0  0.95033  0.87003  0.92873  1.0000
  C   C949      1.0  0.97193  0.85235  0.92059  1.0000
  H   H1511     1.0  0.96693  0.78402  0.94804  1.0000
  H   H1512     1.0  0.92885  0.81534  0.96237  1.0000
  H   H1513     1.0  0.94558  0.89394  0.92320  1.0000
  H   H1514     1.0  0.98374  0.86260  0.90882  1.0000
  N   N95       1.0  0.89395  0.77874  0.90691  1.0000
  C   C950      1.0  0.75689  0.00888  0.05146  1.0000
  H   H1515     1.0  0.88718  0.94722  0.95088  1.0000
  H   H1516     1.0  0.90598  0.94616  0.00304  1.0000
  S   S383      1.0  0.72334  0.06119  0.96610  1.0000
  H   H1517     1.0  0.91748  0.79998  0.88379  1.0000
  C   C951      1.0  0.74129  0.01986  0.03578  1.0000
  H   H1518     1.0  0.85417  0.96438  0.95438  1.0000
  N   N96       1.0  0.87732  0.95917  0.98072  1.0000
  H   H1519     1.0  0.04352  0.80654  0.97700  1.0000
  C   C952      1.0  0.85593  0.85314  0.06368  1.0000
  H   H1520     1.0  0.04707  0.89874  0.82565  1.0000
  H   H1521     1.0  0.04004  0.99596  0.84759  1.0000
  H   H1522     1.0  0.87810  0.82609  0.90015  1.0000
  C   C953      1.0  0.78777  0.92964  0.98108  1.0000
  C   C954      1.0  0.88643  0.99314  0.97965  1.0000
  H   H1523     1.0  0.89250  0.00237  0.99428  1.0000
  C   C955      1.0  0.89945  0.93849  0.98820  1.0000
  H   H1524     1.0  0.89319  0.91273  0.98917  1.0000
  H   H1525     1.0  0.91737  0.93902  0.97834  1.0000
  H   H1526     1.0  0.77293  0.95488  0.00657  1.0000
  C   C956      1.0  0.88136  0.80981  0.91287  1.0000
  H   H1527     1.0  0.72085  0.97083  0.97527  1.0000
  C   C957      1.0  0.04490  0.97936  0.83581  1.0000
  H   H1528     1.0  0.86143  0.80599  0.91997  1.0000
  S   S384      1.0  0.03091  0.93147  0.86143  1.0000
  H   H1529     1.0  0.04964  0.86022  0.96155  1.0000
  H   H1530     1.0  0.87905  0.75297  0.93199  1.0000
  H   H1531     1.0  0.72711  0.98613  0.99933  1.0000
  H   H1532     1.0  0.02824  0.74309  0.85429  1.0000
  H   H1533     1.0  0.85604  0.75641  0.90017  1.0000
  C   C958      1.0  0.89842  0.75836  0.92438  1.0000
  Fe  Fe192     1.0  0.04506  0.81179  0.85006  1.0000
  H   H1534     1.0  0.82198  0.74877  0.05212  1.0000
  H   H1535     1.0  0.88477  0.73812  0.88843  1.0000
  H   H1536     1.0  0.90800  0.73477  0.92048  1.0000
  C   C959      1.0  0.04916  0.92455  0.82358  1.0000
  C   C960      1.0  0.04979  0.79524  0.96291  1.0000
