data_image0
_chemical_formula_structural       FeS2HFeS3HFeHSFeHSCHS2CH2FeHCHSHSFeHFeH2CHS2H3C4H2C2H3C2SHFeSHCH2C3H4NSFeHC2H2C6H3SH4NHC2SCSH2NH2CSCSHC5H5CHFeHNC6S2HCHSFeH4C2FeCH4C2H2FeHCH3SH2CFeH2CSFeH2SH5CHC2H4SC4H2CH5S2CSHNHSFeHCSHC6H2CHFeC5H2CHFeHS2NFeH2Fe2S2HCSH2CSHC4H2C2H4C2H3SFeC2H3CHFeH2CH2CHC2HFeCS2HCHCHCNH6CH2S3C2H3NC3H9CHSH2NH5SHC4HC2FeHCSH4CSCHCFeH2FeHCSHNH8SCH2SHCSH2NH2FeC2H4SHCHCHC2HCNHC4H2CH2SH2C2HNH2SHCH3SCHCNSFeC2HCHSH2SH3CHCFeHC3H5C3H2C2H2CSH3SCFeSHC2HSCNH4CH6C2HNCH3FeSHCH2SHC2HCH3CH3CH4S2HSH4SH2SNHSC3HC4SC2FeCFeSH4C2HS3H2CSCHC2HNH5FeHFeCFeCH3CHSCH5CNFeCHCHCH4CSCHCHFeHCSFeHNHCH2CSHCH4CHCHC2H2SCHCH3CH2CHFeSHC2NCHCSCH2FeHC3HCFeHC2H2C3H5CHCH2C2SHSH2CSH2CH2SCHCNH2FeHC3HCSHC4SNCSCSNCH4CH5SHCH4CFeH6CHCH2CHCH2NSH5CH3C2HC2HC2SCNHCHSCHCHSH2SHSHFeHFeCHCH4FeSHSHFeC3HC2FeCSH3SC2FeNH2C2SCHFeHCHCH2CFeSHCFeHFeSH2C2HFeHSH2S2FeS2HSCHCH2SH4CH3CSCFeH3SC3HCFeH2NCFeH2C2H3SCHCSNH2CH2CH2CH4CHSCHCHFeCHC2NH8SNHFeCH2CH2CH2FeH2CHCHC2HSH2C3NCSC2FeHCSH3FeSC2H2SCSHCH4SNHC2HC2HCFeHCHC5H2SCHCFeH2NHSH5FeSHSCH4C2H2CH3S2HSC2HCH2FeCH2C5H2NH2C2H2SCH4SHCFeC5HCH2C3H4FeH3SH2SHCH4CHCSCH2CHSHC4NCHC2SCH3CH5CNC3FeNH5SH2FeS2HS2C2SCFeCHCH2CHSH4CH3SH4CH2CH2NC2NHFeH2C2H5FeC3H2CH3SHFeS2CSH2CHC6H2NHCHS2CSH2SH4CH2FeH4C2HCH2C3H2Fe2SHCHFeH3CH2C2H2CSHCH6CFeCH2S3HCH3CHCH8NC2HNHSH2CHC2FeH2S3H3CSH2CHSH2FeCHFeHNCH2FeC2H2C6HSHC2HC2SHCSH2N2HC2HCH3C2H2C2H3C2HCHSFeCH2CH3CSCHCH2FeCHC3H2CNCH2SCHC5HCH2CSH2CH3FeHC4NH2SC2HS2H7CH3SC4HCH2CHCH3CFeCSHSH2SH3C2HCH5FeSFeSCFeSHSH2CH4SCHFeNSHC2HS2H5NFeH2CHFeCFeCFeH2SH2CH3CS2CH2SH2CHNHCSH2CH2C2HCNC3HC4HCHCHFe2H5SHCSCH5CHSHFeSHSHSH3FeSH4SHCH2CHC7HSNH2CHCH2C2HSHC3H2NS2HFeC2NC4H8NSH2CHSFeCH2SCHC2FeH3C3H2FeH3SHCH3FeCH3CHC2H2CH2SH2FeHCHFeS2H2C2HSCH2CFeSCHCH2FeH3SNC2SCHSH2NCSHSNHCSCH6C6H7CFeHCNC2HCH2SHCH4FeCH2CFeH2FeHCH3FeHCHSHSHCHC5HC2FeHSFeC2SH3C3H3C2H2CHCHS2HSH3SHCSC6SCHC2NH9SC2H3FeCH4FeHCSHSH3FeCH3S2FeH2SFeH5FeSNH5CHC2SHC3H2SC2SC3HC2HCH3SH6CHSFeC2H2NH2CHCHC2HSC2H2SHSHCSFeH4SCHSCHCFeNC2HFeH3SH2SHSH2CH2SHCSHC
_chemical_formula_sum              "Fe128 S256 H1024 C640 N64"
_cell_length_a       42.0794
_cell_length_b       43.4154
_cell_length_c       44.4821
_cell_angle_alpha    90.0674
_cell_angle_beta     87.3611
_cell_angle_gamma    88.7063

_space_group_name_H-M_alt    "P 1"
_space_group_IT_number       1

loop_
  _space_group_symop_operation_xyz
  'x, y, z'

loop_
  _atom_site_type_symbol
  _atom_site_label
  _atom_site_symmetry_multiplicity
  _atom_site_fract_x
  _atom_site_fract_y
  _atom_site_fract_z
  _atom_site_occupancy
  Fe  Fe1       1.0  0.32620  0.32008  0.19374  1.0000
  S   S1        1.0  0.29227  0.32498  0.23388  1.0000
  S   S2        1.0  0.31907  0.28658  0.15583  1.0000
  H   H1        1.0  0.40737  0.27411  0.30309  1.0000
  Fe  Fe2       1.0  0.57766  0.45555  0.11239  1.0000
  S   S3        1.0  0.34413  0.31127  0.30479  1.0000
  S   S4        1.0  0.54400  0.53782  0.30394  1.0000
  S   S5        1.0  0.36981  0.32373  0.22073  1.0000
  H   H2        1.0  0.19449  0.31480  0.13128  1.0000
  Fe  Fe3       1.0  0.16527  0.19225  0.13780  1.0000
  H   H3        1.0  0.58057  0.09871  0.23086  1.0000
  S   S6        1.0  0.19460  0.20902  0.17539  1.0000
  Fe  Fe4       1.0  0.15130  0.13961  0.09582  1.0000
  H   H4        1.0  0.25188  0.35910  0.17433  1.0000
  S   S7        1.0  0.58682  0.39329  0.31908  1.0000
  C   C1        1.0  0.59517  0.11955  0.28508  1.0000
  H   H5        1.0  0.21230  0.28675  0.15505  1.0000
  S   S8        1.0  0.17769  0.18368  0.08871  1.0000
  S   S9        1.0  0.14313  0.14614  0.14553  1.0000
  C   C2        1.0  0.24654  0.23842  0.19397  1.0000
  H   H6        1.0  0.42891  0.50215  0.08265  1.0000
  H   H7        1.0  0.28146  0.25474  0.11364  1.0000
  Fe  Fe5       1.0  0.56211  0.31357  0.29037  1.0000
  H   H8        1.0  0.44992  0.43302  0.14780  1.0000
  C   C3        1.0  0.27414  0.25572  0.19003  1.0000
  H   H9        1.0  0.18641  0.36878  0.14937  1.0000
  S   S10       1.0  0.54402  0.26668  0.28064  1.0000
  H   H10       1.0  0.48225  0.30588  0.26884  1.0000
  S   S11       1.0  0.17198  0.09474  0.07759  1.0000
  Fe  Fe6       1.0  0.33566  0.33331  0.26001  1.0000
  H   H11       1.0  0.23685  0.23398  0.21647  1.0000
  Fe  Fe7       1.0  0.28876  0.54673  0.30634  1.0000
  H   H12       1.0  0.23228  0.22412  0.12068  1.0000
  H   H13       1.0  0.55845  0.46309  0.22141  1.0000
  C   C4        1.0  0.59170  0.56888  0.10948  1.0000
  H   H14       1.0  0.25837  0.32015  0.16216  1.0000
  S   S12       1.0  0.57734  0.58980  0.26007  1.0000
  S   S13       1.0  0.56094  0.49478  0.08453  1.0000
  H   H15       1.0  0.48536  0.48728  0.09143  1.0000
  H   H16       1.0  0.28589  0.26404  0.20943  1.0000
  H   H17       1.0  0.22300  0.44366  0.30480  1.0000
  C   C5        1.0  0.23112  0.22731  0.16904  1.0000
  C   C6        1.0  0.24402  0.23272  0.14002  1.0000
  C   C7        1.0  0.27179  0.25004  0.13608  1.0000
  C   C8        1.0  0.28655  0.26203  0.16110  1.0000
  H   H18       1.0  0.59082  0.09802  0.29810  1.0000
  H   H19       1.0  0.24118  0.34774  0.13742  1.0000
  C   C9        1.0  0.19658  0.30762  0.15511  1.0000
  C   C10       1.0  0.24156  0.34021  0.16128  1.0000
  H   H20       1.0  0.42145  0.46244  0.07463  1.0000
  H   H21       1.0  0.34853  0.37750  0.31351  1.0000
  H   H22       1.0  0.17269  0.30052  0.16400  1.0000
  C   C11       1.0  0.46639  0.32273  0.28153  1.0000
  C   C12       1.0  0.42607  0.53378  0.25847  1.0000
  S   S14       1.0  0.50064  0.56176  0.22929  1.0000
  H   H23       1.0  0.45291  0.33626  0.26486  1.0000
  Fe  Fe8       1.0  0.34817  0.58125  0.28825  1.0000
  S   S15       1.0  0.33787  0.53078  0.29054  1.0000
  H   H24       1.0  0.39733  0.48301  0.10285  1.0000
  C   C13       1.0  0.58143  0.36782  0.15203  1.0000
  H   H25       1.0  0.40470  0.50052  0.21322  1.0000
  H   H26       1.0  0.46256  0.49824  0.22081  1.0000
  C   C14       1.0  0.37927  0.56258  0.15847  1.0000
  C   C15       1.0  0.36473  0.54689  0.18271  1.0000
  C   C16       1.0  0.36383  0.55986  0.21170  1.0000
  H   H27       1.0  0.29701  0.43748  0.24601  1.0000
  H   H28       1.0  0.45256  0.51670  0.13001  1.0000
  H   H29       1.0  0.35341  0.52518  0.17893  1.0000
  H   H30       1.0  0.37713  0.49744  0.24492  1.0000
  N   N1        1.0  0.44430  0.47014  0.11620  1.0000
  S   S16       1.0  0.38008  0.54681  0.12206  1.0000
  Fe  Fe9       1.0  0.52867  0.57179  0.26949  1.0000
  H   H31       1.0  0.16388  0.35490  0.18179  1.0000
  C   C17       1.0  0.46675  0.40360  0.23076  1.0000
  C   C18       1.0  0.39311  0.59103  0.16337  1.0000
  H   H32       1.0  0.52509  0.50032  0.13894  1.0000
  H   H33       1.0  0.41812  0.46101  0.28516  1.0000
  C   C19       1.0  0.24678  0.43801  0.23889  1.0000
  C   C20       1.0  0.21821  0.45499  0.24245  1.0000
  C   C21       1.0  0.21745  0.48339  0.25751  1.0000
  C   C22       1.0  0.24520  0.49473  0.26924  1.0000
  C   C23       1.0  0.27393  0.47819  0.26483  1.0000
  C   C24       1.0  0.27477  0.45002  0.24937  1.0000
  H   H34       1.0  0.19651  0.44590  0.23423  1.0000
  H   H35       1.0  0.19519  0.49618  0.26085  1.0000
  H   H36       1.0  0.29533  0.48663  0.27393  1.0000
  S   S17       1.0  0.55173  0.35652  0.26444  1.0000
  H   H37       1.0  0.18786  0.31509  0.21472  1.0000
  H   H38       1.0  0.35173  0.54818  0.23008  1.0000
  H   H39       1.0  0.58246  0.54607  0.11142  1.0000
  H   H40       1.0  0.26048  0.39963  0.29004  1.0000
  N   N2        1.0  0.42617  0.49983  0.25616  1.0000
  H   H41       1.0  0.58552  0.53606  0.16865  1.0000
  C   C25       1.0  0.45751  0.48888  0.24374  1.0000
  C   C26       1.0  0.51454  0.52776  0.17852  1.0000
  S   S18       1.0  0.55983  0.44634  0.15954  1.0000
  C   C27       1.0  0.43800  0.40213  0.28867  1.0000
  S   S19       1.0  0.57221  0.42006  0.07689  1.0000
  H   H42       1.0  0.50182  0.54557  0.16663  1.0000
  H   H43       1.0  0.47694  0.49601  0.25821  1.0000
  N   N3        1.0  0.20947  0.33239  0.17350  1.0000
  H   H44       1.0  0.53676  0.50890  0.24875  1.0000
  H   H45       1.0  0.22093  0.33987  0.21951  1.0000
  C   C28       1.0  0.44480  0.49427  0.13965  1.0000
  S   S20       1.0  0.33353  0.38437  0.25380  1.0000
  C   C29       1.0  0.42203  0.47977  0.09304  1.0000
  S   S21       1.0  0.24635  0.40071  0.22386  1.0000
  H   H46       1.0  0.39404  0.39899  0.26658  1.0000
  C   C30       1.0  0.47101  0.40431  0.28510  1.0000
  C   C31       1.0  0.51802  0.53040  0.20952  1.0000
  C   C32       1.0  0.47657  0.46564  0.10202  1.0000
  C   C33       1.0  0.26810  0.39958  0.31366  1.0000
  C   C34       1.0  0.56752  0.21678  0.31093  1.0000
  H   H47       1.0  0.19739  0.37904  0.18647  1.0000
  H   H48       1.0  0.43022  0.54476  0.23605  1.0000
  H   H49       1.0  0.57173  0.12881  0.27819  1.0000
  H   H50       1.0  0.45872  0.46345  0.24209  1.0000
  H   H51       1.0  0.46116  0.48772  0.15764  1.0000
  C   C35       1.0  0.54354  0.47881  0.17831  1.0000
  H   H52       1.0  0.44503  0.54182  0.27305  1.0000
  Fe  Fe10      1.0  0.29352  0.37543  0.22380  1.0000
  H   H53       1.0  0.47977  0.27214  0.31313  1.0000
  N   N4        1.0  0.44473  0.30712  0.30341  1.0000
  C   C36       1.0  0.18828  0.35996  0.17271  1.0000
  C   C37       1.0  0.21152  0.32169  0.20490  1.0000
  C   C38       1.0  0.43372  0.44095  0.13010  1.0000
  C   C39       1.0  0.41945  0.40023  0.26342  1.0000
  C   C40       1.0  0.40124  0.49020  0.23598  1.0000
  C   C41       1.0  0.53435  0.50731  0.22482  1.0000
  S   S22       1.0  0.41008  0.40101  0.20280  1.0000
  S   S23       1.0  0.32484  0.37036  0.18194  1.0000
  H   H54       1.0  0.56560  0.37602  0.17133  1.0000
  C   C42       1.0  0.43367  0.40117  0.23440  1.0000
  H   H55       1.0  0.57354  0.34462  0.14536  1.0000
  S   S24       1.0  0.11893  0.21674  0.12963  1.0000
  Fe  Fe11      1.0  0.36527  0.37459  0.21284  1.0000
  H   H56       1.0  0.47794  0.40468  0.20839  1.0000
  H   H57       1.0  0.40127  0.46469  0.23318  1.0000
  H   H58       1.0  0.40298  0.54303  0.26809  1.0000
  H   H59       1.0  0.42066  0.49842  0.15047  1.0000
  C   C43       1.0  0.42018  0.48637  0.28634  1.0000
  C   C44       1.0  0.52778  0.50218  0.16282  1.0000
  Fe  Fe12      1.0  0.53835  0.37659  0.30978  1.0000
  C   C45       1.0  0.48541  0.40512  0.25611  1.0000
  H   H60       1.0  0.42668  0.40195  0.31103  1.0000
  H   H61       1.0  0.22769  0.30117  0.20633  1.0000
  H   H62       1.0  0.51082  0.40788  0.25314  1.0000
  H   H63       1.0  0.49401  0.45793  0.11870  1.0000
  C   C46       1.0  0.54650  0.48126  0.20934  1.0000
  C   C47       1.0  0.42445  0.33034  0.31993  1.0000
  H   H64       1.0  0.43297  0.42216  0.11312  1.0000
  H   H65       1.0  0.39762  0.49546  0.29733  1.0000
  Fe  Fe13      1.0  0.38862  0.58528  0.08930  1.0000
  H   H66       1.0  0.57732  0.38382  0.13302  1.0000
  C   C48       1.0  0.57417  0.24078  0.29076  1.0000
  H   H67       1.0  0.40977  0.29857  0.27087  1.0000
  H   H68       1.0  0.43975  0.49120  0.30153  1.0000
  H   H69       1.0  0.58444  0.43670  0.26644  1.0000
  S   S25       1.0  0.49379  0.40525  0.31711  1.0000
  H   H70       1.0  0.43883  0.26797  0.27466  1.0000
  H   H71       1.0  0.47694  0.44792  0.08385  1.0000
  C   C49       1.0  0.42439  0.28593  0.28728  1.0000
  Fe  Fe14      1.0  0.59177  0.55904  0.29743  1.0000
  H   H72       1.0  0.48199  0.33896  0.29300  1.0000
  H   H73       1.0  0.55701  0.58819  0.14173  1.0000
  C   C50       1.0  0.37836  0.58800  0.21664  1.0000
  S   S26       1.0  0.24258  0.52789  0.29175  1.0000
  Fe  Fe15      1.0  0.12908  0.20402  0.08121  1.0000
  H   H74       1.0  0.40946  0.44349  0.14110  1.0000
  H   H75       1.0  0.27622  0.37565  0.31884  1.0000
  S   S27       1.0  0.10374  0.15940  0.08451  1.0000
  H   H76       1.0  0.58904  0.54312  0.20805  1.0000
  H   H77       1.0  0.40914  0.34345  0.30443  1.0000
  H   H78       1.0  0.28911  0.41466  0.31451  1.0000
  H   H79       1.0  0.58544  0.49036  0.28508  1.0000
  H   H80       1.0  0.20587  0.39027  0.30896  1.0000
  C   C51       1.0  0.59231  0.19757  0.32064  1.0000
  H   H81       1.0  0.54339  0.21360  0.31964  1.0000
  C   C52       1.0  0.33568  0.58947  0.41840  1.0000
  C   C53       1.0  0.51759  0.18368  0.55521  1.0000
  H   H82       1.0  0.59724  0.27495  0.39780  1.0000
  H   H83       1.0  0.15660  0.56649  0.52784  1.0000
  H   H84       1.0  0.58716  0.17961  0.33672  1.0000
  H   H85       1.0  0.32723  0.29723  0.36625  1.0000
  S   S28       1.0  0.59642  0.12054  0.36321  1.0000
  C   C54       1.0  0.59241  0.44809  0.37758  1.0000
  C   C55       1.0  0.32910  0.32198  0.36434  1.0000
  C   C56       1.0  0.19773  0.36692  0.51667  1.0000
  C   C57       1.0  0.47443  0.37262  0.55731  1.0000
  H   H86       1.0  0.47889  0.30488  0.33780  1.0000
  H   H87       1.0  0.46249  0.31959  0.53071  1.0000
  C   C58       1.0  0.32199  0.34072  0.38960  1.0000
  H   H88       1.0  0.56534  0.48407  0.42138  1.0000
  H   H89       1.0  0.22325  0.39218  0.56943  1.0000
  H   H90       1.0  0.44661  0.58754  0.41726  1.0000
  H   H91       1.0  0.36522  0.56027  0.44513  1.0000
  H   H92       1.0  0.41700  0.54148  0.32635  1.0000
  S   S29       1.0  0.58100  0.13608  0.45007  1.0000
  S   S30       1.0  0.30055  0.32355  0.47431  1.0000
  C   C59       1.0  0.17457  0.33110  0.55263  1.0000
  S   S31       1.0  0.38391  0.28504  0.48793  1.0000
  H   H93       1.0  0.55272  0.12869  0.50953  1.0000
  N   N5        1.0  0.56855  0.47323  0.37413  1.0000
  H   H94       1.0  0.47790  0.34516  0.50242  1.0000
  S   S32       1.0  0.54115  0.26778  0.52830  1.0000
  Fe  Fe16      1.0  0.56096  0.31444  0.53546  1.0000
  H   H95       1.0  0.58799  0.20555  0.39385  1.0000
  C   C60       1.0  0.39803  0.28238  0.54774  1.0000
  S   S33       1.0  0.54592  0.35115  0.50328  1.0000
  H   H96       1.0  0.40825  0.58258  0.40199  1.0000
  C   C61       1.0  0.56777  0.34831  0.46899  1.0000
  C   C62       1.0  0.40747  0.27492  0.51800  1.0000
  C   C63       1.0  0.43692  0.26013  0.51181  1.0000
  C   C64       1.0  0.45760  0.25427  0.53501  1.0000
  C   C65       1.0  0.55084  0.10727  0.49749  1.0000
  C   C66       1.0  0.46368  0.28946  0.32493  1.0000
  H   H97       1.0  0.44409  0.25396  0.48887  1.0000
  H   H98       1.0  0.48029  0.24312  0.52984  1.0000
  C   C67       1.0  0.58500  0.50198  0.36593  1.0000
  H   H99       1.0  0.37498  0.29301  0.55276  1.0000
  Fe  Fe17      1.0  0.34738  0.32290  0.49651  1.0000
  C   C68       1.0  0.14487  0.34589  0.55059  1.0000
  C   C69       1.0  0.54985  0.47782  0.40280  1.0000
  C   C70       1.0  0.33755  0.33520  0.33651  1.0000
  C   C71       1.0  0.56136  0.10509  0.46725  1.0000
  C   C72       1.0  0.21454  0.38996  0.33226  1.0000
  H   H100      1.0  0.34161  0.57702  0.39783  1.0000
  H   H101      1.0  0.57681  0.20502  0.46317  1.0000
  C   C73       1.0  0.25296  0.40903  0.36593  1.0000
  H   H102      1.0  0.31452  0.33029  0.41069  1.0000
  Fe  Fe18      1.0  0.28144  0.34428  0.51797  1.0000
  H   H103      1.0  0.21379  0.45153  0.34376  1.0000
  S   S34       1.0  0.23877  0.32670  0.54427  1.0000
  S   S35       1.0  0.32759  0.33983  0.54127  1.0000
  N   N6        1.0  0.24205  0.41021  0.33487  1.0000
  Fe  Fe19      1.0  0.53413  0.57619  0.33683  1.0000
  H   H104      1.0  0.35702  0.50744  0.42765  1.0000
  H   H105      1.0  0.55556  0.24133  0.46506  1.0000
  Fe  Fe20      1.0  0.34935  0.53480  0.33898  1.0000
  Fe  Fe21      1.0  0.59506  0.34682  0.33926  1.0000
  S   S36       1.0  0.37934  0.50157  0.36448  1.0000
  S   S37       1.0  0.51183  0.56244  0.38135  1.0000
  H   H106      1.0  0.26024  0.38517  0.37228  1.0000
  C   C74       1.0  0.41895  0.36020  0.55560  1.0000
  S   S38       1.0  0.29934  0.54579  0.35525  1.0000
  H   H107      1.0  0.56819  0.28225  0.42788  1.0000
  H   H108      1.0  0.52842  0.48346  0.34722  1.0000
  C   C75       1.0  0.30296  0.44462  0.56977  1.0000
  S   S39       1.0  0.36395  0.58385  0.33549  1.0000
  H   H109      1.0  0.56134  0.36453  0.39454  1.0000
  C   C76       1.0  0.45967  0.54948  0.34965  1.0000
  C   C77       1.0  0.42984  0.53661  0.34630  1.0000
  C   C78       1.0  0.41689  0.51720  0.36850  1.0000
  C   C79       1.0  0.45666  0.34045  0.51740  1.0000
  H   H110      1.0  0.46957  0.56430  0.33230  1.0000
  H   H111      1.0  0.43898  0.34723  0.33182  1.0000
  C   C80       1.0  0.32341  0.37276  0.38716  1.0000
  C   C81       1.0  0.14156  0.37161  0.53209  1.0000
  H   H112      1.0  0.12450  0.33728  0.56328  1.0000
  H   H113      1.0  0.43683  0.33460  0.50279  1.0000
  H   H114      1.0  0.50807  0.17661  0.53337  1.0000
  H   H115      1.0  0.44809  0.27696  0.34148  1.0000
  C   C82       1.0  0.34050  0.36717  0.33442  1.0000
  C   C83       1.0  0.15665  0.59118  0.53106  1.0000
  H   H116      1.0  0.22098  0.36564  0.33772  1.0000
  H   H117      1.0  0.19435  0.39734  0.34786  1.0000
  H   H118      1.0  0.33506  0.41070  0.35778  1.0000
  S   S40       1.0  0.35846  0.58379  0.50526  1.0000
  Fe  Fe22      1.0  0.31234  0.37226  0.46190  1.0000
  C   C84       1.0  0.47599  0.54404  0.37586  1.0000
  C   C85       1.0  0.33320  0.38594  0.35964  1.0000
  H   H119      1.0  0.29343  0.42365  0.56119  1.0000
  H   H120      1.0  0.45742  0.16445  0.56051  1.0000
  H   H121      1.0  0.23403  0.41694  0.38263  1.0000
  C   C86       1.0  0.44877  0.26285  0.56458  1.0000
  H   H122      1.0  0.39887  0.35485  0.54117  1.0000
  Fe  Fe23      1.0  0.58713  0.24953  0.54534  1.0000
  H   H123      1.0  0.58091  0.42574  0.38289  1.0000
  H   H124      1.0  0.21819  0.37532  0.50386  1.0000
  C   C87       1.0  0.54689  0.46507  0.35025  1.0000
  H   H125      1.0  0.53416  0.44339  0.35565  1.0000
  H   H126      1.0  0.49695  0.37750  0.54421  1.0000
  C   C88       1.0  0.57168  0.35637  0.41495  1.0000
  H   H127      1.0  0.55971  0.25611  0.39802  1.0000
  C   C89       1.0  0.43367  0.51096  0.39431  1.0000
  C   C90       1.0  0.20121  0.34210  0.53640  1.0000
  H   H128      1.0  0.47549  0.52071  0.41861  1.0000
  Fe  Fe24      1.0  0.33643  0.38697  0.52306  1.0000
  C   C91       1.0  0.55459  0.35942  0.44265  1.0000
  S   S41       1.0  0.36163  0.42372  0.54729  1.0000
  S   S42       1.0  0.28866  0.39326  0.50354  1.0000
  H   H129      1.0  0.54382  0.17978  0.55351  1.0000
  C   C92       1.0  0.46299  0.52481  0.39823  1.0000
  H   H130      1.0  0.16525  0.40138  0.49988  1.0000
  C   C93       1.0  0.44243  0.39461  0.51872  1.0000
  H   H131      1.0  0.35465  0.43981  0.44577  1.0000
  C   C94       1.0  0.36164  0.45733  0.46244  1.0000
  N   N7        1.0  0.44812  0.36698  0.53725  1.0000
  H   H132      1.0  0.38517  0.46615  0.45449  1.0000
  H   H133      1.0  0.36478  0.44525  0.48420  1.0000
  H   H134      1.0  0.46413  0.40054  0.50485  1.0000
  H   H135      1.0  0.29871  0.45202  0.46018  1.0000
  H   H136      1.0  0.32980  0.52443  0.49123  1.0000
  H   H137      1.0  0.56004  0.46144  0.32822  1.0000
  C   C95       1.0  0.56703  0.22410  0.44928  1.0000
  H   H138      1.0  0.53099  0.36990  0.44361  1.0000
  H   H139      1.0  0.10329  0.48706  0.51506  1.0000
  S   S43       1.0  0.31051  0.39665  0.41748  1.0000
  S   S44       1.0  0.10546  0.39267  0.53282  1.0000
  S   S45       1.0  0.36067  0.36983  0.48045  1.0000
  C   C96       1.0  0.16781  0.38163  0.51445  1.0000
  C   C97       1.0  0.33565  0.44993  0.56651  1.0000
  H   H140      1.0  0.42288  0.39093  0.50319  1.0000
  H   H141      1.0  0.51317  0.20891  0.55791  1.0000
  H   H142      1.0  0.42366  0.49602  0.41155  1.0000
  N   N8        1.0  0.33753  0.48255  0.46571  1.0000
  C   C98       1.0  0.33410  0.49781  0.43630  1.0000
  C   C99       1.0  0.34759  0.50516  0.48806  1.0000
  C   C100      1.0  0.30671  0.46977  0.47613  1.0000
  H   H143      1.0  0.31629  0.51719  0.43784  1.0000
  H   H144      1.0  0.32649  0.48134  0.41893  1.0000
  H   H145      1.0  0.37067  0.51559  0.48103  1.0000
  H   H146      1.0  0.35051  0.49437  0.51051  1.0000
  H   H147      1.0  0.30844  0.45874  0.49861  1.0000
  H   H148      1.0  0.43534  0.41495  0.53300  1.0000
  H   H149      1.0  0.28781  0.48810  0.47828  1.0000
  H   H150      1.0  0.50017  0.12449  0.55561  1.0000
  H   H151      1.0  0.56782  0.52170  0.36417  1.0000
  C   C101      1.0  0.59819  0.33469  0.46776  1.0000
  H   H152      1.0  0.59623  0.10036  0.55572  1.0000
  S   S46       1.0  0.54476  0.33248  0.33506  1.0000
  H   H153      1.0  0.53170  0.49675  0.40089  1.0000
  H   H154      1.0  0.53705  0.45657  0.40960  1.0000
  N   N9        1.0  0.59229  0.23808  0.42989  1.0000
  H   H155      1.0  0.41116  0.38013  0.57013  1.0000
  H   H156      1.0  0.17709  0.31154  0.56747  1.0000
  H   H157      1.0  0.54818  0.21416  0.43571  1.0000
  H   H158      1.0  0.27384  0.42394  0.36861  1.0000
  H   H159      1.0  0.40812  0.31937  0.33698  1.0000
  S   S47       1.0  0.27580  0.57977  0.54444  1.0000
  H   H160      1.0  0.25309  0.45800  0.32798  1.0000
  C   C102      1.0  0.57869  0.26393  0.41266  1.0000
  C   C103      1.0  0.34897  0.57988  0.44520  1.0000
  C   C104      1.0  0.23257  0.44222  0.32759  1.0000
  C   C105      1.0  0.41855  0.27599  0.57109  1.0000
  H   H161      1.0  0.42273  0.34008  0.57056  1.0000
  C   C106      1.0  0.23862  0.39847  0.62631  1.0000
  C   C107      1.0  0.29472  0.49396  0.59520  1.0000
  Fe  Fe25      1.0  0.10807  0.58527  0.78619  1.0000
  H   H162      1.0  0.25199  0.51504  0.71486  1.0000
  C   C108      1.0  0.10568  0.38112  0.70875  1.0000
  S   S48       1.0  0.16022  0.58492  0.79551  1.0000
  H   H163      1.0  0.25720  0.46310  0.58591  1.0000
  H   H164      1.0  0.17121  0.36134  0.61011  1.0000
  H   H165      1.0  0.50553  0.16466  0.62887  1.0000
  H   H166      1.0  0.31098  0.51095  0.70850  1.0000
  C   C109      1.0  0.12478  0.25723  0.81512  1.0000
  S   S49       1.0  0.11375  0.40751  0.67983  1.0000
  C   C110      1.0  0.11757  0.38583  0.73719  1.0000
  H   H167      1.0  0.11529  0.37239  0.78367  1.0000
  C   C111      1.0  0.13061  0.50932  0.79991  1.0000
  Fe  Fe26      1.0  0.28413  0.56815  0.59256  1.0000
  H   H168      1.0  0.33304  0.54343  0.69515  1.0000
  H   H169      1.0  0.28584  0.54401  0.74920  1.0000
  Fe  Fe27      1.0  0.58836  0.29680  0.59475  1.0000
  H   H170      1.0  0.17220  0.28602  0.78505  1.0000
  C   C112      1.0  0.10708  0.36769  0.76155  1.0000
  S   S50       1.0  0.56909  0.24912  0.59351  1.0000
  H   H171      1.0  0.25004  0.52655  0.67615  1.0000
  N   N10       1.0  0.20604  0.39616  0.61553  1.0000
  H   H172      1.0  0.17279  0.48155  0.80661  1.0000
  H   H173      1.0  0.16074  0.27590  0.74784  1.0000
  H   H174      1.0  0.21178  0.34812  0.60415  1.0000
  H   H175      1.0  0.23976  0.39096  0.65015  1.0000
  H   H176      1.0  0.54218  0.17364  0.60892  1.0000
  H   H177      1.0  0.53593  0.12825  0.57577  1.0000
  H   H178      1.0  0.41139  0.28215  0.59403  1.0000
  H   H179      1.0  0.15919  0.41504  0.62616  1.0000
  S   S51       1.0  0.26899  0.52241  0.61143  1.0000
  C   C113      1.0  0.28536  0.56333  0.73284  1.0000
  H   H180      1.0  0.30904  0.52286  0.66984  1.0000
  H   H181      1.0  0.51077  0.20229  0.61288  1.0000
  S   S52       1.0  0.54200  0.31920  0.58311  1.0000
  H   H182      1.0  0.19565  0.35562  0.64167  1.0000
  C   C114      1.0  0.20581  0.40602  0.58376  1.0000
  S   S53       1.0  0.59631  0.10223  0.62145  1.0000
  H   H183      1.0  0.26511  0.57913  0.73965  1.0000
  H   H184      1.0  0.39102  0.57274  0.68554  1.0000
  N   N11       1.0  0.28268  0.55205  0.70170  1.0000
  H   H185      1.0  0.13393  0.40423  0.74069  1.0000
  H   H186      1.0  0.25583  0.38371  0.61259  1.0000
  Fe  Fe28      1.0  0.52500  0.27135  0.57677  1.0000
  C   C115      1.0  0.18394  0.41619  0.63396  1.0000
  C   C116      1.0  0.25276  0.53519  0.69947  1.0000
  H   H187      1.0  0.13475  0.29933  0.77190  1.0000
  H   H188      1.0  0.45606  0.15934  0.60070  1.0000
  H   H189      1.0  0.18303  0.40913  0.65804  1.0000
  H   H190      1.0  0.33722  0.51932  0.60176  1.0000
  S   S54       1.0  0.47584  0.25855  0.59321  1.0000
  H   H191      1.0  0.30759  0.57633  0.73522  1.0000
  C   C117      1.0  0.14767  0.48478  0.81237  1.0000
  H   H192      1.0  0.28118  0.57056  0.65713  1.0000
  C   C118      1.0  0.16002  0.22551  0.78326  1.0000
  H   H193      1.0  0.24714  0.42254  0.62488  1.0000
  C   C119      1.0  0.28251  0.46667  0.58414  1.0000
  C   C120      1.0  0.31010  0.53135  0.69345  1.0000
  H   H194      1.0  0.14242  0.52438  0.78392  1.0000
  C   C121      1.0  0.19575  0.36390  0.61801  1.0000
  N   N12       1.0  0.13652  0.25137  0.78378  1.0000
  H   H195      1.0  0.23167  0.55038  0.70535  1.0000
  C   C122      1.0  0.28247  0.57844  0.68083  1.0000
  C   C123      1.0  0.15178  0.27933  0.77156  1.0000
  C   C124      1.0  0.51589  0.17723  0.60911  1.0000
  C   C125      1.0  0.32745  0.49881  0.59253  1.0000
  H   H196      1.0  0.18076  0.23088  0.79685  1.0000
  H   H197      1.0  0.14946  0.20415  0.79288  1.0000
  C   C126      1.0  0.10953  0.24339  0.76534  1.0000
  H   H198      1.0  0.16922  0.22012  0.75997  1.0000
  H   H199      1.0  0.10614  0.27576  0.81636  1.0000
  S   S55       1.0  0.33495  0.58257  0.59110  1.0000
  H   H200      1.0  0.19102  0.44072  0.63289  1.0000
  H   H201      1.0  0.46168  0.19681  0.58483  1.0000
  C   C127      1.0  0.50986  0.13327  0.57677  1.0000
  C   C128      1.0  0.46797  0.17196  0.58174  1.0000
  H   H202      1.0  0.21210  0.43062  0.58111  1.0000
  N   N13       1.0  0.50283  0.16655  0.58072  1.0000
  H   H203      1.0  0.11748  0.23877  0.74153  1.0000
  H   H204      1.0  0.49931  0.11965  0.59575  1.0000
  S   S56       1.0  0.37875  0.57922  0.74963  1.0000
  H   H205      1.0  0.37314  0.48096  0.57603  1.0000
  C   C129      1.0  0.34786  0.47686  0.57823  1.0000
  H   H206      1.0  0.18193  0.40320  0.57445  1.0000
  H   H207      1.0  0.47922  0.35217  0.57165  1.0000
  H   H208      1.0  0.46889  0.39257  0.57253  1.0000
  S   S57       1.0  0.12976  0.13300  0.91893  1.0000
  C   C130      1.0  0.10647  0.18699  0.00698  1.0000
  H   H209      1.0  0.16673  0.33896  0.99003  1.0000
  C   C131      1.0  0.17036  0.25717  0.88503  1.0000
  N   N14       1.0  0.19718  0.10994  0.98910  1.0000
  S   S58       1.0  0.15418  0.43342  0.84674  1.0000
  Fe  Fe29      1.0  0.13082  0.13293  0.86860  1.0000
  C   C132      1.0  0.18321  0.55438  0.86971  1.0000
  C   C133      1.0  0.19542  0.21515  0.85606  1.0000
  H   H210      1.0  0.44565  0.56658  0.95490  1.0000
  C   C134      1.0  0.16797  0.19786  0.86032  1.0000
  H   H211      1.0  0.23921  0.13117  0.00450  1.0000
  S   S59       1.0  0.14255  0.34739  0.83551  1.0000
  H   H212      1.0  0.21809  0.25791  0.86544  1.0000
  H   H213      1.0  0.20897  0.56835  0.92213  1.0000
  S   S60       1.0  0.17199  0.29469  0.89913  1.0000
  H   H214      1.0  0.22348  0.51755  0.89923  1.0000
  H   H215      1.0  0.12054  0.19667  0.88083  1.0000
  H   H216      1.0  0.42742  0.57092  0.88970  1.0000
  C   C135      1.0  0.19677  0.24461  0.86872  1.0000
  H   H217      1.0  0.21574  0.20570  0.84307  1.0000
  C   C136      1.0  0.23187  0.57539  0.84820  1.0000
  Fe  Fe30      1.0  0.13470  0.32622  0.88088  1.0000
  H   H218      1.0  0.14429  0.26465  0.82930  1.0000
  C   C137      1.0  0.14285  0.23988  0.88945  1.0000
  C   C138      1.0  0.14183  0.20999  0.87744  1.0000
  C   C139      1.0  0.16229  0.11352  0.99376  1.0000
  H   H219      1.0  0.46532  0.58063  0.90370  1.0000
  H   H220      1.0  0.41067  0.58519  0.97153  1.0000
  H   H221      1.0  0.12547  0.17540  0.01837  1.0000
  H   H222      1.0  0.13394  0.35856  0.97301  1.0000
  H   H223      1.0  0.20540  0.15695  0.00139  1.0000
  C   C140      1.0  0.13216  0.46390  0.83161  1.0000
  C   C141      1.0  0.09957  0.46781  0.83865  1.0000
  C   C142      1.0  0.14686  0.28150  0.98109  1.0000
  H   H224      1.0  0.11385  0.30345  0.93552  1.0000
  H   H225      1.0  0.10391  0.09816  0.06850  1.0000
  C   C143      1.0  0.21284  0.13307  0.00746  1.0000
  C   C144      1.0  0.10282  0.30773  0.95837  1.0000
  H   H226      1.0  0.23223  0.51447  0.85944  1.0000
  H   H227      1.0  0.20664  0.13004  0.03190  1.0000
  C   C145      1.0  0.14793  0.33650  0.97347  1.0000
  S   S61       1.0  0.31276  0.57481  0.88982  1.0000
  H   H228      1.0  0.12243  0.24945  0.90220  1.0000
  H   H229      1.0  0.24509  0.58388  0.90607  1.0000
  H   H230      1.0  0.53526  0.56822  0.00671  1.0000
  S   S62       1.0  0.16619  0.16169  0.84308  1.0000
  C   C146      1.0  0.47104  0.50591  0.01732  1.0000
  Fe  Fe31      1.0  0.12583  0.39144  0.85810  1.0000
  S   S63       1.0  0.11621  0.23634  0.04402  1.0000
  H   H231      1.0  0.23013  0.56143  0.82739  1.0000
  C   C147      1.0  0.51729  0.55095  0.00979  1.0000
  C   C148      1.0  0.46190  0.53694  0.01438  1.0000
  H   H232      1.0  0.13186  0.26098  0.98442  1.0000
  S   S64       1.0  0.38613  0.58073  0.03915  1.0000
  C   C149      1.0  0.42195  0.57673  0.94984  1.0000
  N   N15       1.0  0.21715  0.55975  0.87470  1.0000
  H   H233      1.0  0.43697  0.54327  0.01457  1.0000
  H   H234      1.0  0.15384  0.13649  0.98608  1.0000
  H   H235      1.0  0.18025  0.53974  0.84949  1.0000
  H   H236      1.0  0.16403  0.28151  0.99938  1.0000
  C   C150      1.0  0.52644  0.52004  0.01376  1.0000
  H   H237      1.0  0.16019  0.33348  0.95090  1.0000
  H   H238      1.0  0.19466  0.09752  0.94248  1.0000
  H   H239      1.0  0.33093  0.55301  0.94776  1.0000
  H   H240      1.0  0.55142  0.51358  0.01376  1.0000
  H   H241      1.0  0.12937  0.31729  0.02874  1.0000
  H   H242      1.0  0.40710  0.55784  0.94163  1.0000
  C   C151      1.0  0.32403  0.57711  0.94985  1.0000
  C   C152      1.0  0.48501  0.55945  0.01056  1.0000
  H   H243      1.0  0.45317  0.48848  0.02007  1.0000
  N   N16       1.0  0.12731  0.31023  0.98100  1.0000
  C   C153      1.0  0.50331  0.49752  0.01735  1.0000
  H   H244      1.0  0.33544  0.58009  0.99652  1.0000
  H   H245      1.0  0.23232  0.11208  0.95249  1.0000
  H   H246      1.0  0.16069  0.27801  0.95940  1.0000
  Fe  Fe32      1.0  0.55982  0.45991  0.04773  1.0000
  S   S65       1.0  0.51466  0.45916  0.02342  1.0000
  H   H247      1.0  0.17139  0.54257  0.88925  1.0000
  C   C154      1.0  0.23382  0.52990  0.87929  1.0000
  H   H248      1.0  0.16988  0.57648  0.86634  1.0000
  H   H249      1.0  0.25955  0.53313  0.88307  1.0000
  S   S66       1.0  0.12219  0.37082  0.90426  1.0000
  H   H250      1.0  0.15470  0.11119  0.01790  1.0000
  C   C155      1.0  0.20615  0.11462  0.95692  1.0000
  C   C156      1.0  0.21979  0.57935  0.90166  1.0000
  H   H251      1.0  0.25752  0.57967  0.85126  1.0000
  C   C157      1.0  0.11163  0.31526  0.01109  1.0000
  H   H252      1.0  0.19869  0.13796  0.94916  1.0000
  H   H253      1.0  0.14962  0.09576  0.98117  1.0000
  H   H254      1.0  0.11423  0.23629  0.82554  1.0000
  C   C158      1.0  0.44102  0.58986  0.89956  1.0000
  H   H255      1.0  0.49913  0.83527  0.17002  1.0000
  H   H256      1.0  0.54768  0.65361  0.21003  1.0000
  H   H257      1.0  0.49631  0.78265  0.15278  1.0000
  C   C159      1.0  0.39527  0.75128  0.11429  1.0000
  H   H258      1.0  0.37375  0.79662  0.11224  1.0000
  H   H259      1.0  0.44232  0.77753  0.20184  1.0000
  H   H260      1.0  0.44629  0.65215  0.22301  1.0000
  H   H261      1.0  0.21223  0.79389  0.14421  1.0000
  S   S67       1.0  0.29814  0.59718  0.30042  1.0000
  S   S68       1.0  0.10934  0.88706  0.13439  1.0000
  H   H262      1.0  0.23230  0.84050  0.07576  1.0000
  S   S69       1.0  0.42204  0.69342  0.11276  1.0000
  H   H263      1.0  0.56922  0.66393  0.07707  1.0000
  H   H264      1.0  0.17823  0.08238  0.15829  1.0000
  H   H265      1.0  0.47041  0.79366  0.12353  1.0000
  H   H266      1.0  0.18945  0.84368  0.16483  1.0000
  S   S70       1.0  0.54294  0.73271  0.13301  1.0000
  H   H267      1.0  0.41922  0.75934  0.11040  1.0000
  H   H268      1.0  0.51361  0.68612  0.17778  1.0000
  S   S71       1.0  0.57050  0.65193  0.14655  1.0000
  N   N17       1.0  0.49665  0.65827  0.21473  1.0000
  H   H269      1.0  0.18176  0.81531  0.08632  1.0000
  S   S72       1.0  0.30649  0.78723  0.10989  1.0000
  C   C160      1.0  0.57021  0.82454  0.24387  1.0000
  C   C161      1.0  0.20375  0.85591  0.14709  1.0000
  C   C162      1.0  0.49813  0.68358  0.23686  1.0000
  H   H270      1.0  0.11350  0.03508  0.13062  1.0000
  C   C163      1.0  0.45552  0.79936  0.19908  1.0000
  C   C164      1.0  0.58720  0.72952  0.30610  1.0000
  C   C165      1.0  0.47362  0.83920  0.16505  1.0000
  C   C166      1.0  0.42261  0.81631  0.15889  1.0000
  S   S73       1.0  0.57050  0.67391  0.28342  1.0000
  C   C167      1.0  0.22652  0.80791  0.12787  1.0000
  C   C168      1.0  0.51741  0.81412  0.07759  1.0000
  Fe  Fe33      1.0  0.58481  0.70033  0.13532  1.0000
  C   C169      1.0  0.49519  0.83836  0.08255  1.0000
  Fe  Fe34      1.0  0.56824  0.75190  0.09228  1.0000
  S   S74       1.0  0.34449  0.86964  0.09680  1.0000
  H   H271      1.0  0.22653  0.86253  0.15682  1.0000
  H   H272      1.0  0.13184  0.07198  0.12906  1.0000
  H   H273      1.0  0.16399  0.00785  0.12171  1.0000
  H   H274      1.0  0.35450  0.68527  0.12506  1.0000
  C   C170      1.0  0.33295  0.73056  0.12207  1.0000
  C   C171      1.0  0.36949  0.77231  0.11466  1.0000
  H   H275      1.0  0.54568  0.82703  0.25203  1.0000
  S   S75       1.0  0.35971  0.62931  0.09247  1.0000
  S   S76       1.0  0.43580  0.60814  0.08760  1.0000
  S   S77       1.0  0.59361  0.78755  0.11792  1.0000
  H   H276      1.0  0.48018  0.79483  0.20635  1.0000
  H   H277      1.0  0.30889  0.72237  0.12476  1.0000
  C   C172      1.0  0.33830  0.76187  0.11716  1.0000
  S   S78       1.0  0.54772  0.79282  0.19617  1.0000
  C   C173      1.0  0.35875  0.70948  0.12175  1.0000
  H   H278      1.0  0.46369  0.85713  0.18094  1.0000
  C   C174      1.0  0.38989  0.71974  0.11701  1.0000
  C   C175      1.0  0.47093  0.78668  0.14755  1.0000
  H   H279      1.0  0.51919  0.66675  0.10787  1.0000
  N   N18       1.0  0.45566  0.81038  0.16764  1.0000
  H   H280      1.0  0.16503  0.00433  0.19061  1.0000
  H   H281      1.0  0.12763  0.02453  0.19820  1.0000
  H   H282      1.0  0.47272  0.84899  0.14201  1.0000
  H   H283      1.0  0.19050  0.87761  0.14191  1.0000
  H   H284      1.0  0.45876  0.76423  0.14974  1.0000
  Fe  Fe35      1.0  0.57170  0.76507  0.15888  1.0000
  H   H285      1.0  0.44418  0.81664  0.21491  1.0000
  Fe  Fe36      1.0  0.32680  0.82456  0.08063  1.0000
  C   C176      1.0  0.23930  0.92777  0.13060  1.0000
  Fe  Fe37      1.0  0.40693  0.65201  0.08708  1.0000
  C   C177      1.0  0.22885  0.85368  0.09718  1.0000
  H   H286      1.0  0.18575  0.96611  0.08864  1.0000
  H   H287      1.0  0.47620  0.69838  0.23730  1.0000
  H   H288      1.0  0.16348  0.81567  0.12365  1.0000
  C   C178      1.0  0.46916  0.63873  0.22265  1.0000
  H   H289      1.0  0.50143  0.85813  0.09570  1.0000
  S   S79       1.0  0.13337  0.92950  0.07657  1.0000
  C   C179      1.0  0.52632  0.63949  0.21517  1.0000
  H   H290      1.0  0.23242  0.79336  0.10767  1.0000
  H   H291      1.0  0.24940  0.81289  0.13835  1.0000
  H   H292      1.0  0.41062  0.83470  0.17300  1.0000
  H   H293      1.0  0.40814  0.79524  0.16133  1.0000
  H   H294      1.0  0.42191  0.82395  0.13497  1.0000
  C   C180      1.0  0.17588  0.02572  0.13487  1.0000
  N   N19       1.0  0.20942  0.83664  0.11987  1.0000
  Fe  Fe38      1.0  0.56356  0.62436  0.29603  1.0000
  C   C181      1.0  0.57775  0.80869  0.21696  1.0000
  H   H295      1.0  0.21749  0.87628  0.09171  1.0000
  C   C182      1.0  0.58094  0.69857  0.31252  1.0000
  H   H296      1.0  0.50466  0.69773  0.08509  1.0000
  C   C183      1.0  0.17857  0.82908  0.10743  1.0000
  H   H297      1.0  0.52922  0.62914  0.23767  1.0000
  H   H298      1.0  0.16474  0.85029  0.10198  1.0000
  H   H299      1.0  0.53679  0.61725  0.08404  1.0000
  H   H300      1.0  0.25290  0.85844  0.10530  1.0000
  C   C184      1.0  0.12544  0.05256  0.14429  1.0000
  S   S80       1.0  0.17801  0.94324  0.14948  1.0000
  C   C185      1.0  0.26434  0.92431  0.10873  1.0000
  H   H301      1.0  0.47086  0.68515  0.18286  1.0000
  C   C186      1.0  0.20739  0.95411  0.09431  1.0000
  H   H302      1.0  0.54063  0.81538  0.08683  1.0000
  Fe  Fe39      1.0  0.13300  0.93235  0.12673  1.0000
  H   H303      1.0  0.58501  0.73815  0.28343  1.0000
  C   C187      1.0  0.14409  0.01516  0.17997  1.0000
  S   S81       1.0  0.51349  0.60833  0.30299  1.0000
  Fe  Fe40      1.0  0.10613  0.88654  0.08426  1.0000
  H   H304      1.0  0.24209  0.91896  0.15308  1.0000
  N   N20       1.0  0.15387  0.03937  0.15835  1.0000
  H   H305      1.0  0.49281  0.65258  0.16706  1.0000
  C   C188      1.0  0.21049  0.94198  0.12315  1.0000
  H   H306      1.0  0.28643  0.91303  0.11441  1.0000
  H   H307      1.0  0.13177  0.99629  0.16859  1.0000
  C   C189      1.0  0.50644  0.67217  0.08712  1.0000
  S   S82       1.0  0.43664  0.86637  0.07989  1.0000
  H   H308      1.0  0.10762  0.06178  0.16146  1.0000
  C   C190      1.0  0.26090  0.93596  0.07970  1.0000
  H   H309      1.0  0.50107  0.67450  0.26001  1.0000
  H   H310      1.0  0.15412  0.07522  0.19178  1.0000
  H   H311      1.0  0.18487  0.04350  0.11884  1.0000
  H   H312      1.0  0.52655  0.62036  0.19845  1.0000
  C   C191      1.0  0.57751  0.59275  0.12694  1.0000
  H   H313      1.0  0.48179  0.66367  0.09049  1.0000
  C   C192      1.0  0.17015  0.06400  0.17420  1.0000
  H   H314      1.0  0.19157  0.05483  0.18530  1.0000
  C   C193      1.0  0.49326  0.67119  0.18429  1.0000
  C   C194      1.0  0.58960  0.62247  0.12515  1.0000
  H   H315      1.0  0.47123  0.62805  0.24524  1.0000
  H   H316      1.0  0.51889  0.69852  0.23168  1.0000
  S   S83       1.0  0.37980  0.60373  0.25294  1.0000
  C   C195      1.0  0.23261  0.95132  0.07272  1.0000
  H   H317      1.0  0.58853  0.85010  0.28063  1.0000
  C   C196      1.0  0.59450  0.83727  0.26026  1.0000
  H   H318      1.0  0.46731  0.61947  0.20629  1.0000
  H   H319      1.0  0.40370  0.62553  0.19595  1.0000
  H   H320      1.0  0.19694  0.01431  0.14477  1.0000
  C   C197      1.0  0.39298  0.60351  0.19241  1.0000
  H   H321      1.0  0.40394  0.60356  0.14484  1.0000
  H   H322      1.0  0.57728  0.97835  0.52814  1.0000
  C   C198      1.0  0.42259  0.59843  0.41535  1.0000
  H   H323      1.0  0.20729  0.59267  0.53666  1.0000
  Fe  Fe41      1.0  0.53865  0.02303  0.56205  1.0000
  S   S84       1.0  0.30174  0.62965  0.38416  1.0000
  H   H324      1.0  0.37968  0.64464  0.42184  1.0000
  C   C199      1.0  0.58305  0.96699  0.50611  1.0000
  C   C200      1.0  0.43980  0.62613  0.37073  1.0000
  N   N21       1.0  0.42461  0.62918  0.40126  1.0000
  C   C201      1.0  0.39227  0.64287  0.39928  1.0000
  H   H325      1.0  0.44604  0.67264  0.40980  1.0000
  C   C202      1.0  0.30798  0.63149  0.44500  1.0000
  S   S85       1.0  0.21990  0.65690  0.54976  1.0000
  C   C203      1.0  0.59073  0.00523  0.37712  1.0000
  H   H326      1.0  0.29237  0.65165  0.44493  1.0000
  H   H327      1.0  0.39280  0.66638  0.38939  1.0000
  Fe  Fe42      1.0  0.31304  0.59479  0.34806  1.0000
  H   H328      1.0  0.57165  0.92655  0.55092  1.0000
  C   C204      1.0  0.12818  0.64014  0.53586  1.0000
  C   C205      1.0  0.18534  0.63789  0.54057  1.0000
  C   C206      1.0  0.15682  0.65497  0.53984  1.0000
  H   H329      1.0  0.15677  0.67967  0.54316  1.0000
  C   C207      1.0  0.18531  0.60596  0.53611  1.0000
  Fe  Fe43      1.0  0.32536  0.59766  0.54414  1.0000
  H   H330      1.0  0.31450  0.63363  0.49265  1.0000
  C   C208      1.0  0.31561  0.61564  0.41816  1.0000
  C   C209      1.0  0.59202  0.94935  0.37868  1.0000
  H   H331      1.0  0.42601  0.61085  0.35629  1.0000
  H   H332      1.0  0.10623  0.65348  0.53626  1.0000
  C   C210      1.0  0.32053  0.62130  0.47200  1.0000
  C   C211      1.0  0.44387  0.64923  0.41977  1.0000
  C   C212      1.0  0.53208  0.94239  0.50746  1.0000
  H   H333      1.0  0.59546  0.69877  0.38720  1.0000
  H   H334      1.0  0.46840  0.63945  0.42179  1.0000
  H   H335      1.0  0.56471  0.07614  0.42778  1.0000
  H   H336      1.0  0.56616  0.89372  0.52726  1.0000
  H   H337      1.0  0.41138  0.59988  0.43850  1.0000
  C   C213      1.0  0.58646  0.97774  0.39314  1.0000
  H   H338      1.0  0.43300  0.65197  0.44297  1.0000
  C   C214      1.0  0.54365  0.05228  0.46594  1.0000
  H   H339      1.0  0.57540  0.98331  0.48838  1.0000
  H   H340      1.0  0.51909  0.92045  0.50594  1.0000
  C   C215      1.0  0.55746  0.07767  0.45137  1.0000
  C   C216      1.0  0.12802  0.60828  0.53140  1.0000
  S   S86       1.0  0.31031  0.64587  0.55752  1.0000
  H   H341      1.0  0.57932  0.97858  0.41679  1.0000
  S   S87       1.0  0.52020  0.02183  0.51576  1.0000
  H   H342      1.0  0.53201  0.08255  0.53612  1.0000
  H   H343      1.0  0.52334  0.95815  0.48972  1.0000
  C   C217      1.0  0.57491  0.92302  0.47447  1.0000
  S   S88       1.0  0.59037  0.03256  0.56512  1.0000
  H   H344      1.0  0.57874  0.66381  0.34698  1.0000
  H   H345      1.0  0.44154  0.64884  0.35929  1.0000
  C   C218      1.0  0.53479  0.05406  0.49661  1.0000
  H   H346      1.0  0.54052  0.03114  0.45362  1.0000
  H   H347      1.0  0.56337  0.90039  0.47201  1.0000
  S   S89       1.0  0.59053  0.91534  0.39972  1.0000
  C   C219      1.0  0.59308  0.70741  0.36459  1.0000
  H   H348      1.0  0.52499  0.95331  0.52946  1.0000
  C   C220      1.0  0.34142  0.59580  0.47200  1.0000
  N   N22       1.0  0.56692  0.93722  0.50411  1.0000
  H   H349      1.0  0.46432  0.61597  0.37146  1.0000
  H   H350      1.0  0.37726  0.62875  0.38488  1.0000
  Fe  Fe44      1.0  0.26130  0.62668  0.56199  1.0000
  H   H351      1.0  0.58630  0.02710  0.38833  1.0000
  C   C221      1.0  0.57757  0.91655  0.52823  1.0000
  C   C222      1.0  0.53864  0.08142  0.51241  1.0000
  C   C223      1.0  0.58372  0.68758  0.34183  1.0000
  H   H352      1.0  0.56664  0.93796  0.45593  1.0000
  C   C224      1.0  0.59662  0.74935  0.32884  1.0000
  S   S90       1.0  0.58324  0.59539  0.33301  1.0000
  H   H353      1.0  0.24726  0.66415  0.70045  1.0000
  C   C225      1.0  0.32097  0.84370  0.79934  1.0000
  C   C226      1.0  0.24901  0.66115  0.72445  1.0000
  C   C227      1.0  0.14778  0.64660  0.66282  1.0000
  C   C228      1.0  0.20048  0.66239  0.64661  1.0000
  S   S91       1.0  0.54046  0.97906  0.58779  1.0000
  N   N23       1.0  0.16964  0.65172  0.63644  1.0000
  C   C229      1.0  0.17470  0.62250  0.61961  1.0000
  S   S92       1.0  0.20531  0.61536  0.72080  1.0000
  C   C230      1.0  0.33801  0.64590  0.70020  1.0000
  S   S93       1.0  0.33258  0.65915  0.64104  1.0000
  N   N24       1.0  0.38432  0.73006  0.70511  1.0000
  C   C231      1.0  0.37069  0.76113  0.71177  1.0000
  H   H354      1.0  0.32277  0.66592  0.70428  1.0000
  H   H355      1.0  0.37280  0.60401  0.64253  1.0000
  H   H356      1.0  0.43357  0.99250  0.81485  1.0000
  H   H357      1.0  0.12452  0.63806  0.65586  1.0000
  C   C232      1.0  0.34785  0.62811  0.72438  1.0000
  H   H358      1.0  0.15233  0.61466  0.60992  1.0000
  H   H359      1.0  0.38665  0.71865  0.75199  1.0000
  H   H360      1.0  0.18383  0.60381  0.63423  1.0000
  H   H361      1.0  0.21212  0.64472  0.66079  1.0000
  H   H362      1.0  0.43053  0.74242  0.71932  1.0000
  S   S94       1.0  0.26473  0.61341  0.61033  1.0000
  H   H363      1.0  0.42535  0.74652  0.67987  1.0000
  C   C233      1.0  0.34674  0.63717  0.67070  1.0000
  H   H364      1.0  0.44876  0.02474  0.73814  1.0000
  H   H365      1.0  0.39468  0.01553  0.76226  1.0000
  H   H366      1.0  0.37471  0.73266  0.65798  1.0000
  H   H367      1.0  0.35105  0.70687  0.73509  1.0000
  C   C234      1.0  0.15569  0.67534  0.61674  1.0000
  Fe  Fe45      1.0  0.31499  0.62902  0.60466  1.0000
  H   H368      1.0  0.44635  0.98859  0.71899  1.0000
  H   H369      1.0  0.37560  0.77726  0.69278  1.0000
  H   H370      1.0  0.17483  0.77805  0.75437  1.0000
  H   H371      1.0  0.19248  0.62511  0.60060  1.0000
  H   H372      1.0  0.47204  0.99912  0.79718  1.0000
  H   H373      1.0  0.14308  0.66823  0.67592  1.0000
  C   C235      1.0  0.36576  0.61070  0.66534  1.0000
  H   H374      1.0  0.34444  0.76049  0.71604  1.0000
  C   C236      1.0  0.41916  0.73197  0.69978  1.0000
  H   H375      1.0  0.38109  0.77122  0.73209  1.0000
  H   H376      1.0  0.15774  0.62923  0.67836  1.0000
  C   C237      1.0  0.37031  0.71761  0.67789  1.0000
  H   H377      1.0  0.34409  0.71512  0.68105  1.0000
  C   C238      1.0  0.37716  0.70950  0.73092  1.0000
  H   H378      1.0  0.38794  0.98076  0.78351  1.0000
  H   H379      1.0  0.38774  0.68599  0.72703  1.0000
  N   N25       1.0  0.18727  0.75158  0.79306  1.0000
  S   S95       1.0  0.15697  0.65842  0.77983  1.0000
  H   H380      1.0  0.44227  0.71421  0.76278  1.0000
  H   H381      1.0  0.15497  0.71839  0.81184  1.0000
  H   H382      1.0  0.43109  0.94266  0.78848  1.0000
  H   H383      1.0  0.19748  0.68391  0.66014  1.0000
  H   H384      1.0  0.22087  0.61687  0.78240  1.0000
  C   C239      1.0  0.26816  0.68071  0.74064  1.0000
  H   H385      1.0  0.33974  0.63442  0.74695  1.0000
  H   H386      1.0  0.17217  0.68057  0.59720  1.0000
  H   H387      1.0  0.13984  0.75723  0.81305  1.0000
  C   C240      1.0  0.44208  0.71918  0.78656  1.0000
  C   C241      1.0  0.18580  0.78099  0.77646  1.0000
  H   H388      1.0  0.14216  0.73628  0.77807  1.0000
  C   C242      1.0  0.27097  0.67639  0.77158  1.0000
  C   C243      1.0  0.20600  0.72844  0.77493  1.0000
  H   H389      1.0  0.39360  0.97895  0.74337  1.0000
  C   C244      1.0  0.23416  0.63447  0.77059  1.0000
  C   C245      1.0  0.25383  0.65342  0.78654  1.0000
  S   S96       1.0  0.11318  0.61135  0.74268  1.0000
  C   C246      1.0  0.44219  0.74962  0.79676  1.0000
  N   N26       1.0  0.12047  0.99425  0.79037  1.0000
  H   H390      1.0  0.30437  0.59194  0.68219  1.0000
  C   C247      1.0  0.34200  0.89374  0.81073  1.0000
  H   H391      1.0  0.23074  0.73614  0.76987  1.0000
  S   S97       1.0  0.37657  0.65570  0.79416  1.0000
  C   C248      1.0  0.15466  0.74044  0.79919  1.0000
  H   H392      1.0  0.44041  0.02728  0.79370  1.0000
  C   C249      1.0  0.29123  0.85296  0.81198  1.0000
  H   H393      1.0  0.13298  0.66768  0.60761  1.0000
  S   S98       1.0  0.29802  0.69742  0.79139  1.0000
  H   H394      1.0  0.16341  0.98548  0.76335  1.0000
  H   H395      1.0  0.46990  0.94908  0.77197  1.0000
  S   S99       1.0  0.43663  0.77978  0.77122  1.0000
  H   H396      1.0  0.25565  0.65029  0.81055  1.0000
  S   S100      1.0  0.44247  0.86999  0.76833  1.0000
  H   H397      1.0  0.44056  0.67141  0.79919  1.0000
  Fe  Fe46      1.0  0.16413  0.61442  0.75429  1.0000
  H   H398      1.0  0.38059  0.69440  0.67197  1.0000
  Fe  Fe47      1.0  0.44632  0.82505  0.79284  1.0000
  C   C250      1.0  0.23190  0.63812  0.73954  1.0000
  H   H399      1.0  0.32460  0.82062  0.79051  1.0000
  C   C251      1.0  0.44596  0.00212  0.79438  1.0000
  H   H400      1.0  0.43744  0.94066  0.74847  1.0000
  H   H401      1.0  0.28150  0.69849  0.72906  1.0000
  H   H402      1.0  0.43041  0.70877  0.69580  1.0000
  H   H403      1.0  0.12781  0.03179  0.75945  1.0000
  Fe  Fe48      1.0  0.57555  0.05736  0.60771  1.0000
  S   S101      1.0  0.49179  0.99182  0.66137  1.0000
  H   H404      1.0  0.46520  0.93566  0.68346  1.0000
  S   S102      1.0  0.52317  0.05203  0.60205  1.0000
  H   H405      1.0  0.48013  0.90116  0.72504  1.0000
  Fe  Fe49      1.0  0.52976  0.00839  0.62848  1.0000
  C   C252      1.0  0.49484  0.92039  0.71904  1.0000
  C   C253      1.0  0.53353  0.96968  0.70226  1.0000
  C   C254      1.0  0.10818  0.01828  0.77012  1.0000
  H   H406      1.0  0.54818  0.98907  0.69626  1.0000
  C   C255      1.0  0.50565  0.96471  0.68718  1.0000
  C   C256      1.0  0.48661  0.93975  0.69529  1.0000
  Fe  Fe50      1.0  0.14830  0.62897  0.82018  1.0000
  C   C257      1.0  0.54137  0.95066  0.72649  1.0000
  S   S103      1.0  0.58113  0.01578  0.63742  1.0000
  H   H407      1.0  0.56220  0.95534  0.73898  1.0000
  H   H408      1.0  0.15187  0.95451  0.78802  1.0000
  H   H409      1.0  0.47967  0.99587  0.74137  1.0000
  S   S104      1.0  0.52886  0.90626  0.76875  1.0000
  C   C258      1.0  0.37611  0.59309  0.68965  1.0000
  C   C259      1.0  0.40158  0.99073  0.76388  1.0000
  Fe  Fe51      1.0  0.48766  0.88099  0.79068  1.0000
  N   N27       1.0  0.43625  0.98648  0.76685  1.0000
  H   H410      1.0  0.19493  0.72371  0.75321  1.0000
  H   H411      1.0  0.26195  0.59448  0.68593  1.0000
  C   C260      1.0  0.34642  0.86397  0.79898  1.0000
  C   C261      1.0  0.52154  0.92650  0.73544  1.0000
  S   S105      1.0  0.37454  0.91781  0.81349  1.0000
  C   C262      1.0  0.44106  0.69491  0.80717  1.0000
  H   H412      1.0  0.20996  0.79053  0.77223  1.0000
  Fe  Fe52      1.0  0.36694  0.60533  0.79230  1.0000
  H   H413      1.0  0.15029  0.69733  0.62903  1.0000
  C   C263      1.0  0.44404  0.95328  0.76897  1.0000
  H   H414      1.0  0.36947  0.85652  0.78957  1.0000
  C   C264      1.0  0.45346  0.99955  0.74026  1.0000
  H   H415      1.0  0.21724  0.66721  0.62711  1.0000
  H   H416      1.0  0.15659  0.02422  0.80560  1.0000
  C   C265      1.0  0.14257  0.97308  0.77323  1.0000
  Fe  Fe53      1.0  0.32681  0.66029  0.81304  1.0000
  S   S106      1.0  0.49363  0.83431  0.81177  1.0000
  H   H417      1.0  0.20781  0.70611  0.78712  1.0000
  C   C266      1.0  0.36714  0.60180  0.71921  1.0000
  Fe  Fe54      1.0  0.59115  0.99043  0.59398  1.0000
  H   H418      1.0  0.22686  0.76602  0.81813  1.0000
  Fe  Fe55      1.0  0.41834  0.88739  0.81114  1.0000
  S   S107      1.0  0.31589  0.61024  0.80799  1.0000
  H   H419      1.0  0.33428  0.76562  0.80382  1.0000
  H   H420      1.0  0.13058  0.96170  0.75454  1.0000
  C   C267      1.0  0.13755  0.00899  0.81468  1.0000
  C   C268      1.0  0.35203  0.75586  0.81919  1.0000
  H   H421      1.0  0.17127  0.79866  0.78942  1.0000
  Fe  Fe56      1.0  0.10560  0.65322  0.77206  1.0000
  H   H422      1.0  0.35676  0.73145  0.81228  1.0000
  S   S108      1.0  0.26112  0.82582  0.81672  1.0000
  H   H423      1.0  0.37463  0.76845  0.81523  1.0000
  H   H424      1.0  0.10206  0.95799  0.81859  1.0000
  S   S109      1.0  0.17252  0.64350  0.86160  1.0000
  S   S110      1.0  0.38499  0.59570  0.83818  1.0000
  Fe  Fe57      1.0  0.38964  0.64689  0.84160  1.0000
  S   S111      1.0  0.42889  0.67176  0.86321  1.0000
  S   S112      1.0  0.21588  0.80907  0.89173  1.0000
  H   H425      1.0  0.51026  0.86493  0.94780  1.0000
  S   S113      1.0  0.34030  0.65606  0.86100  1.0000
  C   C269      1.0  0.12844  0.69064  0.86331  1.0000
  H   H426      1.0  0.44543  0.77901  0.83554  1.0000
  C   C270      1.0  0.38451  0.81917  0.95209  1.0000
  H   H427      1.0  0.27964  0.77344  0.04257  1.0000
  H   H428      1.0  0.27937  0.69335  0.01246  1.0000
  S   S114      1.0  0.40651  0.65394  0.03680  1.0000
  H   H429      1.0  0.26453  0.72656  0.99317  1.0000
  H   H430      1.0  0.55906  0.79276  0.94584  1.0000
  H   H431      1.0  0.19557  0.06060  0.98518  1.0000
  H   H432      1.0  0.42426  0.80564  0.88491  1.0000
  C   C271      1.0  0.15347  0.82898  0.00574  1.0000
  H   H433      1.0  0.44632  0.64631  0.92363  1.0000
  H   H434      1.0  0.18842  0.77268  0.83670  1.0000
  H   H435      1.0  0.31645  0.80172  0.84597  1.0000
  C   C272      1.0  0.44422  0.75559  0.82756  1.0000
  S   S115      1.0  0.46302  0.90192  0.83193  1.0000
  C   C273      1.0  0.17886  0.70168  0.88455  1.0000
  Fe  Fe58      1.0  0.12497  0.08182  0.91506  1.0000
  H   H436      1.0  0.29892  0.66334  0.95750  1.0000
  H   H437      1.0  0.47416  0.76850  0.03356  1.0000
  H   H438      1.0  0.48793  0.81904  0.99315  1.0000
  S   S116      1.0  0.34794  0.81191  0.97090  1.0000
  C   C274      1.0  0.15885  0.68090  0.87103  1.0000
  C   C275      1.0  0.39296  0.61403  0.92104  1.0000
  C   C276      1.0  0.13875  0.74240  0.88027  1.0000
  H   H439      1.0  0.20233  0.69414  0.89076  1.0000
  C   C277      1.0  0.36411  0.74378  0.87040  1.0000
  Fe  Fe59      1.0  0.43086  0.60778  0.03781  1.0000
  H   H440      1.0  0.10478  0.02573  0.90078  1.0000
  H   H441      1.0  0.50008  0.61447  0.06543  1.0000
  N   N28       1.0  0.52286  0.65808  0.06023  1.0000
  C   C278      1.0  0.30614  0.63934  0.95537  1.0000
  Fe  Fe60      1.0  0.34595  0.83661  0.01539  1.0000
  H   H442      1.0  0.15627  0.91966  0.99861  1.0000
  H   H443      1.0  0.54574  0.87568  0.96549  1.0000
  C   C279      1.0  0.44327  0.73117  0.84825  1.0000
  C   C280      1.0  0.43999  0.70098  0.83802  1.0000
  H   H444      1.0  0.55937  0.79965  0.00177  1.0000
  H   H445      1.0  0.44325  0.73588  0.87214  1.0000
  H   H446      1.0  0.11921  0.97118  0.96746  1.0000
  S   S117      1.0  0.41744  0.84137  0.83349  1.0000
  C   C281      1.0  0.44057  0.83496  0.91977  1.0000
  H   H447      1.0  0.33913  0.73596  0.05447  1.0000
  C   C282      1.0  0.31709  0.72378  0.04902  1.0000
  S   S118      1.0  0.32185  0.64368  0.01389  1.0000
  N   N29       1.0  0.30421  0.73506  0.02059  1.0000
  H   H448      1.0  0.17389  0.88149  0.05770  1.0000
  H   H449      1.0  0.37394  0.79301  0.91307  1.0000
  C   C283      1.0  0.40695  0.83729  0.96551  1.0000
  H   H450      1.0  0.50971  0.86967  0.98788  1.0000
  H   H451      1.0  0.51015  0.78528  0.98053  1.0000
  C   C284      1.0  0.41896  0.81537  0.90695  1.0000
  H   H452      1.0  0.32316  0.69873  0.04796  1.0000
  H   H453      1.0  0.11267  0.67473  0.85336  1.0000
  C   C285      1.0  0.29683  0.76836  0.02333  1.0000
  H   H454      1.0  0.56880  0.65914  0.03705  1.0000
  H   H455      1.0  0.43272  0.63612  0.96123  1.0000
  H   H456      1.0  0.32703  0.79319  0.88353  1.0000
  H   H457      1.0  0.37986  0.62255  0.94183  1.0000
  C   C286      1.0  0.30396  0.62419  0.92774  1.0000
  H   H458      1.0  0.20756  0.60212  0.89894  1.0000
  S   S119      1.0  0.17276  0.84405  0.84124  1.0000
  C   C287      1.0  0.31810  0.62366  0.98006  1.0000
  H   H459      1.0  0.35060  0.74199  0.99974  1.0000
  C   C288      1.0  0.50532  0.66647  0.03330  1.0000
  H   H460      1.0  0.29978  0.74386  0.87847  1.0000
  Fe  Fe61      1.0  0.16420  0.81654  0.88323  1.0000
  C   C289      1.0  0.14518  0.91482  0.97690  1.0000
  H   H461      1.0  0.33433  0.70485  0.99291  1.0000
  C   C290      1.0  0.12010  0.98107  0.88451  1.0000
  C   C291      1.0  0.39079  0.80776  0.92301  1.0000
  N   N30       1.0  0.34031  0.75804  0.85100  1.0000
  H   H462      1.0  0.51634  0.65539  0.01267  1.0000
  H   H463      1.0  0.18451  0.74872  0.89888  1.0000
  H   H464      1.0  0.22010  0.59816  0.84427  1.0000
  H   H465      1.0  0.30816  0.92691  0.83009  1.0000
  H   H466      1.0  0.10983  0.92993  0.93035  1.0000
  H   H467      1.0  0.20120  0.07438  0.02240  1.0000
  H   H468      1.0  0.25636  0.72218  0.03298  1.0000
  H   H469      1.0  0.36869  0.88433  0.91138  1.0000
  S   S120      1.0  0.12642  0.78119  0.88240  1.0000
  N   N31       1.0  0.42496  0.60186  0.92757  1.0000
  H   H470      1.0  0.23352  0.07500  0.99474  1.0000
  Fe  Fe62      1.0  0.36174  0.62714  0.04202  1.0000
  C   C292      1.0  0.32817  0.72979  0.99565  1.0000
  H   H471      1.0  0.19145  0.98961  0.93577  1.0000
  H   H472      1.0  0.28670  0.77785  0.00247  1.0000
  C   C293      1.0  0.27481  0.71861  0.01450  1.0000
  H   H473      1.0  0.57483  0.83755  0.99618  1.0000
  H   H474      1.0  0.29481  0.63644  0.90874  1.0000
  C   C294      1.0  0.16889  0.73256  0.88895  1.0000
  H   H475      1.0  0.35723  0.80413  0.85575  1.0000
  H   H476      1.0  0.18042  0.81874  0.96448  1.0000
  Fe  Fe63      1.0  0.32184  0.88897  0.05589  1.0000
  H   H477      1.0  0.29985  0.88323  0.96647  1.0000
  H   H478      1.0  0.31299  0.71694  0.84971  1.0000
  C   C295      1.0  0.52423  0.62421  0.06359  1.0000
  H   H479      1.0  0.46831  0.61848  0.94475  1.0000
  C   C296      1.0  0.50438  0.80970  0.97491  1.0000
  H   H480      1.0  0.13497  0.81288  0.00122  1.0000
  C   C297      1.0  0.33512  0.79074  0.85947  1.0000
  C   C298      1.0  0.44389  0.62684  0.93982  1.0000
  H   H481      1.0  0.48024  0.65889  0.03553  1.0000
  S   S121      1.0  0.30035  0.84456  0.04247  1.0000
  H   H482      1.0  0.31869  0.78129  0.02722  1.0000
  H   H483      1.0  0.29177  0.75133  0.83974  1.0000
  C   C299      1.0  0.55223  0.81761  0.94422  1.0000
  C   C300      1.0  0.11829  0.72120  0.86822  1.0000
  C   C301      1.0  0.15101  0.84722  0.03170  1.0000
  N   N32       1.0  0.53340  0.82816  0.97133  1.0000
  C   C302      1.0  0.10732  0.95679  0.98516  1.0000
  S   S122      1.0  0.11709  0.84456  0.05596  1.0000
  C   C303      1.0  0.20281  0.85350  0.99033  1.0000
  C   C304      1.0  0.17917  0.83231  0.98493  1.0000
  Fe  Fe64      1.0  0.22403  0.84036  0.85217  1.0000
  H   H484      1.0  0.11795  0.96250  0.00689  1.0000
  C   C305      1.0  0.13328  0.01375  0.05667  1.0000
  S   S123      1.0  0.15756  0.85790  0.91312  1.0000
  H   H485      1.0  0.21963  0.88700  0.02130  1.0000
  H   H486      1.0  0.45143  0.86044  0.95948  1.0000
  H   H487      1.0  0.53898  0.83232  0.01889  1.0000
  Fe  Fe65      1.0  0.17065  0.88501  0.87196  1.0000
  S   S124      1.0  0.22291  0.88398  0.87944  1.0000
  C   C306      1.0  0.50985  0.78886  0.05998  1.0000
  C   C307      1.0  0.30988  0.74185  0.85498  1.0000
  H   H488      1.0  0.57443  0.83086  0.94082  1.0000
  H   H489      1.0  0.49103  0.80957  0.95390  1.0000
  S   S125      1.0  0.14118  0.92658  0.86014  1.0000
  C   C308      1.0  0.32185  0.89153  0.95440  1.0000
  S   S126      1.0  0.53807  0.75924  0.05236  1.0000
  H   H490      1.0  0.30722  0.86041  0.88632  1.0000
  C   C309      1.0  0.29309  0.91417  0.91400  1.0000
  H   H491      1.0  0.18724  0.94258  0.90420  1.0000
  H   H492      1.0  0.38653  0.75689  0.86945  1.0000
  H   H493      1.0  0.40300  0.84510  0.98838  1.0000
  H   H494      1.0  0.26315  0.89112  0.83026  1.0000
  S   S127      1.0  0.36561  0.88297  0.02553  1.0000
  N   N33       1.0  0.11101  0.92356  0.97818  1.0000
  H   H495      1.0  0.28957  0.91475  0.88935  1.0000
  C   C310      1.0  0.31030  0.86085  0.91105  1.0000
  C   C311      1.0  0.34901  0.90089  0.90630  1.0000
  H   H496      1.0  0.34736  0.90152  0.88135  1.0000
  C   C312      1.0  0.55254  0.82428  0.99817  1.0000
  C   C313      1.0  0.48004  0.78789  0.04740  1.0000
  H   H497      1.0  0.26999  0.90807  0.92553  1.0000
  C   C314      1.0  0.12277  0.00770  0.90178  1.0000
  Fe  Fe66      1.0  0.21018  0.85300  0.91807  1.0000
  H   H498      1.0  0.32911  0.84355  0.91629  1.0000
  C   C315      1.0  0.17522  0.86771  0.03754  1.0000
  H   H499      1.0  0.29865  0.93790  0.92126  1.0000
  C   C316      1.0  0.14371  0.95792  0.88470  1.0000
  C   C317      1.0  0.16907  0.96056  0.90377  1.0000
  C   C318      1.0  0.17145  0.98713  0.92159  1.0000
  C   C319      1.0  0.14866  0.01106  0.91997  1.0000
  C   C320      1.0  0.20133  0.87059  0.01705  1.0000
  H   H500      1.0  0.32653  0.91486  0.96335  1.0000
  H   H501      1.0  0.37044  0.71973  0.86323  1.0000
  S   S128      1.0  0.15287  0.04577  0.93943  1.0000
  C   C321      1.0  0.52441  0.86106  0.96802  1.0000
  H   H502      1.0  0.34183  0.87609  0.96076  1.0000
  C   C322      1.0  0.43475  0.84552  0.94927  1.0000
  Fe  Fe67      1.0  0.46447  0.85414  0.85083  1.0000
  H   H503      1.0  0.20537  0.73438  0.83428  1.0000
  H   H504      1.0  0.53842  0.82058  0.92354  1.0000
  N   N34       1.0  0.31858  0.89188  0.92143  1.0000
  H   H505      1.0  0.50474  0.69189  0.02978  1.0000
  S   S129      1.0  0.23199  0.86107  0.96220  1.0000
  H   H506      1.0  0.31941  0.73845  0.97394  1.0000
  H   H507      1.0  0.35617  0.92411  0.91370  1.0000
  H   H508      1.0  0.39428  0.63355  0.90493  1.0000
  H   H509      1.0  0.35530  0.74297  0.89434  1.0000
  H   H510      1.0  0.44356  0.60825  0.88222  1.0000
  Fe  Fe68      1.0  0.33440  0.60536  0.85418  1.0000
  S   S130      1.0  0.47496  0.84629  0.89935  1.0000
  H   H511      1.0  0.28774  0.85308  0.92237  1.0000
  S   S131      1.0  0.37050  0.81270  0.05220  1.0000
  C   C323      1.0  0.32695  0.59249  0.97733  1.0000
  H   H512      1.0  0.53692  0.61289  0.04389  1.0000
  H   H513      1.0  0.10420  0.90915  0.02412  1.0000
  H   H514      1.0  0.43493  0.81107  0.04274  1.0000
  H   H515      1.0  0.14905  0.99150  0.82914  1.0000
  C   C324      1.0  0.20736  0.07863  0.99822  1.0000
  C   C325      1.0  0.45762  0.81189  0.05285  1.0000
  H   H516      1.0  0.15863  0.92761  0.95901  1.0000
  H   H517      1.0  0.29960  0.72740  0.06830  1.0000
  C   C326      1.0  0.55557  0.66957  0.05691  1.0000
  H   H518      1.0  0.55558  0.69501  0.05405  1.0000
  H   H519      1.0  0.12107  0.02336  0.82948  1.0000
  H   H520      1.0  0.14883  0.88983  0.97216  1.0000
  S   S132      1.0  0.47367  0.59830  0.00726  1.0000
  S   S133      1.0  0.13151  0.08163  0.86496  1.0000
  H   H521      1.0  0.23004  0.96072  0.05042  1.0000
  S   S134      1.0  0.29155  0.93179  0.05180  1.0000
  C   C327      1.0  0.11232  0.07485  0.06478  1.0000
  C   C328      1.0  0.28644  0.88324  0.82226  1.0000
  H   H522      1.0  0.14158  0.99023  0.05357  1.0000
  C   C329      1.0  0.31308  0.59313  0.92492  1.0000
  H   H523      1.0  0.37842  0.59600  0.91088  1.0000
  H   H524      1.0  0.09994  0.97879  0.87054  1.0000
  Fe  Fe69      1.0  0.38669  0.85933  0.06512  1.0000
  C   C330      1.0  0.15514  0.03674  0.06213  1.0000
  H   H525      1.0  0.09959  0.89216  0.94304  1.0000
  H   H526      1.0  0.18013  0.03066  0.06342  1.0000
  C   C331      1.0  0.14457  0.06719  0.06710  1.0000
  C   C332      1.0  0.10094  0.02133  0.05497  1.0000
  C   C333      1.0  0.31181  0.90365  0.82166  1.0000
  C   C334      1.0  0.46492  0.83696  0.07086  1.0000
  C   C335      1.0  0.20268  0.75642  0.82181  1.0000
  H   H527      1.0  0.65201  0.48400  0.19106  1.0000
  H   H528      1.0  0.65926  0.11954  0.28410  1.0000
  N   N35       1.0  0.95531  0.14650  0.28108  1.0000
  H   H529      1.0  0.65415  0.22908  0.28048  1.0000
  H   H530      1.0  0.63881  0.13981  0.22235  1.0000
  C   C336      1.0  0.96170  0.17593  0.29616  1.0000
  C   C337      1.0  0.61804  0.57454  0.09012  1.0000
  H   H531      1.0  0.61357  0.32177  0.17917  1.0000
  H   H532      1.0  0.66555  0.09728  0.25031  1.0000
  S   S135      1.0  0.05130  0.16350  0.15912  1.0000
  C   C338      1.0  0.03161  0.13253  0.14390  1.0000
  H   H533      1.0  0.98518  0.15380  0.15125  1.0000
  H   H534      1.0  0.94361  0.19401  0.29091  1.0000
  H   H535      1.0  0.93738  0.16800  0.24145  1.0000
  H   H536      1.0  0.64442  0.34561  0.19265  1.0000
  S   S136      1.0  0.61322  0.32461  0.29628  1.0000
  H   H537      1.0  0.98551  0.18472  0.28894  1.0000
  C   C339      1.0  0.85923  0.10344  0.20299  1.0000
  Fe  Fe70      1.0  0.09785  0.17004  0.13371  1.0000
  C   C340      1.0  0.99855  0.13412  0.14203  1.0000
  C   C341      1.0  0.63542  0.35700  0.13353  1.0000
  C   C342      1.0  0.97990  0.12325  0.28858  1.0000
  C   C343      1.0  0.62436  0.39848  0.16881  1.0000
  C   C344      1.0  0.92364  0.13570  0.29158  1.0000
  H   H538      1.0  0.60346  0.57075  0.18108  1.0000
  C   C345      1.0  0.86901  0.10331  0.17248  1.0000
  H   H539      1.0  0.63348  0.52287  0.13630  1.0000
  H   H540      1.0  0.62253  0.41500  0.14990  1.0000
  C   C346      1.0  0.98289  0.11102  0.12692  1.0000
  C   C347      1.0  0.95602  0.15108  0.24809  1.0000
  C   C348      1.0  0.63001  0.22559  0.28904  1.0000
  H   H541      1.0  0.60488  0.13661  0.30061  1.0000
  H   H542      1.0  0.00414  0.13068  0.28112  1.0000
  H   H543      1.0  0.60857  0.40755  0.18774  1.0000
  H   H544      1.0  0.95179  0.12915  0.23603  1.0000
  Fe  Fe71      1.0  0.86642  0.09645  0.10103  1.0000
  H   H545      1.0  0.91797  0.11374  0.28042  1.0000
  H   H546      1.0  0.67193  0.52172  0.15207  1.0000
  H   H547      1.0  0.97589  0.10081  0.27736  1.0000
  S   S137      1.0  0.90951  0.12039  0.08226  1.0000
  H   H548      1.0  0.63258  0.37274  0.11400  1.0000
  H   H549      1.0  0.64160  0.54219  0.22976  1.0000
  S   S138      1.0  0.63477  0.39521  0.24427  1.0000
  H   H550      1.0  0.66108  0.35658  0.13862  1.0000
  C   C349      1.0  0.62223  0.14311  0.24236  1.0000
  H   H551      1.0  0.60394  0.35261  0.20519  1.0000
  H   H552      1.0  0.62926  0.33351  0.12603  1.0000
  H   H553      1.0  0.90444  0.15271  0.28653  1.0000
  H   H554      1.0  0.61655  0.49329  0.21339  1.0000
  C   C350      1.0  0.04886  0.10701  0.13208  1.0000
  H   H555      1.0  0.95759  0.11299  0.12467  1.0000
  C   C351      1.0  0.62873  0.49667  0.19094  1.0000
  S   S139      1.0  0.63783  0.53205  0.29230  1.0000
  C   C352      1.0  0.65297  0.54355  0.20675  1.0000
  H   H556      1.0  0.61409  0.48542  0.17404  1.0000
  H   H557      1.0  0.68636  0.49185  0.26637  1.0000
  C   C353      1.0  0.62357  0.20189  0.30954  1.0000
  H   H558      1.0  0.68522  0.43845  0.24658  1.0000
  S   S140      1.0  0.62952  0.46220  0.10144  1.0000
  H   H559      1.0  0.65096  0.55791  0.14780  1.0000
  C   C354      1.0  0.64800  0.53320  0.15385  1.0000
  C   C355      1.0  0.63599  0.49466  0.27739  1.0000
  C   C356      1.0  0.88014  0.09259  0.22459  1.0000
  C   C357      1.0  0.66401  0.48003  0.26604  1.0000
  N   N36       1.0  0.63278  0.52974  0.18424  1.0000
  C   C358      1.0  0.66337  0.44988  0.25474  1.0000
  H   H560      1.0  0.83534  0.11118  0.20976  1.0000
  C   C359      1.0  0.60667  0.44875  0.26631  1.0000
  C   C360      1.0  0.60133  0.54563  0.18553  1.0000
  S   S141      1.0  0.84230  0.11246  0.14449  1.0000
  C   C361      1.0  0.60720  0.47921  0.27687  1.0000
  H   H561      1.0  0.64919  0.39870  0.17641  1.0000
  H   H562      1.0  0.67656  0.53150  0.20733  1.0000
  H   H563      1.0  0.65709  0.56834  0.20199  1.0000
  C   C362      1.0  0.63484  0.43394  0.25556  1.0000
  H   H564      1.0  0.07444  0.10577  0.13352  1.0000
  H   H565      1.0  0.97950  0.15949  0.23939  1.0000
  H   H566      1.0  0.90827  0.09506  0.14083  1.0000
  H   H567      1.0  0.03254  0.13386  0.07673  1.0000
  H   H568      1.0  0.63261  0.16087  0.25693  1.0000
  C   C363      1.0  0.60541  0.24515  0.27987  1.0000
  N   N37       1.0  0.61519  0.36723  0.15989  1.0000
  C   C364      1.0  0.90011  0.09405  0.16399  1.0000
  C   C365      1.0  0.61949  0.34576  0.18523  1.0000
  C   C366      1.0  0.64825  0.10230  0.26943  1.0000
  Fe  Fe72      1.0  0.60101  0.37006  0.27543  1.0000
  N   N38       1.0  0.61741  0.11393  0.25891  1.0000
  H   H569      1.0  0.61064  0.26363  0.26426  1.0000
  H   H570      1.0  0.87241  0.09233  0.24803  1.0000
  H   H571      1.0  0.92232  0.13156  0.31636  1.0000
  H   H572      1.0  0.97979  0.11890  0.31327  1.0000
  H   H573      1.0  0.59937  0.15293  0.23459  1.0000
  S   S142      1.0  0.65505  0.17746  0.31971  1.0000
  H   H574      1.0  0.96111  0.17320  0.32110  1.0000
  H   H575      1.0  0.03585  0.46194  0.51831  1.0000
  Fe  Fe73      1.0  0.64442  0.14037  0.35339  1.0000
  S   S143      1.0  0.65739  0.14276  0.40150  1.0000
  S   S144      1.0  0.62369  0.33789  0.37962  1.0000
  H   H576      1.0  0.59862  0.49972  0.34391  1.0000
  S   S145      1.0  0.89826  0.11048  0.38121  1.0000
  S   S146      1.0  0.66946  0.09497  0.34528  1.0000
  C   C367      1.0  0.87255  0.09342  0.46828  1.0000
  C   C368      1.0  0.66278  0.11863  0.48162  1.0000
  S   S147      1.0  0.76720  0.14995  0.55671  1.0000
  C   C369      1.0  0.04796  0.46760  0.53926  1.0000
  Fe  Fe74      1.0  0.67744  0.09504  0.39443  1.0000
  C   C370      1.0  0.89639  0.09474  0.41751  1.0000
  H   H577      1.0  0.60389  0.14203  0.51777  1.0000
  C   C371      1.0  0.60134  0.12345  0.56290  1.0000
  H   H578      1.0  0.60216  0.50837  0.38306  1.0000
  H   H579      1.0  0.03075  0.46372  0.55853  1.0000
  C   C372      1.0  0.71749  0.13333  0.48556  1.0000
  H   H580      1.0  0.72348  0.12604  0.46192  1.0000
  S   S148      1.0  0.60924  0.29595  0.54733  1.0000
  H   H581      1.0  0.85642  0.10327  0.48549  1.0000
  H   H582      1.0  0.01951  0.51669  0.51460  1.0000
  H   H583      1.0  0.91807  0.39240  0.55663  1.0000
  H   H584      1.0  0.62849  0.23063  0.46186  1.0000
  C   C373      1.0  0.61735  0.24964  0.44891  1.0000
  H   H585      1.0  0.66741  0.11021  0.45817  1.0000
  H   H586      1.0  0.07174  0.49888  0.49146  1.0000
  H   H587      1.0  0.60862  0.32660  0.48812  1.0000
  S   S149      1.0  0.61122  0.20733  0.52443  1.0000
  H   H588      1.0  0.86197  0.12825  0.43535  1.0000
  H   H589      1.0  0.66550  0.11161  0.54187  1.0000
  H   H590      1.0  0.03976  0.54549  0.53490  1.0000
  H   H591      1.0  0.70580  0.12369  0.54425  1.0000
  C   C374      1.0  0.07455  0.50630  0.56738  1.0000
  H   H592      1.0  0.60856  0.45302  0.39603  1.0000
  H   H593      1.0  0.60749  0.26688  0.46561  1.0000
  C   C375      1.0  0.61555  0.33231  0.44023  1.0000
  H   H594      1.0  0.63931  0.32217  0.43935  1.0000
  H   H595      1.0  0.73965  0.13080  0.49820  1.0000
  N   N39       1.0  0.05926  0.49960  0.53890  1.0000
  C   C376      1.0  0.87586  0.10767  0.44001  1.0000
  C   C377      1.0  0.03194  0.52116  0.53564  1.0000
  N   N40       1.0  0.69151  0.11493  0.49931  1.0000
  H   H596      1.0  0.65466  0.14319  0.48049  1.0000
  Fe  Fe75      1.0  0.78449  0.10073  0.55437  1.0000
  H   H597      1.0  0.01417  0.51916  0.55489  1.0000
  H   H598      1.0  0.08327  0.53037  0.56772  1.0000
  C   C378      1.0  0.08258  0.50332  0.51334  1.0000
  C   C379      1.0  0.60219  0.34284  0.41382  1.0000
  H   H599      1.0  0.71090  0.15829  0.48521  1.0000
  H   H600      1.0  0.68172  0.21977  0.56994  1.0000
  H   H601      1.0  0.64254  0.10534  0.49151  1.0000
  H   H602      1.0  0.06803  0.45065  0.54111  1.0000
  H   H603      1.0  0.60762  0.44476  0.35661  1.0000
  Fe  Fe76      1.0  0.61141  0.11881  0.41081  1.0000
  C   C380      1.0  0.60616  0.21455  0.40881  1.0000
  C   C381      1.0  0.61067  0.17718  0.55066  1.0000
  C   C382      1.0  0.60556  0.14696  0.54145  1.0000
  H   H604      1.0  0.67608  0.15010  0.53110  1.0000
  H   H605      1.0  0.63652  0.26094  0.43512  1.0000
  C   C383      1.0  0.68437  0.12555  0.53052  1.0000
  H   H606      1.0  0.61596  0.19452  0.42123  1.0000
  H   H607      1.0  0.62573  0.22402  0.39408  1.0000
  H   H608      1.0  0.09530  0.49050  0.57066  1.0000
  S   S150      1.0  0.09157  0.58995  0.52893  1.0000
  H   H609      1.0  0.09205  0.52705  0.51252  1.0000
  Fe  Fe77      1.0  0.81246  0.25433  0.68098  1.0000
  S   S151      1.0  0.83322  0.29305  0.65370  1.0000
  S   S152      1.0  0.82012  0.20336  0.67581  1.0000
  C   C384      1.0  0.91867  0.32766  0.69304  1.0000
  S   S153      1.0  0.76265  0.27306  0.68116  1.0000
  H   H610      1.0  0.04223  0.58792  0.73232  1.0000
  H   H611      1.0  0.88940  0.37331  0.80991  1.0000
  C   C385      1.0  0.91905  0.30345  0.67225  1.0000
  H   H612      1.0  0.71253  0.22447  0.66004  1.0000
  C   C386      1.0  0.80421  0.18943  0.64292  1.0000
  C   C387      1.0  0.79755  0.15813  0.64085  1.0000
  C   C388      1.0  0.78609  0.14613  0.61435  1.0000
  C   C389      1.0  0.78104  0.16544  0.58987  1.0000
  C   C390      1.0  0.78716  0.19692  0.59200  1.0000
  C   C391      1.0  0.79872  0.20898  0.61862  1.0000
  H   H613      1.0  0.80110  0.14314  0.65979  1.0000
  H   H614      1.0  0.78097  0.12191  0.61294  1.0000
  N   N41       1.0  0.04672  0.45362  0.74921  1.0000
  H   H615      1.0  0.80401  0.23320  0.62008  1.0000
  C   C392      1.0  0.94670  0.29670  0.65434  1.0000
  H   H616      1.0  0.76039  0.11007  0.69169  1.0000
  S   S154      1.0  0.85730  0.21685  0.80875  1.0000
  S   S155      1.0  0.61425  0.30887  0.63609  1.0000
  C   C393      1.0  0.85923  0.11809  0.68547  1.0000
  S   S156      1.0  0.82303  0.27483  0.72545  1.0000
  H   H617      1.0  0.71991  0.32726  0.67197  1.0000
  H   H618      1.0  0.86428  0.10514  0.70636  1.0000
  S   S157      1.0  0.76063  0.33483  0.61869  1.0000
  H   H619      1.0  0.80001  0.38354  0.76868  1.0000
  H   H620      1.0  0.89794  0.29029  0.66948  1.0000
  H   H621      1.0  0.65305  0.25375  0.60705  1.0000
  H   H622      1.0  0.92871  0.41484  0.63559  1.0000
  C   C394      1.0  0.71918  0.33236  0.62383  1.0000
  H   H623      1.0  0.84714  0.33549  0.82038  1.0000
  H   H624      1.0  0.65294  0.32668  0.58315  1.0000
  Fe  Fe78      1.0  0.78401  0.31411  0.65838  1.0000
  H   H625      1.0  0.64751  0.22125  0.63164  1.0000
  H   H626      1.0  0.84602  0.13970  0.69231  1.0000
  H   H627      1.0  0.90236  0.14504  0.62502  1.0000
  H   H628      1.0  0.91586  0.13319  0.70650  1.0000
  C   C395      1.0  0.93191  0.38967  0.63125  1.0000
  C   C396      1.0  0.67288  0.32109  0.65613  1.0000
  H   H629      1.0  0.02004  0.57538  0.76527  1.0000
  C   C397      1.0  0.60325  0.13014  0.59357  1.0000
  H   H630      1.0  0.09027  0.44356  0.77130  1.0000
  H   H631      1.0  0.86837  0.16297  0.64419  1.0000
  C   C398      1.0  0.61015  0.16006  0.60253  1.0000
  C   C399      1.0  0.01787  0.58716  0.74321  1.0000
  C   C400      1.0  0.66747  0.32659  0.60248  1.0000
  H   H632      1.0  0.83523  0.42079  0.81475  1.0000
  H   H633      1.0  0.94658  0.27866  0.63753  1.0000
  Fe  Fe79      1.0  0.90224  0.11132  0.78123  1.0000
  Fe  Fe80      1.0  0.83956  0.31536  0.69857  1.0000
  S   S158      1.0  0.00623  0.30930  0.63085  1.0000
  H   H634      1.0  0.84300  0.10390  0.67244  1.0000
  C   C401      1.0  0.97391  0.31429  0.65706  1.0000
  H   H635      1.0  0.66542  0.25543  0.64493  1.0000
  Fe  Fe81      1.0  0.77456  0.29667  0.72380  1.0000
  H   H636      1.0  0.09140  0.26249  0.76520  1.0000
  H   H637      1.0  0.66247  0.31651  0.67833  1.0000
  H   H638      1.0  0.76366  0.23550  0.73297  1.0000
  C   C402      1.0  0.70542  0.32705  0.65252  1.0000
  H   H639      1.0  0.74103  0.24514  0.59919  1.0000
  H   H640      1.0  0.00381  0.46347  0.77598  1.0000
  C   C403      1.0  0.03005  0.46546  0.77695  1.0000
  C   C404      1.0  0.65397  0.32020  0.63106  1.0000
  H   H641      1.0  0.05789  0.32055  0.72520  1.0000
  H   H642      1.0  0.74577  0.20048  0.72212  1.0000
  C   C405      1.0  0.70004  0.33287  0.59889  1.0000
  S   S159      1.0  0.79173  0.33972  0.70123  1.0000
  H   H643      1.0  0.95799  0.38454  0.62968  1.0000
  C   C406      1.0  0.74945  0.21593  0.74157  1.0000
  H   H644      1.0  0.04811  0.40628  0.76357  1.0000
  H   H645      1.0  0.97348  0.12544  0.80423  1.0000
  H   H646      1.0  0.93135  0.15035  0.67237  1.0000
  H   H647      1.0  0.84280  0.32848  0.78095  1.0000
  H   H648      1.0  0.79484  0.17227  0.73393  1.0000
  H   H649      1.0  0.67856  0.18686  0.59433  1.0000
  C   C407      1.0  0.03911  0.42086  0.74505  1.0000
  Fe  Fe82      1.0  0.86373  0.16564  0.80659  1.0000
  C   C408      1.0  0.83498  0.34379  0.80016  1.0000
  H   H650      1.0  0.73325  0.19958  0.63315  1.0000
  H   H651      1.0  0.80900  0.34059  0.80444  1.0000
  S   S160      1.0  0.86850  0.14463  0.76072  1.0000
  S   S161      1.0  0.74218  0.29040  0.76462  1.0000
  S   S162      1.0  0.02573  0.57726  0.66411  1.0000
  H   H652      1.0  0.73875  0.39719  0.80031  1.0000
  C   C409      1.0  0.79731  0.18818  0.75329  1.0000
  H   H653      1.0  0.74803  0.23111  0.80003  1.0000
  H   H654      1.0  0.71986  0.26876  0.62658  1.0000
  H   H655      1.0  0.74206  0.15747  0.75777  1.0000
  C   C410      1.0  0.08463  0.35719  0.70437  1.0000
  H   H656      1.0  0.83462  0.37164  0.74639  1.0000
  C   C411      1.0  0.82627  0.38597  0.76605  1.0000
  H   H657      1.0  0.71057  0.33716  0.57668  1.0000
  H   H658      1.0  0.91346  0.33966  0.57615  1.0000
  H   H659      1.0  0.75935  0.15989  0.79366  1.0000
  H   H660      1.0  0.88681  0.36454  0.77063  1.0000
  H   H661      1.0  0.81025  0.17564  0.77075  1.0000
  H   H662      1.0  0.87153  0.37202  0.62681  1.0000
  H   H663      1.0  0.08793  0.48114  0.75460  1.0000
  H   H664      1.0  0.78616  0.24053  0.78339  1.0000
  N   N42       1.0  0.76609  0.19967  0.76555  1.0000
  C   C412      1.0  0.74421  0.31928  0.79177  1.0000
  C   C413      1.0  0.77098  0.22100  0.79077  1.0000
  H   H665      1.0  0.72350  0.18164  0.78669  1.0000
  N   N43       1.0  0.91653  0.38031  0.60357  1.0000
  H   H666      1.0  0.83107  0.41039  0.76030  1.0000
  S   S163      1.0  0.94543  0.09541  0.75383  1.0000
  H   H667      1.0  0.81267  0.20733  0.74528  1.0000
  H   H668      1.0  0.95688  0.51556  0.60393  1.0000
  C   C414      1.0  0.74683  0.17357  0.77645  1.0000
  H   H669      1.0  0.72592  0.22552  0.74995  1.0000
  C   C415      1.0  0.88173  0.38557  0.60752  1.0000
  C   C416      1.0  0.88071  0.14041  0.63946  1.0000
  Fe  Fe83      1.0  0.02297  0.41976  0.61030  1.0000
  H   H670      1.0  0.61196  0.16529  0.62618  1.0000
  H   H671      1.0  0.94949  0.34201  0.59624  1.0000
  S   S164      1.0  0.08717  0.35497  0.61530  1.0000
  S   S165      1.0  0.07485  0.42958  0.60447  1.0000
  S   S166      1.0  0.02826  0.39295  0.65248  1.0000
  H   H672      1.0  0.69397  0.19030  0.64699  1.0000
  H   H673      1.0  0.03519  0.49020  0.78067  1.0000
  H   H674      1.0  0.87568  0.41029  0.61203  1.0000
  C   C417      1.0  0.71686  0.25334  0.60702  1.0000
  S   S167      1.0  0.78789  0.10805  0.74926  1.0000
  H   H675      1.0  0.04157  0.49649  0.72560  1.0000
  H   H676      1.0  0.04856  0.51506  0.67025  1.0000
  C   C418      1.0  0.70949  0.20967  0.63995  1.0000
  H   H677      1.0  0.01042  0.46960  0.72002  1.0000
  S   S168      1.0  0.98343  0.45420  0.60538  1.0000
  H   H678      1.0  0.99576  0.34881  0.68336  1.0000
  H   H679      1.0  0.03766  0.45249  0.79710  1.0000
  Fe  Fe84      1.0  0.83035  0.11313  0.77756  1.0000
  C   C419      1.0  0.69310  0.20731  0.58867  1.0000
  H   H680      1.0  0.03181  0.46630  0.64711  1.0000
  Fe  Fe85      1.0  0.03390  0.35229  0.62147  1.0000
  H   H681      1.0  0.94677  0.36172  0.71411  1.0000
  N   N44       1.0  0.88876  0.12461  0.66763  1.0000
  C   C420      1.0  0.97423  0.33680  0.67954  1.0000
  H   H682      1.0  0.04905  0.46336  0.70187  1.0000
  H   H683      1.0  0.91275  0.33269  0.61582  1.0000
  Fe  Fe86      1.0  0.08067  0.39769  0.64325  1.0000
  C   C421      1.0  0.94664  0.34357  0.69744  1.0000
  C   C422      1.0  0.66409  0.23992  0.62508  1.0000
  H   H684      1.0  0.07551  0.35318  0.68245  1.0000
  H   H685      1.0  0.61867  0.20654  0.58818  1.0000
  C   C423      1.0  0.01192  0.54259  0.65046  1.0000
  C   C424      1.0  0.98607  0.54275  0.63181  1.0000
  C   C425      1.0  0.97665  0.51531  0.61867  1.0000
  C   C426      1.0  0.99333  0.48782  0.62396  1.0000
  C   C427      1.0  0.01888  0.48754  0.64302  1.0000
  C   C428      1.0  0.02811  0.51496  0.65639  1.0000
  H   H686      1.0  0.97340  0.56412  0.62736  1.0000
  S   S169      1.0  0.07136  0.32216  0.78777  1.0000
  H   H687      1.0  0.70705  0.26767  0.58873  1.0000
  C   C429      1.0  0.03640  0.47159  0.72305  1.0000
  C   C430      1.0  0.87691  0.37964  0.78917  1.0000
  H   H688      1.0  0.01302  0.41753  0.74438  1.0000
  C   C431      1.0  0.07461  0.33869  0.72861  1.0000
  C   C432      1.0  0.83032  0.39608  0.81903  1.0000
  S   S170      1.0  0.88313  0.34017  0.71195  1.0000
  H   H689      1.0  0.78369  0.21179  0.57287  1.0000
  C   C433      1.0  0.98558  0.10348  0.80022  1.0000
  S   S171      1.0  0.07677  0.54413  0.79132  1.0000
  H   H690      1.0  0.88315  0.40375  0.78344  1.0000
  H   H691      1.0  0.95532  0.39534  0.57455  1.0000
  N   N45       1.0  0.69588  0.22753  0.61516  1.0000
  N   N46       1.0  0.84212  0.37636  0.79361  1.0000
  H   H692      1.0  0.04998  0.41168  0.72352  1.0000
  C   C434      1.0  0.74147  0.37316  0.80629  1.0000
  C   C435      1.0  0.74133  0.35036  0.78390  1.0000
  H   H693      1.0  0.73805  0.35672  0.76070  1.0000
  C   C436      1.0  0.90899  0.14460  0.68526  1.0000
  H   H694      1.0  0.89636  0.16670  0.69155  1.0000
  H   H695      1.0  0.86926  0.37855  0.58714  1.0000
  H   H696      1.0  0.86459  0.12642  0.62601  1.0000
  C   C437      1.0  0.61360  0.18351  0.58113  1.0000
  C   C438      1.0  0.08542  0.34425  0.75731  1.0000
  H   H697      1.0  0.00359  0.57249  0.72863  1.0000
  H   H698      1.0  0.09476  0.44796  0.73113  1.0000
  C   C439      1.0  0.08142  0.45665  0.75170  1.0000
  C   C440      1.0  0.01082  0.09427  0.81810  1.0000
  H   H699      1.0  0.05759  0.50372  0.58715  1.0000
  H   H700      1.0  0.92180  0.37733  0.65124  1.0000
  H   H701      1.0  0.71688  0.19858  0.57995  1.0000
  C   C441      1.0  0.92338  0.34726  0.59762  1.0000
  C   C442      1.0  0.92911  0.39875  0.57796  1.0000
  H   H702      1.0  0.92461  0.42386  0.58184  1.0000
  C   C443      1.0  0.09817  0.51360  0.80729  1.0000
  H   H703      1.0  0.78312  0.20918  0.80940  1.0000
  S   S172      1.0  0.02481  0.37918  0.57952  1.0000
  Fe  Fe87      1.0  0.07740  0.38654  0.57659  1.0000
  C   C444      1.0  0.90599  0.09528  0.66045  1.0000
  H   H704      1.0  0.92831  0.09919  0.64673  1.0000
  H   H705      1.0  0.09735  0.22255  0.77419  1.0000
  C   C445      1.0  0.93734  0.37352  0.92251  1.0000
  H   H706      1.0  0.75631  0.35777  0.00438  1.0000
  H   H707      1.0  0.81635  0.16914  0.94962  1.0000
  H   H708      1.0  0.92128  0.23536  0.88133  1.0000
  C   C446      1.0  0.84198  0.20692  0.98891  1.0000
  S   S173      1.0  0.63656  0.54471  0.06849  1.0000
  C   C447      1.0  0.70643  0.42446  0.04266  1.0000
  H   H709      1.0  0.99768  0.14165  0.98845  1.0000
  C   C448      1.0  0.01682  0.17416  0.03516  1.0000
  H   H710      1.0  0.89510  0.16422  0.93791  1.0000
  H   H711      1.0  0.82716  0.14730  0.99952  1.0000
  Fe  Fe88      1.0  0.89105  0.10889  0.03734  1.0000
  C   C449      1.0  0.07219  0.23186  0.00097  1.0000
  H   H712      1.0  0.79719  0.20641  0.94717  1.0000
  C   C450      1.0  0.78747  0.21626  0.00612  1.0000
  C   C451      1.0  0.96167  0.37694  0.87229  1.0000
  C   C452      1.0  0.89543  0.29205  0.88513  1.0000
  H   H713      1.0  0.77564  0.17464  0.96287  1.0000
  H   H714      1.0  0.84159  0.22916  0.97658  1.0000
  C   C453      1.0  0.81125  0.16532  0.01035  1.0000
  N   N47       1.0  0.81000  0.19349  0.99173  1.0000
  C   C454      1.0  0.93069  0.30189  0.84207  1.0000
  H   H715      1.0  0.94687  0.10361  0.90520  1.0000
  H   H716      1.0  0.04203  0.17853  0.02862  1.0000
  S   S174      1.0  0.08435  0.31367  0.87365  1.0000
  C   C455      1.0  0.88551  0.14131  0.93885  1.0000
  H   H717      1.0  0.08659  0.28836  0.96353  1.0000
  C   C456      1.0  0.09700  0.21698  0.01554  1.0000
  C   C457      1.0  0.82254  0.25251  0.90073  1.0000
  C   C458      1.0  0.84163  0.22565  0.89852  1.0000
  C   C459      1.0  0.85093  0.21351  0.87014  1.0000
  C   C460      1.0  0.84197  0.22882  0.84409  1.0000
  H   H718      1.0  0.94961  0.27474  0.91086  1.0000
  C   C461      1.0  0.81170  0.26630  0.87465  1.0000
  H   H719      1.0  0.85018  0.21485  0.91858  1.0000
  H   H720      1.0  0.86625  0.19317  0.86838  1.0000
  C   C462      1.0  0.99174  0.37176  0.88379  1.0000
  S   S175      1.0  0.81485  0.27043  0.93572  1.0000
  H   H721      1.0  0.78612  0.23782  0.99253  1.0000
  H   H722      1.0  0.01794  0.10899  0.83610  1.0000
  C   C463      1.0  0.06663  0.18715  0.96902  1.0000
  H   H723      1.0  0.79539  0.28582  0.87628  1.0000
  H   H724      1.0  0.00171  0.18715  0.01940  1.0000
  H   H725      1.0  0.97592  0.28251  0.87886  1.0000
  Fe  Fe89      1.0  0.07688  0.13459  0.91475  1.0000
  H   H726      1.0  0.05819  0.12656  0.04407  1.0000
  C   C464      1.0  0.79933  0.18555  0.96153  1.0000
  C   C465      1.0  0.82212  0.25503  0.84633  1.0000
  C   C466      1.0  0.71140  0.37132  0.02622  1.0000
  C   C467      1.0  0.69324  0.39535  0.03988  1.0000
  N   N48       1.0  0.01042  0.14085  0.03474  1.0000
  H   H727      1.0  0.87736  0.13953  0.89132  1.0000
  H   H728      1.0  0.89503  0.31664  0.89233  1.0000
  S   S176      1.0  0.65379  0.38851  0.05211  1.0000
  C   C468      1.0  0.87553  0.12737  0.91249  1.0000
  C   C469      1.0  0.05693  0.21692  0.97791  1.0000
  H   H729      1.0  0.09633  0.33653  0.01165  1.0000
  S   S177      1.0  0.07433  0.38542  0.84917  1.0000
  S   S178      1.0  0.04575  0.16814  0.94150  1.0000
  H   H730      1.0  0.76301  0.20710  0.00853  1.0000
  H   H731      1.0  0.82055  0.17005  0.03289  1.0000
  H   H732      1.0  0.00771  0.10405  0.00268  1.0000
  H   H733      1.0  0.01241  0.18416  0.05809  1.0000
  H   H734      1.0  0.90710  0.24556  0.84516  1.0000
  H   H735      1.0  0.01246  0.37067  0.86866  1.0000
  H   H736      1.0  0.85172  0.21129  0.01132  1.0000
  C   C470      1.0  0.74238  0.37650  0.01464  1.0000
  H   H737      1.0  0.78734  0.15514  0.01386  1.0000
  H   H738      1.0  0.79490  0.22280  0.02892  1.0000
  H   H739      1.0  0.03745  0.22839  0.96705  1.0000
  S   S179      1.0  0.89589  0.14260  0.99930  1.0000
  C   C471      1.0  0.75546  0.40567  0.01690  1.0000
  C   C472      1.0  0.88345  0.12542  0.96627  1.0000
  C   C473      1.0  0.92591  0.25020  0.86128  1.0000
  C   C474      1.0  0.09140  0.17213  0.98359  1.0000
  H   H740      1.0  0.70287  0.38167  0.96066  1.0000
  C   C475      1.0  0.93443  0.37771  0.89157  1.0000
  H   H741      1.0  0.85916  0.19133  0.97640  1.0000
  H   H742      1.0  0.74996  0.28696  0.82797  1.0000
  C   C476      1.0  0.03337  0.12442  0.05344  1.0000
  H   H743      1.0  0.06408  0.25464  0.00799  1.0000
  C   C477      1.0  0.95231  0.28856  0.88988  1.0000
  H   H744      1.0  0.95954  0.38009  0.84834  1.0000
  H   H745      1.0  0.75216  0.32731  0.86718  1.0000
  H   H746      1.0  0.69255  0.44309  0.05328  1.0000
  C   C478      1.0  0.99490  0.36816  0.91473  1.0000
  Fe  Fe90      1.0  0.81285  0.32195  0.92954  1.0000
  C   C479      1.0  0.67971  0.43617  0.91091  1.0000
  S   S180      1.0  0.77033  0.35271  0.94060  1.0000
  H   H747      1.0  0.69382  0.42709  0.89086  1.0000
  S   S181      1.0  0.60994  0.46750  0.03022  1.0000
  H   H748      1.0  0.91640  0.37419  0.93754  1.0000
  H   H749      1.0  0.67361  0.46302  0.96574  1.0000
  S   S182      1.0  0.82194  0.34241  0.88396  1.0000
  H   H750      1.0  0.08785  0.32917  0.95728  1.0000
  H   H751      1.0  0.84182  0.38970  0.84020  1.0000
  H   H752      1.0  0.74770  0.45214  0.03317  1.0000
  C   C480      1.0  0.01365  0.12887  0.00363  1.0000
  C   C481      1.0  0.67360  0.43739  0.96516  1.0000
  H   H753      1.0  0.89061  0.27795  0.90566  1.0000
  C   C482      1.0  0.73761  0.42954  0.03131  1.0000
  H   H754      1.0  0.87524  0.28900  0.87021  1.0000
  H   H755      1.0  0.73711  0.42676  0.96166  1.0000
  H   H756      1.0  0.64842  0.43011  0.96472  1.0000
  H   H757      1.0  0.68288  0.42910  0.98675  1.0000
  H   H758      1.0  0.74137  0.42645  0.92144  1.0000
  Fe  Fe91      1.0  0.78294  0.37604  0.89705  1.0000
  S   S183      1.0  0.74851  0.39326  0.86382  1.0000
  Fe  Fe92      1.0  0.85407  0.37437  0.90655  1.0000
  S   S184      1.0  0.89713  0.38238  0.87591  1.0000
  C   C483      1.0  0.96762  0.36895  0.93410  1.0000
  Fe  Fe93      1.0  0.80608  0.38427  0.95927  1.0000
  S   S185      1.0  0.79326  0.41307  0.00033  1.0000
  H   H759      1.0  0.05764  0.49626  0.83282  1.0000
  S   S186      1.0  0.81557  0.40995  0.91607  1.0000
  H   H760      1.0  0.95302  0.31319  0.89671  1.0000
  H   H761      1.0  0.72745  0.46077  0.94092  1.0000
  C   C484      1.0  0.74559  0.36483  0.83628  1.0000
  H   H762      1.0  0.70669  0.38076  0.92022  1.0000
  H   H763      1.0  0.96135  0.10184  0.86650  1.0000
  H   H764      1.0  0.65476  0.42876  0.90886  1.0000
  H   H765      1.0  0.67981  0.46176  0.90965  1.0000
  S   S187      1.0  0.03270  0.36237  0.92929  1.0000
  C   C485      1.0  0.69259  0.39090  0.93978  1.0000
  H   H766      1.0  0.70137  0.34872  0.02428  1.0000
  Fe  Fe94      1.0  0.07203  0.36018  0.89333  1.0000
  N   N49       1.0  0.69300  0.42494  0.93918  1.0000
  S   S188      1.0  0.84813  0.35154  0.95172  1.0000
  H   H767      1.0  0.96993  0.36616  0.95808  1.0000
  C   C486      1.0  0.74911  0.33380  0.84400  1.0000
  C   C487      1.0  0.72614  0.43521  0.94085  1.0000
  H   H768      1.0  0.66794  0.38229  0.93899  1.0000
  S   S189      1.0  0.07816  0.13791  0.86430  1.0000
  S   S190      1.0  0.82301  0.13666  0.82228  1.0000
  H   H769      1.0  0.03839  0.13100  0.99416  1.0000
  H   H770      1.0  0.94902  0.24252  0.85024  1.0000
  H   H771      1.0  0.97233  0.11083  0.04735  1.0000
  H   H772      1.0  0.09816  0.14875  0.97746  1.0000
  H   H773      1.0  0.02819  0.09944  0.05493  1.0000
  N   N50       1.0  0.92610  0.28317  0.86961  1.0000
  Fe  Fe95      1.0  0.09070  0.33964  0.83040  1.0000
  H   H774      1.0  0.93000  0.32693  0.84743  1.0000
  H   H775      1.0  0.95977  0.14774  0.03327  1.0000
  C   C488      1.0  0.87106  0.09585  0.96734  1.0000
  H   H776      1.0  0.80422  0.39411  0.82322  1.0000
  Fe  Fe96      1.0  0.62272  0.43021  0.06283  1.0000
  C   C489      1.0  0.97781  0.13580  0.04698  1.0000
  Fe  Fe97      1.0  0.86092  0.10411  0.83749  1.0000
  C   C490      1.0  0.86393  0.09741  0.91352  1.0000
  Fe  Fe98      1.0  0.61234  0.49902  0.07032  1.0000
  H   H777      1.0  0.08765  0.45213  0.85404  1.0000
  H   H778      1.0  0.95403  0.29648  0.83019  1.0000
  S   S191      1.0  0.90157  0.13535  0.82596  1.0000
  H   H779      1.0  0.81478  0.26668  0.82621  1.0000
  H   H780      1.0  0.91172  0.29774  0.82599  1.0000
  C   C491      1.0  0.08263  0.49279  0.82665  1.0000
  H   H781      1.0  0.92076  0.09371  0.87611  1.0000
  H   H782      1.0  0.09629  0.29569  0.01773  1.0000
  H   H783      1.0  0.97461  0.14443  0.07053  1.0000
  C   C492      1.0  0.74787  0.31100  0.82183  1.0000
  S   S192      1.0  0.68259  0.76398  0.11094  1.0000
  S   S193      1.0  0.98164  0.05925  0.09169  1.0000
  C   C493      1.0  0.90940  0.85187  0.26033  1.0000
  H   H784      1.0  0.97105  0.87942  0.25094  1.0000
  H   H785      1.0  0.74387  0.79022  0.10967  1.0000
  S   S194      1.0  0.60831  0.71705  0.09230  1.0000
  H   H786      1.0  0.70794  0.77946  0.21679  1.0000
  H   H787      1.0  0.67324  0.76264  0.17642  1.0000
  C   C494      1.0  0.85808  0.73249  0.12525  1.0000
  H   H788      1.0  0.99326  0.95546  0.12557  1.0000
  N   N51       1.0  0.85466  0.76233  0.14124  1.0000
  H   H789      1.0  0.94179  0.92258  0.09358  1.0000
  C   C495      1.0  0.84359  0.78625  0.12028  1.0000
  S   S195      1.0  0.61178  0.73101  0.16521  1.0000
  H   H790      1.0  0.88401  0.79319  0.16501  1.0000
  H   H791      1.0  0.01145  0.94428  0.30968  1.0000
  C   C496      1.0  0.73595  0.78797  0.13305  1.0000
  H   H792      1.0  0.81692  0.03053  0.08867  1.0000
  H   H793      1.0  0.80752  0.75271  0.15927  1.0000
  C   C497      1.0  0.88579  0.77097  0.15249  1.0000
  C   C498      1.0  0.70623  0.77539  0.14033  1.0000
  H   H794      1.0  0.60014  0.06856  0.25118  1.0000
  C   C499      1.0  0.71582  0.78186  0.19341  1.0000
  N   N52       1.0  0.80362  0.83873  0.31452  1.0000
  C   C500      1.0  0.74529  0.79495  0.18601  1.0000
  C   C501      1.0  0.93976  0.99052  0.13170  1.0000
  C   C502      1.0  0.00737  0.91958  0.30468  1.0000
  H   H795      1.0  0.84099  0.80906  0.13156  1.0000
  C   C503      1.0  0.62625  0.83407  0.24972  1.0000
  C   C504      1.0  0.63367  0.81805  0.22296  1.0000
  C   C505      1.0  0.00010  0.08588  0.11443  1.0000
  C   C506      1.0  0.60397  0.09075  0.23903  1.0000
  H   H796      1.0  0.65815  0.81503  0.21505  1.0000
  C   C507      1.0  0.91051  0.08125  0.21548  1.0000
  H   H797      1.0  0.90382  0.77417  0.13367  1.0000
  C   C508      1.0  0.75527  0.79795  0.15579  1.0000
  H   H798      1.0  0.90783  0.94145  0.11201  1.0000
  Fe  Fe99      1.0  0.08603  0.95355  0.08132  1.0000
  Fe  Fe100     1.0  0.63183  0.75101  0.12192  1.0000
  H   H799      1.0  0.83901  0.74218  0.18345  1.0000
  H   H800      1.0  0.89528  0.75325  0.16796  1.0000
  H   H801      1.0  0.83503  0.72536  0.11635  1.0000
  H   H802      1.0  0.03096  0.90751  0.30264  1.0000
  H   H803      1.0  0.77809  0.80745  0.14984  1.0000
  S   S196      1.0  0.76927  0.80802  0.21457  1.0000
  H   H804      1.0  0.77132  0.87337  0.29842  1.0000
  C   C509      1.0  0.69612  0.77239  0.17058  1.0000
  S   S197      1.0  0.05820  0.91034  0.08432  1.0000
  C   C510      1.0  0.92420  0.82597  0.27281  1.0000
  H   H805      1.0  0.91345  0.99365  0.13409  1.0000
  H   H806      1.0  0.86088  0.78919  0.10081  1.0000
  H   H807      1.0  0.93353  0.80748  0.25837  1.0000
  H   H808      1.0  0.04628  0.06365  0.10871  1.0000
  H   H809      1.0  0.95008  0.01374  0.12836  1.0000
  C   C511      1.0  0.92626  0.82362  0.30400  1.0000
  H   H810      1.0  0.99426  0.92850  0.23032  1.0000
  S   S198      1.0  0.89798  0.84795  0.12777  1.0000
  H   H811      1.0  0.75968  0.83445  0.29199  1.0000
  Fe  Fe101     1.0  0.80626  0.91054  0.17538  1.0000
  S   S199      1.0  0.77974  0.95221  0.16011  1.0000
  H   H812      1.0  0.67382  0.83896  0.16814  1.0000
  S   S200      1.0  0.85395  0.84127  0.20552  1.0000
  H   H813      1.0  0.82552  0.86030  0.27574  1.0000
  S   S201      1.0  0.89019  0.04983  0.10177  1.0000
  H   H814      1.0  0.78221  0.02079  0.21913  1.0000
  H   H815      1.0  0.61553  0.79377  0.18559  1.0000
  H   H816      1.0  0.82754  0.78189  0.17910  1.0000
  Fe  Fe102     1.0  0.91471  0.05045  0.28555  1.0000
  S   S202      1.0  0.90161  0.00153  0.29454  1.0000
  H   H817      1.0  0.03087  0.91802  0.24688  1.0000
  H   H818      1.0  0.81287  0.82167  0.26945  1.0000
  H   H819      1.0  0.00817  0.87039  0.26751  1.0000
  H   H820      1.0  0.96365  0.89847  0.19974  1.0000
  S   S203      1.0  0.02365  0.90912  0.16921  1.0000
  H   H821      1.0  0.97203  0.87185  0.29054  1.0000
  C   C512      1.0  0.98423  0.96566  0.10454  1.0000
  H   H822      1.0  0.94100  0.92942  0.13338  1.0000
  H   H823      1.0  0.94818  0.98147  0.15342  1.0000
  C   C513      1.0  0.70968  0.90837  0.16398  1.0000
  H   H824      1.0  0.01010  0.87559  0.11441  1.0000
  C   C514      1.0  0.81758  0.94370  0.10901  1.0000
  C   C515      1.0  0.79986  0.96479  0.12717  1.0000
  C   C516      1.0  0.79942  0.99607  0.11969  1.0000
  C   C517      1.0  0.96131  0.86186  0.12047  1.0000
  C   C518      1.0  0.60950  0.80563  0.20647  1.0000
  C   C519      1.0  0.89655  0.87536  0.27901  1.0000
  C   C520      1.0  0.81699  0.00628  0.09420  1.0000
  H   H825      1.0  0.78598  0.01249  0.13381  1.0000
  S   S204      1.0  0.80678  0.86463  0.15244  1.0000
  N   N53       1.0  0.69265  0.88301  0.17937  1.0000
  H   H826      1.0  0.86632  0.71384  0.14041  1.0000
  H   H827      1.0  0.78584  0.99965  0.25368  1.0000
  C   C521      1.0  0.61611  0.62823  0.10606  1.0000
  H   H828      1.0  0.96055  0.95701  0.28509  1.0000
  C   C522      1.0  0.99018  0.88922  0.15801  1.0000
  H   H829      1.0  0.83655  0.95408  0.22985  1.0000
  H   H830      1.0  0.78618  0.97958  0.21830  1.0000
  C   C523      1.0  0.98931  0.87557  0.12952  1.0000
  C   C524      1.0  0.98501  0.88300  0.27124  1.0000
  H   H831      1.0  0.73606  0.86204  0.19369  1.0000
  S   S205      1.0  0.87117  0.07089  0.30933  1.0000
  H   H832      1.0  0.81813  0.91954  0.11470  1.0000
  C   C525      1.0  0.68646  0.85859  0.15732  1.0000
  C   C526      1.0  0.93416  0.86180  0.13992  1.0000
  C   C527      1.0  0.00743  0.92994  0.25136  1.0000
  H   H833      1.0  0.79093  0.79108  0.31296  1.0000
  H   H834      1.0  0.90824  0.85372  0.23625  1.0000
  N   N54       1.0  0.98946  0.91609  0.27710  1.0000
  S   S206      1.0  0.65688  0.85145  0.26856  1.0000
  S   S207      1.0  0.87436  0.90571  0.26396  1.0000
  H   H835      1.0  0.71650  0.88752  0.22090  1.0000
  Fe  Fe103     1.0  0.85007  0.88954  0.22330  1.0000
  C   C528      1.0  0.93549  0.87439  0.16875  1.0000
  C   C529      1.0  0.63030  0.60427  0.08856  1.0000
  N   N55       1.0  0.82928  0.00308  0.22667  1.0000
  C   C530      1.0  0.83970  0.00497  0.19452  1.0000
  C   C531      1.0  0.83894  0.03107  0.24236  1.0000
  C   C532      1.0  0.84421  0.97571  0.24040  1.0000
  C   C533      1.0  0.79430  0.00069  0.22957  1.0000
  H   H836      1.0  0.83360  0.98385  0.18206  1.0000
  H   H837      1.0  0.86589  0.00783  0.19171  1.0000
  H   H838      1.0  0.82818  0.02495  0.18326  1.0000
  H   H839      1.0  0.86528  0.03312  0.24129  1.0000
  H   H840      1.0  0.82840  0.05216  0.23228  1.0000
  H   H841      1.0  0.83769  0.97413  0.26492  1.0000
  H   H842      1.0  0.87063  0.97614  0.23797  1.0000
  H   H843      1.0  0.91497  0.87389  0.18416  1.0000
  N   N56       1.0  0.94918  0.96961  0.10642  1.0000
  S   S208      1.0  0.85901  0.91227  0.17880  1.0000
  H   H844      1.0  0.70104  0.85017  0.21454  1.0000
  H   H845      1.0  0.96052  0.85189  0.09822  1.0000
  C   C534      1.0  0.96332  0.88813  0.17771  1.0000
  H   H846      1.0  0.64869  0.87639  0.20479  1.0000
  S   S209      1.0  0.79696  0.89219  0.22177  1.0000
  Fe  Fe104     1.0  0.85910  0.86417  0.16057  1.0000
  C   C535      1.0  0.95805  0.93186  0.28125  1.0000
  H   H847      1.0  0.82012  0.78063  0.11132  1.0000
  H   H848      1.0  0.99610  0.98817  0.10084  1.0000
  S   S210      1.0  0.08765  0.96036  0.13112  1.0000
  C   C536      1.0  0.82331  0.83716  0.28617  1.0000
  H   H849      1.0  0.62013  0.08582  0.21901  1.0000
  C   C537      1.0  0.83432  0.95377  0.08301  1.0000
  C   C538      1.0  0.66215  0.89495  0.19308  1.0000
  Fe  Fe105     1.0  0.93195  0.07305  0.07993  1.0000
  H   H850      1.0  0.73279  0.90017  0.15325  1.0000
  H   H851      1.0  0.64659  0.90497  0.17589  1.0000
  H   H852      1.0  0.94332  0.92888  0.26134  1.0000
  C   C539      1.0  0.93431  0.93944  0.11155  1.0000
  C   C540      1.0  0.83120  0.75962  0.16686  1.0000
  C   C541      1.0  0.71245  0.87017  0.20313  1.0000
  H   H853      1.0  0.71512  0.92705  0.18000  1.0000
  H   H854      1.0  0.64534  0.08072  0.28275  1.0000
  Fe  Fe106     1.0  0.06355  0.91470  0.13411  1.0000
  H   H855      1.0  0.94428  0.92278  0.30118  1.0000
  H   H856      1.0  0.70899  0.84907  0.14658  1.0000
  H   H857      1.0  0.66596  0.91300  0.21026  1.0000
  S   S211      1.0  0.93608  0.06398  0.24077  1.0000
  H   H858      1.0  0.69548  0.91883  0.14597  1.0000
  C   C542      1.0  0.77111  0.84980  0.30823  1.0000
  H   H859      1.0  0.94454  0.07500  0.17820  1.0000
  H   H860      1.0  0.67147  0.86734  0.13908  1.0000
  H   H861      1.0  0.84786  0.82841  0.29012  1.0000
  Fe  Fe107     1.0  0.80170  0.84591  0.19938  1.0000
  C   C543      1.0  0.83416  0.98508  0.07569  1.0000
  H   H862      1.0  0.83096  0.03088  0.26651  1.0000
  H   H863      1.0  0.87567  0.73375  0.10582  1.0000
  H   H864      1.0  0.01185  0.95475  0.25542  1.0000
  C   C544      1.0  0.92078  0.08294  0.18531  1.0000
  H   H865      1.0  0.62585  0.65105  0.10490  1.0000
  C   C545      1.0  0.93831  0.98279  0.07795  1.0000
  C   C546      1.0  0.90016  0.87384  0.31004  1.0000
  H   H866      1.0  0.99229  0.95020  0.08560  1.0000
  H   H867      1.0  0.91199  0.98617  0.07866  1.0000
  C   C547      1.0  0.03296  0.08332  0.11796  1.0000
  H   H868      1.0  0.68177  0.71783  0.29697  1.0000
  H   H869      1.0  0.61151  0.97519  0.30814  1.0000
  S   S212      1.0  0.94186  0.78990  0.31968  1.0000
  H   H870      1.0  0.73634  0.72682  0.31071  1.0000
  H   H871      1.0  0.94903  0.00556  0.07322  1.0000
  Fe  Fe108     1.0  0.64781  0.84962  0.31858  1.0000
  H   H872      1.0  0.71419  0.67405  0.31750  1.0000
  C   C548      1.0  0.67347  0.72239  0.32070  1.0000
  H   H873      1.0  0.65088  0.60874  0.07384  1.0000
  Fe  Fe109     1.0  0.92365  0.78771  0.36766  1.0000
  S   S213      1.0  0.87439  0.80570  0.37806  1.0000
  S   S214      1.0  0.82078  0.74566  0.41006  1.0000
  H   H874      1.0  0.01645  0.63420  0.48385  1.0000
  H   H875      1.0  0.92487  0.78989  0.50698  1.0000
  C   C549      1.0  0.60452  0.97594  0.33184  1.0000
  C   C550      1.0  0.70563  0.68119  0.34057  1.0000
  H   H876      1.0  0.60100  0.91906  0.47067  1.0000
  S   S215      1.0  0.67540  0.81341  0.34282  1.0000
  C   C551      1.0  0.74278  0.79968  0.39755  1.0000
  H   H877      1.0  0.78822  0.80813  0.34981  1.0000
  H   H878      1.0  0.60178  0.77310  0.32362  1.0000
  C   C552      1.0  0.79375  0.77715  0.41054  1.0000
  Fe  Fe110     1.0  0.63009  0.80839  0.37080  1.0000
  S   S216      1.0  0.94492  0.81559  0.40350  1.0000
  C   C553      1.0  0.93810  0.84545  0.48377  1.0000
  H   H879      1.0  0.72248  0.07822  0.51340  1.0000
  C   C554      1.0  0.76256  0.77360  0.40159  1.0000
  H   H880      1.0  0.72435  0.67446  0.35637  1.0000
  H   H881      1.0  0.75410  0.75083  0.39717  1.0000
  Fe  Fe111     1.0  0.86959  0.76572  0.40932  1.0000
  H   H882      1.0  0.89946  0.86999  0.52735  1.0000
  H   H883      1.0  0.71895  0.79699  0.39008  1.0000
  H   H884      1.0  0.91400  0.85128  0.47579  1.0000
  S   S217      1.0  0.91762  0.74484  0.39542  1.0000
  N   N57       1.0  0.68581  0.96834  0.41359  1.0000
  C   C555      1.0  0.75431  0.82921  0.40254  1.0000
  C   C556      1.0  0.78468  0.83251  0.41330  1.0000
  S   S218      1.0  0.04024  0.66292  0.55612  1.0000
  C   C557      1.0  0.66660  0.99928  0.56456  1.0000
  H   H885      1.0  0.03226  0.71756  0.47303  1.0000
  S   S219      1.0  0.94842  0.65551  0.55535  1.0000
  H   H886      1.0  0.89126  0.81542  0.51387  1.0000
  H   H887      1.0  0.94820  0.82628  0.46945  1.0000
  N   N58       1.0  0.69829  0.71463  0.34209  1.0000
  C   C558      1.0  0.91500  0.84796  0.32255  1.0000
  S   S220      1.0  0.88688  0.79091  0.44921  1.0000
  H   H888      1.0  0.06861  0.68107  0.49671  1.0000
  S   S221      1.0  0.97377  0.76374  0.46457  1.0000
  N   N59       1.0  0.04026  0.67039  0.45920  1.0000
  H   H889      1.0  0.84225  0.85230  0.34133  1.0000
  C   C559      1.0  0.91595  0.81009  0.52059  1.0000
  S   S222      1.0  0.79516  0.07740  0.50990  1.0000
  C   C560      1.0  0.92381  0.86316  0.53408  1.0000
  H   H890      1.0  0.68202  0.06735  0.50869  1.0000
  H   H891      1.0  0.60384  0.91261  0.52666  1.0000
  H   H892      1.0  0.01210  0.70694  0.44019  1.0000
  H   H893      1.0  0.66421  0.71100  0.37947  1.0000
  H   H894      1.0  0.68414  0.66755  0.34665  1.0000
  H   H895      1.0  0.82759  0.80952  0.42572  1.0000
  C   C561      1.0  0.95187  0.68826  0.53261  1.0000
  C   C562      1.0  0.93312  0.69166  0.50756  1.0000
  C   C563      1.0  0.93890  0.71561  0.48697  1.0000
  C   C564      1.0  0.96358  0.73590  0.49145  1.0000
  C   C565      1.0  0.98134  0.73333  0.51718  1.0000
  C   C566      1.0  0.97524  0.70974  0.53792  1.0000
  H   H896      1.0  0.91485  0.67518  0.50355  1.0000
  H   H897      1.0  0.92495  0.71771  0.46720  1.0000
  H   H898      1.0  0.00020  0.74924  0.52089  1.0000
  H   H899      1.0  0.98902  0.70781  0.55778  1.0000
  H   H900      1.0  0.82634  0.79838  0.33261  1.0000
  H   H901      1.0  0.82013  0.88371  0.32584  1.0000
  H   H902      1.0  0.91467  0.80266  0.54454  1.0000
  C   C567      1.0  0.80420  0.80655  0.41749  1.0000
  Fe  Fe112     1.0  0.93537  0.77433  0.43250  1.0000
  H   H903      1.0  0.68137  0.74810  0.37516  1.0000
  C   C568      1.0  0.96916  0.82862  0.52522  1.0000
  N   N60       1.0  0.93676  0.83683  0.51593  1.0000
  C   C569      1.0  0.04350  0.65245  0.43093  1.0000
  C   C570      1.0  0.60068  0.94843  0.34795  1.0000
  H   H904      1.0  0.07423  0.64250  0.48259  1.0000
  C   C571      1.0  0.70145  0.08208  0.49956  1.0000
  H   H905      1.0  0.79075  0.07784  0.40382  1.0000
  H   H906      1.0  0.74679  0.72613  0.34942  1.0000
  S   S223      1.0  0.64299  0.84321  0.40523  1.0000
  H   H907      1.0  0.97953  0.80883  0.51181  1.0000
  C   C572      1.0  0.68668  0.72293  0.37299  1.0000
  H   H908      1.0  0.80339  0.86232  0.35713  1.0000
  H   H909      1.0  0.06370  0.66058  0.41617  1.0000
  H   H910      1.0  0.60937  0.96400  0.50395  1.0000
  H   H911      1.0  0.87219  0.95980  0.44152  1.0000
  Fe  Fe113     1.0  0.62238  0.07508  0.35847  1.0000
  C   C573      1.0  0.81793  0.86020  0.33562  1.0000
  H   H912      1.0  0.01002  0.67194  0.49932  1.0000
  H   H913      1.0  0.74306  0.00847  0.33036  1.0000
  C   C574      1.0  0.01309  0.65892  0.47789  1.0000
  Fe  Fe114     1.0  0.89484  0.82952  0.41684  1.0000
  H   H914      1.0  0.65183  0.70853  0.32515  1.0000
  H   H915      1.0  0.70445  0.71684  0.38989  1.0000
  Fe  Fe115     1.0  0.68553  0.85138  0.37478  1.0000
  H   H916      1.0  0.86190  0.92350  0.38434  1.0000
  C   C575      1.0  0.93915  0.94259  0.37038  1.0000
  H   H917      1.0  0.95321  0.86581  0.47938  1.0000
  H   H918      1.0  0.98559  0.84818  0.52191  1.0000
  H   H919      1.0  0.70841  0.93131  0.43749  1.0000
  Fe  Fe116     1.0  0.90128  0.07063  0.34949  1.0000
  H   H920      1.0  0.72238  0.93535  0.39897  1.0000
  C   C576      1.0  0.88744  0.92315  0.38601  1.0000
  H   H921      1.0  0.91763  0.84690  0.34658  1.0000
  S   S224      1.0  0.88737  0.02363  0.36488  1.0000
  H   H922      1.0  0.70820  0.03933  0.36621  1.0000
  S   S225      1.0  0.66228  0.88823  0.34802  1.0000
  H   H923      1.0  0.82523  0.04888  0.36687  1.0000
  C   C577      1.0  0.79985  0.04602  0.36706  1.0000
  H   H924      1.0  0.79355  0.85521  0.41773  1.0000
  C   C578      1.0  0.90604  0.94331  0.36857  1.0000
  C   C579      1.0  0.74726  0.06018  0.38767  1.0000
  C   C580      1.0  0.73376  0.04103  0.36661  1.0000
  C   C581      1.0  0.78654  0.02616  0.34656  1.0000
  C   C582      1.0  0.75345  0.02357  0.34639  1.0000
  H   H925      1.0  0.89473  0.95914  0.35348  1.0000
  C   C583      1.0  0.78029  0.06256  0.38795  1.0000
  C   C584      1.0  0.67404  0.95058  0.53828  1.0000
  Fe  Fe117     1.0  0.61843  0.87723  0.37599  1.0000
  H   H926      1.0  0.69785  0.01524  0.42288  1.0000
  S   S226      1.0  0.96210  0.96960  0.35062  1.0000
  Fe  Fe118     1.0  0.92916  0.00711  0.33590  1.0000
  C   C585      1.0  0.70841  0.99148  0.42340  1.0000
  C   C586      1.0  0.06980  0.66689  0.47581  1.0000
  S   S227      1.0  0.73259  0.86235  0.39295  1.0000
  H   H927      1.0  0.96910  0.82177  0.54933  1.0000
  H   H928      1.0  0.73050  0.99133  0.40866  1.0000
  H   H929      1.0  0.71554  0.98712  0.44682  1.0000
  C   C587      1.0  0.82134  0.98080  0.41250  1.0000
  C   C588      1.0  0.95377  0.92070  0.38855  1.0000
  C   C589      1.0  0.93513  0.90030  0.40580  1.0000
  H   H930      1.0  0.92226  0.85747  0.55850  1.0000
  H   H931      1.0  0.83504  0.99071  0.39301  1.0000
  H   H932      1.0  0.97939  0.92000  0.38982  1.0000
  C   C590      1.0  0.59978  0.73824  0.35808  1.0000
  C   C591      1.0  0.70090  0.93726  0.41450  1.0000
  H   H933      1.0  0.63980  0.95167  0.42750  1.0000
  H   H934      1.0  0.66307  0.96491  0.45769  1.0000
  C   C592      1.0  0.90195  0.90200  0.40495  1.0000
  H   H935      1.0  0.09100  0.67431  0.46201  1.0000
  C   C593      1.0  0.65802  0.96870  0.56041  1.0000
  H   H936      1.0  0.94642  0.88381  0.42028  1.0000
  S   S228      1.0  0.81224  0.01608  0.54972  1.0000
  S   S229      1.0  0.73892  0.00872  0.50284  1.0000
  H   H937      1.0  0.69803  0.97532  0.36660  1.0000
  S   S230      1.0  0.94594  0.05440  0.32469  1.0000
  H   H938      1.0  0.81915  0.95144  0.46593  1.0000
  H   H939      1.0  0.93036  0.05817  0.40633  1.0000
  H   H940      1.0  0.66035  0.95776  0.37422  1.0000
  S   S231      1.0  0.72321  0.08071  0.41420  1.0000
  H   H941      1.0  0.82382  0.95529  0.41080  1.0000
  C   C594      1.0  0.60006  0.00432  0.34654  1.0000
  S   S232      1.0  0.60129  0.84174  0.34407  1.0000
  C   C595      1.0  0.80218  0.80768  0.32802  1.0000
  C   C596      1.0  0.65704  0.96933  0.43395  1.0000
  C   C597      1.0  0.91146  0.05425  0.45196  1.0000
  C   C598      1.0  0.89028  0.06662  0.47419  1.0000
  C   C599      1.0  0.81500  0.97686  0.46651  1.0000
  C   C600      1.0  0.82697  0.02582  0.44356  1.0000
  S   S233      1.0  0.88474  0.04692  0.50837  1.0000
  C   C601      1.0  0.70757  0.99356  0.52477  1.0000
  H   H942      1.0  0.93898  0.88373  0.53114  1.0000
  C   C602      1.0  0.72732  0.73197  0.33413  1.0000
  C   C603      1.0  0.69845  0.96321  0.52005  1.0000
  N   N61       1.0  0.83260  0.99214  0.44141  1.0000
  H   H943      1.0  0.04796  0.62754  0.43547  1.0000
  H   H944      1.0  0.71087  0.94919  0.50293  1.0000
  H   H945      1.0  0.69854  0.03502  0.55072  1.0000
  H   H946      1.0  0.88121  0.99641  0.42495  1.0000
  H   H947      1.0  0.66455  0.99814  0.38103  1.0000
  H   H948      1.0  0.99027  0.66151  0.46631  1.0000
  H   H949      1.0  0.87609  0.99326  0.46495  1.0000
  H   H950      1.0  0.99404  0.91005  0.32470  1.0000
  H   H951      1.0  0.92532  0.03362  0.45650  1.0000
  S   S234      1.0  0.61435  0.76166  0.38629  1.0000
  C   C604      1.0  0.86699  0.98503  0.44328  1.0000
  C   C605      1.0  0.03456  0.70329  0.45219  1.0000
  H   H952      1.0  0.78894  0.98138  0.46562  1.0000
  H   H953      1.0  0.64458  0.99222  0.43316  1.0000
  H   H954      1.0  0.79588  0.98719  0.40979  1.0000
  Fe  Fe119     1.0  0.83764  0.05745  0.53215  1.0000
  C   C606      1.0  0.69176  0.01153  0.54712  1.0000
  H   H955      1.0  0.02155  0.65452  0.41793  1.0000
  H   H956      1.0  0.66750  0.92686  0.53517  1.0000
  H   H957      1.0  0.80128  0.03209  0.44215  1.0000
  H   H958      1.0  0.82247  0.98536  0.48867  1.0000
  Fe  Fe120     1.0  0.76906  0.03811  0.53099  1.0000
  H   H959      1.0  0.83467  0.03495  0.46535  1.0000
  C   C607      1.0  0.67683  0.97522  0.38251  1.0000
  S   S235      1.0  0.87850  0.87774  0.42750  1.0000
  H   H960      1.0  0.68432  0.91914  0.40765  1.0000
  S   S236      1.0  0.63264  0.07090  0.40746  1.0000
  H   H961      1.0  0.05433  0.71276  0.43780  1.0000
  H   H962      1.0  0.84040  0.03827  0.42534  1.0000
  H   H963      1.0  0.70824  0.07349  0.47653  1.0000
  Fe  Fe121     1.0  0.05886  0.61484  0.56214  1.0000
  C   C608      1.0  0.91421  0.06806  0.42355  1.0000
  H   H964      1.0  0.89080  0.89226  0.32454  1.0000
  H   H965      1.0  0.75551  0.85081  0.32918  1.0000
  H   H966      1.0  0.60440  0.92654  0.33657  1.0000
  S   S237      1.0  0.60765  0.03848  0.32688  1.0000
  S   S238      1.0  0.81128  0.00443  0.32140  1.0000
  Fe  Fe122     1.0  0.86087  0.02222  0.32248  1.0000
  H   H967      1.0  0.72263  0.75729  0.33579  1.0000
  H   H968      1.0  0.66590  0.74710  0.32241  1.0000
  S   S239      1.0  0.00565  0.65626  0.62416  1.0000
  Fe  Fe123     1.0  0.05298  0.67003  0.60385  1.0000
  H   H969      1.0  0.95556  0.60238  0.74685  1.0000
  H   H970      1.0  0.01400  0.66112  0.76881  1.0000
  H   H971      1.0  0.07676  0.99168  0.81721  1.0000
  H   H972      1.0  0.02447  0.62687  0.78930  1.0000
  H   H973      1.0  0.99296  0.65758  0.71890  1.0000
  Fe  Fe124     1.0  0.02795  0.60899  0.62451  1.0000
  S   S240      1.0  0.07607  0.71241  0.62025  1.0000
  N   N62       1.0  0.00349  0.61842  0.74687  1.0000
  H   H974      1.0  0.89110  0.07949  0.64755  1.0000
  H   H975      1.0  0.71807  0.99720  0.69169  1.0000
  H   H976      1.0  0.97162  0.60519  0.78349  1.0000
  H   H977      1.0  0.02524  0.63319  0.70475  1.0000
  H   H978      1.0  0.76877  0.07734  0.64613  1.0000
  C   C609      1.0  0.78149  0.07200  0.66611  1.0000
  H   H979      1.0  0.04804  0.63822  0.75700  1.0000
  C   C610      1.0  0.07608  0.67671  0.70366  1.0000
  C   C611      1.0  0.08016  0.70236  0.72185  1.0000
  S   S241      1.0  0.07627  0.62348  0.60795  1.0000
  H   H980      1.0  0.07413  0.65419  0.71343  1.0000
  C   C612      1.0  0.07745  0.70905  0.65935  1.0000
  C   C613      1.0  0.08310  0.73154  0.70876  1.0000
  C   C614      1.0  0.01698  0.04677  0.78959  1.0000
  H   H981      1.0  0.02860  0.02456  0.78571  1.0000
  H   H982      1.0  0.06925  0.66034  0.65910  1.0000
  S   S242      1.0  0.09572  0.62697  0.81463  1.0000
  C   C615      1.0  0.02620  0.06569  0.81296  1.0000
  C   C616      1.0  0.08244  0.73479  0.67736  1.0000
  S   S243      1.0  0.08120  0.69782  0.76086  1.0000
  C   C617      1.0  0.02324  0.63696  0.76637  1.0000
  C   C618      1.0  0.79358  0.08405  0.71769  1.0000
  C   C619      1.0  0.68071  0.97768  0.64813  1.0000
  H   H983      1.0  0.71854  0.97632  0.59768  1.0000
  C   C620      1.0  0.81857  0.03962  0.69250  1.0000
  C   C621      1.0  0.73025  0.98479  0.67234  1.0000
  H   H984      1.0  0.69863  0.03613  0.65597  1.0000
  C   C622      1.0  0.07367  0.68019  0.67267  1.0000
  H   H985      1.0  0.83446  0.01969  0.69291  1.0000
  H   H986      1.0  0.08511  0.75723  0.66713  1.0000
  H   H987      1.0  0.73257  0.94806  0.62356  1.0000
  S   S244      1.0  0.86455  0.07747  0.79410  1.0000
  H   H988      1.0  0.66710  0.98123  0.62751  1.0000
  H   H989      1.0  0.75500  0.99340  0.67013  1.0000
  H   H990      1.0  0.82761  0.05361  0.73785  1.0000
  H   H991      1.0  0.69910  0.02752  0.61642  1.0000
  H   H992      1.0  0.68101  0.95249  0.65279  1.0000
  H   H993      1.0  0.73579  0.03259  0.63465  1.0000
  C   C623      1.0  0.81473  0.05877  0.71791  1.0000
  H   H994      1.0  0.75531  0.98188  0.61563  1.0000
  S   S245      1.0  0.80665  0.02166  0.63535  1.0000
  Fe  Fe125     1.0  0.80051  0.04464  0.59074  1.0000
  C   C624      1.0  0.71156  0.02295  0.63754  1.0000
  C   C625      1.0  0.99263  0.05642  0.77115  1.0000
  H   H995      1.0  0.66693  0.98939  0.66699  1.0000
  H   H996      1.0  0.09196  0.03493  0.78265  1.0000
  N   N63       1.0  0.71327  0.98965  0.64430  1.0000
  H   H997      1.0  0.08621  0.75151  0.72281  1.0000
  H   H998      1.0  0.98569  0.04177  0.75298  1.0000
  C   C626      1.0  0.80214  0.04634  0.66653  1.0000
  H   H999      1.0  0.73191  0.95993  0.67825  1.0000
  C   C627      1.0  0.73067  0.97325  0.61921  1.0000
  H   H1000     1.0  0.07987  0.96559  0.78583  1.0000
  C   C628      1.0  0.77673  0.09046  0.69190  1.0000
  C   C629      1.0  0.00164  0.63321  0.71703  1.0000
  H   H1001     1.0  0.98549  0.62070  0.70234  1.0000
  S   S246      1.0  0.62736  0.95314  0.58292  1.0000
  C   C630      1.0  0.97112  0.61627  0.76094  1.0000
  C   C631      1.0  0.97663  0.08456  0.77663  1.0000
  H   H1002     1.0  0.95967  0.63952  0.76399  1.0000
  H   H1003     1.0  0.65429  0.01331  0.58170  1.0000
  S   S247      1.0  0.82976  0.08449  0.57492  1.0000
  H   H1004     1.0  0.91266  0.08300  0.68134  1.0000
  S   S248      1.0  0.01247  0.59582  0.57874  1.0000
  H   H1005     1.0  0.09452  0.00814  0.75186  1.0000
  C   C632      1.0  0.09360  0.97661  0.80353  1.0000
  S   S249      1.0  0.75439  0.06300  0.57384  1.0000
  Fe  Fe126     1.0  0.99468  0.64485  0.57660  1.0000
  H   H1006     1.0  0.00359  0.06536  0.87846  1.0000
  H   H1007     1.0  0.96463  0.05111  0.83993  1.0000
  H   H1008     1.0  0.94482  0.96748  0.05846  1.0000
  H   H1009     1.0  0.86898  0.08355  0.98843  1.0000
  S   S250      1.0  0.85681  0.99785  0.04433  1.0000
  C   C633      1.0  0.86140  0.08186  0.94102  1.0000
  H   H1010     1.0  0.06843  0.91179  0.00392  1.0000
  S   S251      1.0  0.91735  0.06356  0.03319  1.0000
  C   C634      1.0  0.94944  0.04143  0.85856  1.0000
  H   H1011     1.0  0.09486  0.72866  0.86173  1.0000
  C   C635      1.0  0.98729  0.05460  0.89559  1.0000
  Fe  Fe127     1.0  0.87316  0.04482  0.05540  1.0000
  N   N64       1.0  0.95377  0.05771  0.88726  1.0000
  C   C636      1.0  0.93286  0.04421  0.91117  1.0000
  C   C637      1.0  0.09741  0.91711  0.94884  1.0000
  H   H1012     1.0  0.07176  0.92387  0.94890  1.0000
  Fe  Fe128     1.0  0.07843  0.08626  0.86571  1.0000
  H   H1013     1.0  0.93950  0.01972  0.91546  1.0000
  H   H1014     1.0  0.09637  0.88020  0.99714  1.0000
  H   H1015     1.0  0.85228  0.05873  0.94193  1.0000
  S   S252      1.0  0.85499  0.07776  0.88062  1.0000
  H   H1016     1.0  0.84775  0.93739  0.06884  1.0000
  H   H1017     1.0  0.99495  0.03000  0.89745  1.0000
  S   S253      1.0  0.07308  0.99236  0.05102  1.0000
  H   H1018     1.0  0.90757  0.04469  0.90483  1.0000
  S   S254      1.0  0.07166  0.08328  0.91590  1.0000
  H   H1019     1.0  0.92430  0.04350  0.85172  1.0000
  H   H1020     1.0  0.99110  0.06606  0.91749  1.0000
  C   C638      1.0  0.09420  0.90542  0.00181  1.0000
  H   H1021     1.0  0.93385  0.05708  0.93277  1.0000
  H   H1022     1.0  0.95564  0.01648  0.86026  1.0000
  S   S255      1.0  0.05560  0.05184  0.83639  1.0000
  H   H1023     1.0  0.06564  0.05778  0.05669  1.0000
  C   C639      1.0  0.09063  0.05201  0.05814  1.0000
  S   S256      1.0  0.84513  0.08949  0.05612  1.0000
  H   H1024     1.0  0.08183  0.96425  0.98720  1.0000
  C   C640      1.0  0.94540  0.09069  0.88368  1.0000
