data_image0
_chemical_formula_structural       HCFeH7CNCH2CH2SCFe2HSCHSCSC2SC2HSCSHFeSH3C3HCHCHC2H2NH4CH2CH6SHCHNSNCFeH2SFeNSCH3SHFeSH2CFeSHC3SC2H4SC6H6FeSCHS3HC3H4C2HFeCSCHNSFeNC3SH2C4H6FeNHFeHC2H3CHCHCH4SHSNS2HC3HCH3C4H3SH5CH4SHCH4CSFeHSFeHSFeH2S2FeSHFeS2FeHFeS3HCH4C4HCH2C3HC6H4FeCH2C6HCH2NSHCNH2CH4CH2CHCH4SC3HCHCHSCH3SHSHCHCH2CSHNH5NCHFeS2HCSH2C3H4C2H2CH9CHCH2CNH2C2HC2H3NFeH2CHSFeSHFeSFeSFeNS2FeS2FeS2FeSFeS3CHCH2CH2CNHC4NH2C4H2CH2SC7H4C6H4SCHCH6CH2C2H2CH4SC2HCHCH5CHNHCHCH2CH2C2H5CH4C2FeSCSHCH5FeH4NHSCFeSHSHCHC2H3CH3CH3NHCH4CNH3C6HCH2SFeCFeCHSCHCHCH2CH3CHCH2C2H2SHC2FeS2HSHSCH5C2HC2H2NHFeHCH5CH2CH2FeNCH2CH2CHC5HSHFeCSFeS2Fe2S3NCHC3H2CH2FeHSC3HFeC6H5CSH4SH3CH9C2H2CHCH6C4NCSNC3H2CHSH4CHCH2NSHS2H2NH2CH2CHCFeH3CH3C2H2FeHSH3CH3SFeS2FeS2FeSFeS3HC3H2C6H7C2H5C6H4C2HNH2SH3SC2H6CHC2H3CH2NCHNCHC2H3NHCH6C2HCH2FeS2FeS2FeHFeS3H2CHCHCH2CHC4HCH5CSHNH6CHCHCSH2C2HC2H3CHNHCH2CFeS2H4C2HC5H3CH3NC2H2C2HFeH7SHFeS2FeS2Fe2S3H3SC2HS2H2C6H4C2NH4C2HCHC4H4FeC2HCSH2SH4SNC2H2CFeH2SHSH2C4H2CH3CHNHC2FeH5C3H2S2Fe2H3FeCHC3HC2HC2S2CH3SCH2NCH3SFeCFeHS2CFeH2FeSCH3CHCHSH6SFeS2FeS2FeSFeS4C6H5CHCNC2HCSH2CHNH4CH3CH6CH2CHC2H3C5H2NHSC2HCHC2H3NFeHCH7SCH4NHCFeS2FeS2C2H4CH2C5H5NH2CH4C6H4C3H2CH2SH2FeS2CFeH7C3HCSH5CH5CHCH2CHS2H2FeS2FeS2HFeSFeS2FeCFeS2C2HCH5C2HC6H2SH4C2HNCNH3C2HC2HSH2CH4C2HC3H7CHCH2FeS2NCH2CH4C2H2CH3CHCHCH3CFe2S2FeS3CH3C6H6FeCHCHCS2H2CH3Fe2H5NHS2FeH3CS2CH2SHFeS2FeS2Fe2S3CHC6H5C3H3SCHCH2CH10CHCHSH3CNC3HCHC2H3NH5CNCH2CH4CHCHFeCFeS2FeS3FeS2HSCHSHCSHCSC2HC3HC6H3CH5CH3CH4CH4CFeH2CH3NH2C2H3CSHC2NHNC2H8CHSHCHS2H3FeH2SCH2CFeH2CHNSC2HSH3CHCHCHSFeSCFeSFeHS2C6H3FeH3SCH2C3H3CHCH2SCHNC2HCHC2H4CSH3CNC4FeH5SCHCSH4CH2C2NCH2C2HCH5CH3C2SC2FeSFeS2FeSFeS3HC2H2C2H2C2H2C6H5CH3CHNHC2HCH4CH3SHCH4CHNCHCHCH3CH3CH5CFeHSH3FeS2H2C2FeSFeHFeC5H2CH2CSHCNH2CHSH5CHNHCH2FeS2C5H2CHC5H4FeH11CH2CHFeSHS2CH2S2FeS2FeS2CFeS3FeC2NHFeH2C6H2SHC6H5SCSHCFeC2S2H3FeHCH8C2HFeCFeS2FeCSFeS2CNHC3HC3H2C2SH3CH2CHC2H4FeH5S2HNH3CH6CH2CHCHCFeSH2CHCHCHC2H3NH2CH2SH2C2H3CHCH2CH5CNC3H3FeHSFeHSHCHCHCHSHCSC2H2CHNCHNC3H2FeH3CH6FeS2FeS2Fe2S3C6H6C2H4C2H2C4HC2H10S2HCHSNHNC2H2CHC4H5CHFeCH3SH3NH2CH6CH4C4HFeCSHNH3S2HCH4CHCHCHCNH3CH3C2HCHC2H4FeS2HSC2H2C3H3FeH5CSH6CH4C2HNHNCHCH2SC2H2C3H3CH2CFeS2FeS2FeSFeS3NCSC5H7C6H4C6H4CH3CH3C2HSHC2H2NCFeHCSH4NSCH5FeC2H2FeHFe2HFe2S2C3H2SH2C3H3FeS2FeSNFeSFeS3HCHFeSH3CNC6H4C2HC3H2CH4C3HSHCHCH2C2SCH4CH6CNHCH4SCH2CHSHSH3NH2SHCHFeSCFeS2FeSHFeSFeS4CH2C6H9C7H4CH4NH3CHCH5SH2SFeH2C4HCH2SHSHC2SH7NH2CHCHSFeSHFeSFeHCHCHCSH4CSH2C7H4FeHSCSH5CSHSHNFeHC2SCH4FeS2FeSH2SCHC4H2SCH3CHCHFeH2CH2C2H2CSH2CH2C2HC2H3CNH3SCS2C3H2C2FeH4NCSC2HFeH4CH3CHFeH4C3H3FeH2CH3NHSHSHC2H5CHCNHFeHSCHCSHCFeHCH5SNH2CH2NC2NC2FeS2FeSFeSFeS3FeHSCH3FeS2FeS2FeSFeS3FeHNSCHC6H2C7H4C6H4C6H4C6H5CHCH2CH7CSHSH4SH3C2NCH3CH2CHCHFeH2CH12NCHCH2CSCHCFeSHSHCFeC4HC2HCHSH2FeC2HCHCSCHCH3C2FeSFeS2Fe2S3FeS2FeS2FeSFeCS2FeHCSHCH3S2CH2C3H2CH2CHC2HC3H6CH2C6H5CHSH6C2H4CHCH2CH5NC2HSH2N2H2CFeC2H4CH5CH2CSH2S2HCHSHSFeS2HS2HC2HC3HSH4C3SCH2FeC6HCHCH4NHCSCH3NHFeNHFeSFeH2CH2C2H2CH3C2H2CH7FeS2FeS2C3HSCH2CH4SC3HNCH3SFeC2H2CH3CHFeHSCSH3FeCH2C4H3CH2SH2C3HCHCHCSH4CNCSHC2HNH2CHC3HCNH2CHSH4CH3CHCH3CH6C
_chemical_formula_sum              "H1728 C1080 Fe216 N108 S432"
_cell_length_a       73.5844
_cell_length_b       76.227
_cell_length_c       44.6041
_cell_angle_alpha    84.4709
_cell_angle_beta     87.8576
_cell_angle_gamma    112.207

_space_group_name_H-M_alt    "P 1"
_space_group_IT_number       1

loop_
  _space_group_symop_operation_xyz
  'x, y, z'

loop_
  _atom_site_type_symbol
  _atom_site_label
  _atom_site_symmetry_multiplicity
  _atom_site_fract_x
  _atom_site_fract_y
  _atom_site_fract_z
  _atom_site_occupancy
  H   H1        1.0  0.21006  0.18590  0.20009  1.0000
  C   C1        1.0  0.19207  0.22042  0.20823  1.0000
  Fe  Fe1       1.0  0.22693  0.22915  0.10183  1.0000
  H   H2        1.0  0.22279  0.21116  0.19211  1.0000
  H   H3        1.0  0.20089  0.21277  0.15312  1.0000
  H   H4        1.0  0.21317  0.20082  0.22999  1.0000
  H   H5        1.0  0.18776  0.18750  0.15969  1.0000
  H   H6        1.0  0.20440  0.23255  0.19526  1.0000
  H   H7        1.0  0.17477  0.20326  0.16122  1.0000
  H   H8        1.0  0.17666  0.18633  0.24214  1.0000
  C   C2        1.0  0.18851  0.20127  0.16710  1.0000
  N   N1        1.0  0.19138  0.20192  0.19966  1.0000
  C   C3        1.0  0.17488  0.18622  0.21745  1.0000
  H   H9        1.0  0.19428  0.22145  0.23268  1.0000
  H   H10       1.0  0.16053  0.18740  0.21331  1.0000
  C   C4        1.0  0.21011  0.19982  0.20580  1.0000
  H   H11       1.0  0.17824  0.22258  0.20366  1.0000
  H   H12       1.0  0.17393  0.17206  0.21151  1.0000
  S   S1        1.0  0.23723  0.20810  0.12724  1.0000
  C   C5        1.0  0.24645  0.23229  0.28084  1.0000
  Fe  Fe2       1.0  0.26091  0.21622  0.08908  1.0000
  Fe  Fe3       1.0  0.25748  0.23372  0.14709  1.0000
  H   H13       1.0  0.26389  0.21939  0.25856  1.0000
  S   S2        1.0  0.24849  0.23462  0.06179  1.0000
  C   C6        1.0  0.25516  0.22802  0.25548  1.0000
  H   H14       1.0  0.24834  0.22686  0.30332  1.0000
  S   S3        1.0  0.26519  0.23039  0.19534  1.0000
  C   C7        1.0  0.25288  0.23504  0.22622  1.0000
  S   S4        1.0  0.27346  0.19552  0.07283  1.0000
  C   C8        1.0  0.23516  0.24340  0.27701  1.0000
  C   C9        1.0  0.24155  0.24611  0.22233  1.0000
  S   S5        1.0  0.19570  0.22447  0.09253  1.0000
  C   C10       1.0  0.28105  0.19569  0.03469  1.0000
  C   C11       1.0  0.18714  0.24175  0.10340  1.0000
  H   H15       1.0  0.24003  0.25185  0.19985  1.0000
  S   S6        1.0  0.28187  0.24039  0.11081  1.0000
  C   C12       1.0  0.23257  0.25015  0.24771  1.0000
  S   S7        1.0  0.24535  0.25421  0.12454  1.0000
  H   H16       1.0  0.26829  0.21513  0.01634  1.0000
  Fe  Fe4       1.0  0.26772  0.25819  0.08624  1.0000
  S   S8        1.0  0.22452  0.24953  0.30827  1.0000
  H   H17       1.0  0.20235  0.24591  0.14401  1.0000
  H   H18       1.0  0.06490  0.24590  0.01570  1.0000
  H   H19       1.0  0.17024  0.24088  0.06474  1.0000
  C   C13       1.0  0.27693  0.20687  0.01131  1.0000
  C   C14       1.0  0.19245  0.24983  0.13020  1.0000
  C   C15       1.0  0.17439  0.24710  0.08549  1.0000
  H   H20       1.0  0.22393  0.25887  0.24471  1.0000
  C   C16       1.0  0.29193  0.18470  0.02777  1.0000
  H   H21       1.0  0.29513  0.17597  0.04576  1.0000
  C   C17       1.0  0.30310  0.25598  0.01950  1.0000
  H   H22       1.0  0.28945  0.25688  0.26915  1.0000
  C   C18       1.0  0.29928  0.02163  0.00143  1.0000
  C   C19       1.0  0.32029  0.23910  0.04724  1.0000
  H   H23       1.0  0.30802  0.23331  0.06537  1.0000
  H   H24       1.0  0.29065  0.25024  0.03731  1.0000
  N   N2        1.0  0.32192  0.25786  0.03219  1.0000
  H   H25       1.0  0.31726  0.22829  0.03100  1.0000
  H   H26       1.0  0.29605  0.01675  0.02606  1.0000
  H   H27       1.0  0.29960  0.24615  0.00178  1.0000
  H   H28       1.0  0.29369  0.02890  0.57337  1.0000
  C   C20       1.0  0.18872  0.23285  0.50811  1.0000
  H   H29       1.0  0.18966  0.24493  0.49111  1.0000
  H   H30       1.0  0.31890  0.19741  0.41576  1.0000
  C   C21       1.0  0.21859  0.23106  0.48696  1.0000
  H   H31       1.0  0.22653  0.23685  0.50679  1.0000
  H   H32       1.0  0.30586  0.23727  0.43710  1.0000
  H   H33       1.0  0.17881  0.19520  0.52434  1.0000
  H   H34       1.0  0.19655  0.23923  0.52773  1.0000
  H   H35       1.0  0.32206  0.04499  0.34756  1.0000
  H   H36       1.0  0.17289  0.22501  0.51582  1.0000
  S   S9        1.0  0.21906  0.23509  0.39763  1.0000
  H   H37       1.0  0.20195  0.20850  0.53860  1.0000
  C   C22       1.0  0.19469  0.20379  0.51770  1.0000
  H   H38       1.0  0.20119  0.19414  0.50859  1.0000
  N   N3        1.0  0.32024  0.03606  0.54477  1.0000
  S   S10       1.0  0.04996  0.24403  0.59253  1.0000
  N   N4        1.0  0.19735  0.22029  0.49520  1.0000
  C   C23       1.0  0.18749  0.21350  0.46785  1.0000
  Fe  Fe5       1.0  0.01891  0.23832  0.61150  1.0000
  H   H39       1.0  0.31588  0.06071  0.52390  1.0000
  H   H40       1.0  0.31457  0.02934  0.59310  1.0000
  S   S11       1.0  0.25927  0.25555  0.43209  1.0000
  Fe  Fe6       1.0  0.23712  0.24921  0.35383  1.0000
  N   N5        1.0  0.32491  0.22166  0.44039  1.0000
  S   S12       1.0  0.24329  0.20168  0.43913  1.0000
  C   C24       1.0  0.31462  0.21008  0.46900  1.0000
  H   H41       1.0  0.17149  0.20495  0.47320  1.0000
  H   H42       1.0  0.19407  0.20445  0.45697  1.0000
  H   H43       1.0  0.29825  0.21625  0.41816  1.0000
  S   S13       1.0  0.26565  0.01657  0.63872  1.0000
  H   H44       1.0  0.28000  0.18542  0.35928  1.0000
  Fe  Fe7       1.0  0.31581  0.15128  0.41980  1.0000
  S   S14       1.0  0.29719  0.16109  0.38853  1.0000
  H   H45       1.0  0.32209  0.04688  0.49785  1.0000
  H   H46       1.0  0.25867  0.17549  0.46843  1.0000
  C   C25       1.0  0.26854  0.04692  0.54341  1.0000
  Fe  Fe8       1.0  0.32043  0.12863  0.47685  1.0000
  S   S15       1.0  0.30922  0.11030  0.52226  1.0000
  H   H47       1.0  0.25888  0.20131  0.37845  1.0000
  C   C26       1.0  0.29298  0.08605  0.52955  1.0000
  C   C27       1.0  0.28388  0.07539  0.50658  1.0000
  C   C28       1.0  0.27158  0.05594  0.51356  1.0000
  S   S16       1.0  0.01044  0.25520  0.64404  1.0000
  C   C29       1.0  0.27733  0.05769  0.56639  1.0000
  C   C30       1.0  0.28947  0.07714  0.55946  1.0000
  H   H48       1.0  0.28634  0.08214  0.48350  1.0000
  H   H49       1.0  0.27490  0.05104  0.58950  1.0000
  H   H50       1.0  0.29629  0.08533  0.57740  1.0000
  H   H51       1.0  0.32448  0.20471  0.48208  1.0000
  S   S17       1.0  0.31582  0.12153  0.42910  1.0000
  C   C31       1.0  0.26345  0.17782  0.44463  1.0000
  C   C32       1.0  0.27556  0.16887  0.43380  1.0000
  C   C33       1.0  0.28165  0.17166  0.40301  1.0000
  C   C34       1.0  0.27552  0.18338  0.38317  1.0000
  C   C35       1.0  0.26366  0.19251  0.39404  1.0000
  C   C36       1.0  0.25766  0.18985  0.42484  1.0000
  H   H52       1.0  0.27988  0.15956  0.44919  1.0000
  H   H53       1.0  0.22104  0.24334  0.46956  1.0000
  H   H54       1.0  0.05654  0.25430  0.65380  1.0000
  H   H55       1.0  0.18895  0.22571  0.45072  1.0000
  H   H56       1.0  0.32347  0.01510  0.51829  1.0000
  H   H57       1.0  0.26473  0.04775  0.49565  1.0000
  Fe  Fe9       1.0  0.24527  0.22858  0.41073  1.0000
  S   S18       1.0  0.25522  0.02189  0.55063  1.0000
  C   C37       1.0  0.31135  0.22842  0.42369  1.0000
  H   H58       1.0  0.22565  0.22197  0.47746  1.0000
  S   S19       1.0  0.31791  0.15724  0.46802  1.0000
  S   S20       1.0  0.26194  0.24015  0.36535  1.0000
  S   S21       1.0  0.00075  0.24412  0.57556  1.0000
  H   H59       1.0  0.31276  0.05131  0.57821  1.0000
  C   C38       1.0  0.31549  0.01602  0.53938  1.0000
  C   C39       1.0  0.30990  0.03643  0.57361  1.0000
  C   C40       1.0  0.31380  0.04591  0.51972  1.0000
  H   H60       1.0  0.31866  0.23726  0.40202  1.0000
  H   H61       1.0  0.29791  0.03819  0.51674  1.0000
  H   H62       1.0  0.30165  0.19736  0.46472  1.0000
  H   H63       1.0  0.30926  0.21844  0.48359  1.0000
  C   C41       1.0  0.07148  0.25543  0.61081  1.0000
  C   C42       1.0  0.07062  0.25914  0.64080  1.0000
  H   H64       1.0  0.09066  0.25873  0.57110  1.0000
  Fe  Fe10      1.0  0.01079  0.23565  0.86424  1.0000
  C   C43       1.0  0.07634  0.25397  0.89182  1.0000
  S   S22       1.0  0.02286  0.22749  0.82285  1.0000
  C   C44       1.0  0.32544  0.23727  0.81768  1.0000
  H   H65       1.0  0.24414  0.05331  0.89261  1.0000
  N   N6        1.0  0.22378  0.03172  0.86912  1.0000
  S   S23       1.0  0.28087  0.03544  0.93763  1.0000
  Fe  Fe11      1.0  0.31618  0.14465  0.88674  1.0000
  N   N7        1.0  0.31859  0.23296  0.85013  1.0000
  C   C45       1.0  0.21655  0.04547  0.85335  1.0000
  C   C46       1.0  0.29872  0.18492  0.99773  1.0000
  C   C47       1.0  0.29466  0.19616  0.97437  1.0000
  S   S24       1.0  0.04135  0.24465  0.96537  1.0000
  H   H66       1.0  0.04381  0.22401  0.91572  1.0000
  H   H67       1.0  0.23873  0.02929  0.90899  1.0000
  C   C48       1.0  0.20724  0.01305  0.87659  1.0000
  C   C49       1.0  0.00886  0.22503  0.79102  1.0000
  C   C50       1.0  0.01787  0.22659  0.76201  1.0000
  C   C51       1.0  0.00698  0.22521  0.73636  1.0000
  H   H68       1.0  0.25164  0.04335  0.84257  1.0000
  H   H69       1.0  0.01400  0.22638  0.71409  1.0000
  H   H70       1.0  0.09683  0.23872  0.92687  1.0000
  H   H71       1.0  0.03331  0.22891  0.75930  1.0000
  H   H72       1.0  0.30424  0.25288  0.84799  1.0000
  H   H73       1.0  0.08320  0.21421  0.87518  1.0000
  Fe  Fe12      1.0  0.31942  0.17955  0.91933  1.0000
  N   N8        1.0  0.07366  0.23366  0.89672  1.0000
  H   H74       1.0  0.21009  0.04048  0.83203  1.0000
  Fe  Fe13      1.0  0.02170  0.24616  0.92752  1.0000
  H   H75       1.0  0.24503  0.01937  0.86051  1.0000
  C   C52       1.0  0.23223  0.03885  0.89724  1.0000
  C   C53       1.0  0.08479  0.22941  0.87208  1.0000
  H   H76       1.0  0.07899  0.21454  0.93076  1.0000
  H   H77       1.0  0.30707  0.17639  0.99268  1.0000
  H   H78       1.0  0.20498  0.04753  0.86772  1.0000
  C   C54       1.0  0.08093  0.22977  0.92610  1.0000
  H   H79       1.0  0.06789  0.25756  0.90981  1.0000
  C   C55       1.0  0.29990  0.21602  0.85464  1.0000
  H   H80       1.0  0.28809  0.21853  0.84229  1.0000
  C   C56       1.0  0.28377  0.20715  0.98130  1.0000
  H   H81       1.0  0.07940  0.23199  0.84969  1.0000
  H   H82       1.0  0.04635  0.22443  0.87540  1.0000
  H   H83       1.0  0.31337  0.02109  0.94562  1.0000
  H   H84       1.0  0.30172  0.20339  0.84646  1.0000
  S   S25       1.0  0.00241  0.21871  0.91044  1.0000
  H   H85       1.0  0.10078  0.23847  0.87100  1.0000
  S   S26       1.0  0.29794  0.11729  0.86780  1.0000
  N   N9        1.0  0.32002  0.02577  0.99146  1.0000
  S   S27       1.0  0.30314  0.19729  0.93632  1.0000
  S   S28       1.0  0.31223  0.17194  0.87253  1.0000
  H   H86       1.0  0.32712  0.07712  0.86804  1.0000
  C   C57       1.0  0.23909  0.02950  0.84920  1.0000
  C   C58       1.0  0.28424  0.06036  0.88642  1.0000
  C   C59       1.0  0.28651  0.05811  0.91734  1.0000
  H   H87       1.0  0.28552  0.08026  0.84769  1.0000
  C   C60       1.0  0.32345  0.03199  0.95861  1.0000
  H   H88       1.0  0.32108  0.04548  0.95288  1.0000
  H   H89       1.0  0.27960  0.04803  0.87419  1.0000
  H   H90       1.0  0.22088  0.03985  0.91342  1.0000
  C   C61       1.0  0.29392  0.09471  0.88723  1.0000
  C   C62       1.0  0.29685  0.09252  0.91791  1.0000
  C   C63       1.0  0.29303  0.07425  0.93292  1.0000
  C   C64       1.0  0.28766  0.07859  0.87150  1.0000
  H   H91       1.0  0.30169  0.10485  0.93021  1.0000
  H   H92       1.0  0.29489  0.07263  0.95685  1.0000
  H   H93       1.0  0.28040  0.21573  0.96331  1.0000
  S   S29       1.0  0.32048  0.15082  0.93494  1.0000
  H   H94       1.0  0.04994  0.20608  0.89986  1.0000
  H   H95       1.0  0.23309  0.02366  0.82809  1.0000
  H   H96       1.0  0.07117  0.25747  0.86974  1.0000
  H   H97       1.0  0.22868  0.05972  0.84728  1.0000
  H   H98       1.0  0.31461  0.24051  0.80379  1.0000
  C   C65       1.0  0.05253  0.22152  0.89689  1.0000
  H   H99       1.0  0.07282  0.23295  0.94511  1.0000
  H   H100      1.0  0.29455  0.21202  0.87900  1.0000
  H   H101      1.0  0.31021  0.24653  0.88513  1.0000
  H   H102      1.0  0.29562  0.03449  0.99677  1.0000
  S   S30       1.0  0.99667  0.25581  0.93326  1.0000
  H   H103      1.0  0.19522  0.01414  0.89121  1.0000
  C   C66       1.0  0.31545  0.24946  0.86070  1.0000
  H   H104      1.0  0.32774  0.22495  0.80905  1.0000
  H   H105      1.0  0.32898  0.10077  0.82529  1.0000
  H   H106      1.0  0.28894  0.01030  0.98930  1.0000
  H   H107      1.0  0.32914  0.22601  0.89221  1.0000
  C   C67       1.0  0.08189  0.33809  0.23953  1.0000
  S   S31       1.0  0.03367  0.48939  0.29082  1.0000
  Fe  Fe14      1.0  0.07700  0.41173  0.27381  1.0000
  H   H108      1.0  0.07863  0.29560  0.27574  1.0000
  S   S32       1.0  0.06399  0.42854  0.24329  1.0000
  Fe  Fe15      1.0  0.10465  0.39015  0.27247  1.0000
  H   H109      1.0  0.10578  0.36249  0.02283  1.0000
  S   S33       1.0  0.12738  0.38138  0.24872  1.0000
  Fe  Fe16      1.0  0.06428  0.37212  0.30708  1.0000
  H   H110      1.0  0.30676  0.27318  0.31137  1.0000
  H   H111      1.0  0.05367  0.31929  0.28426  1.0000
  S   S34       1.0  0.07406  0.38357  0.25863  1.0000
  S   S35       1.0  0.10869  0.41955  0.28388  1.0000
  Fe  Fe17      1.0  0.13663  0.31401  0.04485  1.0000
  S   S36       1.0  0.12591  0.30669  0.09418  1.0000
  H   H112      1.0  0.10713  0.34630  0.28414  1.0000
  Fe  Fe18      1.0  0.17903  0.33891  0.05954  1.0000
  S   S37       1.0  0.17084  0.33427  0.10949  1.0000
  S   S38       1.0  0.21009  0.35219  0.03647  1.0000
  Fe  Fe19      1.0  0.15486  0.30374  0.10135  1.0000
  H   H113      1.0  0.02067  0.37591  0.28985  1.0000
  Fe  Fe20      1.0  0.14267  0.33778  0.09835  1.0000
  S   S39       1.0  0.12485  0.35358  0.11779  1.0000
  S   S40       1.0  0.16415  0.30816  0.05185  1.0000
  S   S41       1.0  0.15245  0.34531  0.04866  1.0000
  H   H114      1.0  0.06643  0.44379  0.30148  1.0000
  C   C68       1.0  0.23042  0.36659  0.05457  1.0000
  H   H115      1.0  0.05430  0.46764  0.31953  1.0000
  H   H116      1.0  0.24926  0.39406  0.00098  1.0000
  H   H117      1.0  0.06974  0.31508  0.31098  1.0000
  H   H118      1.0  0.30130  0.43259  0.17521  1.0000
  C   C69       1.0  0.22900  0.37971  0.07347  1.0000
  C   C70       1.0  0.25292  0.32086  0.06809  1.0000
  C   C71       1.0  0.30965  0.32171  0.05855  1.0000
  C   C72       1.0  0.31080  0.28690  0.29640  1.0000
  H   H119      1.0  0.21480  0.38023  0.07918  1.0000
  C   C73       1.0  0.17152  0.26784  0.12185  1.0000
  H   H120      1.0  0.09170  0.33839  0.21969  1.0000
  H   H121      1.0  0.30962  0.32346  0.03419  1.0000
  C   C74       1.0  0.06914  0.32450  0.29071  1.0000
  C   C75       1.0  0.24893  0.36623  0.04709  1.0000
  C   C76       1.0  0.00169  0.32610  0.30548  1.0000
  H   H122      1.0  0.03055  0.47273  0.23425  1.0000
  C   C77       1.0  0.12659  0.37400  0.21207  1.0000
  C   C78       1.0  0.13927  0.36512  0.20341  1.0000
  C   C79       1.0  0.13886  0.35866  0.17476  1.0000
  C   C80       1.0  0.12582  0.36116  0.15434  1.0000
  C   C81       1.0  0.11308  0.36998  0.16304  1.0000
  C   C82       1.0  0.11343  0.37636  0.19174  1.0000
  H   H123      1.0  0.14956  0.36329  0.21892  1.0000
  H   H124      1.0  0.14878  0.35195  0.16835  1.0000
  H   H125      1.0  0.10301  0.37208  0.14738  1.0000
  H   H126      1.0  0.10368  0.38328  0.19800  1.0000
  Fe  Fe21      1.0  0.01142  0.49728  0.26473  1.0000
  C   C83       1.0  0.02694  0.34166  0.26460  1.0000
  H   H127      1.0  0.07249  0.33895  0.29775  1.0000
  H   H128      1.0  0.04213  0.34963  0.25674  1.0000
  C   C84       1.0  0.05548  0.44505  0.25755  1.0000
  C   C85       1.0  0.04533  0.45333  0.23876  1.0000
  C   C86       1.0  0.03821  0.46651  0.24910  1.0000
  C   C87       1.0  0.04138  0.47180  0.27820  1.0000
  C   C88       1.0  0.05164  0.46356  0.29703  1.0000
  C   C89       1.0  0.05852  0.45006  0.28686  1.0000
  H   H129      1.0  0.04293  0.44951  0.21607  1.0000
  C   C90       1.0  0.07809  0.30582  0.25654  1.0000
  H   H130      1.0  0.09484  0.31235  0.05452  1.0000
  H   H131      1.0  0.01025  0.40977  0.23434  1.0000
  N   N10       1.0  0.08629  0.33642  0.04890  1.0000
  S   S42       1.0  0.00664  0.49082  0.21716  1.0000
  H   H132      1.0  0.29570  0.43865  0.13757  1.0000
  C   C91       1.0  0.22988  0.28843  0.06796  1.0000
  N   N11       1.0  0.08311  0.32515  0.26555  1.0000
  H   H133      1.0  0.06300  0.30019  0.24862  1.0000
  H   H134      1.0  0.07292  0.30946  0.07688  1.0000
  C   C92       1.0  0.10335  0.33225  0.27538  1.0000
  H   H135      1.0  0.09486  0.27097  0.03141  1.0000
  H   H136      1.0  0.18785  0.26820  0.16102  1.0000
  H   H137      1.0  0.07574  0.35877  0.05413  1.0000
  H   H138      1.0  0.06663  0.33378  0.23237  1.0000
  C   C93       1.0  0.10623  0.34987  0.03701  1.0000
  H   H139      1.0  0.01206  0.42041  0.26878  1.0000
  H   H140      1.0  0.08589  0.35161  0.08691  1.0000
  C   C94       1.0  0.24618  0.39287  0.08378  1.0000
  H   H141      1.0  0.25695  0.33429  0.07883  1.0000
  C   C95       1.0  0.18430  0.26250  0.13972  1.0000
  H   H142      1.0  0.01713  0.33924  0.21963  1.0000
  H   H143      1.0  0.26550  0.31614  0.06966  1.0000
  H   H144      1.0  0.10521  0.32229  0.29378  1.0000
  H   H145      1.0  0.08657  0.35299  0.24514  1.0000
  S   S43       1.0  0.16088  0.28302  0.13522  1.0000
  C   C96       1.0  0.23705  0.30185  0.11508  1.0000
  C   C97       1.0  0.08811  0.27398  0.01146  1.0000
  C   C98       1.0  0.30093  0.30468  0.25693  1.0000
  H   H146      1.0  0.24506  0.40335  0.09770  1.0000
  C   C99       1.0  0.30995  0.31732  0.12146  1.0000
  H   H147      1.0  0.30834  0.42294  0.14372  1.0000
  C   C100      1.0  0.01280  0.33558  0.24359  1.0000
  H   H148      1.0  0.06784  0.50728  0.24437  1.0000
  S   S44       1.0  0.11830  0.31020  0.00363  1.0000
  C   C101      1.0  0.02135  0.33706  0.29559  1.0000
  H   H149      1.0  0.30718  0.27413  0.24160  1.0000
  H   H150      1.0  0.31518  0.30860  0.24328  1.0000
  H   H151      1.0  0.25155  0.32431  0.04370  1.0000
  S   S45       1.0  0.03865  0.34467  0.32236  1.0000
  H   H152      1.0  0.03118  0.40154  0.28712  1.0000
  S   S46       1.0  0.06463  0.39961  0.32136  1.0000
  H   H153      1.0  0.28014  0.37890  0.05128  1.0000
  C   C102      1.0  0.32081  0.33508  0.10484  1.0000
  H   H154      1.0  0.28154  0.26978  0.24015  1.0000
  C   C103      1.0  0.32085  0.33715  0.07336  1.0000
  H   H155      1.0  0.31002  0.31568  0.14581  1.0000
  H   H156      1.0  0.11371  0.34295  0.02282  1.0000
  C   C104      1.0  0.02122  0.38922  0.27642  1.0000
  S   S47       1.0  0.09457  0.37653  0.32049  1.0000
  H   H157      1.0  0.24188  0.28292  0.06951  1.0000
  N   N12       1.0  0.29538  0.28605  0.27562  1.0000
  H   H158      1.0  0.09655  0.32467  0.08728  1.0000
  H   H159      1.0  0.24029  0.31475  0.12701  1.0000
  H   H160      1.0  0.21607  0.27689  0.07849  1.0000
  H   H161      1.0  0.24944  0.29697  0.11785  1.0000
  H   H162      1.0  0.11575  0.35521  0.05565  1.0000
  N   N13       1.0  0.23448  0.30598  0.08281  1.0000
  C   C105      1.0  0.07112  0.25978  0.00245  1.0000
  H   H163      1.0  0.32212  0.45950  0.09982  1.0000
  Fe  Fe22      1.0  0.31535  0.40705  0.07788  1.0000
  S   S48       1.0  0.31928  0.38308  0.05688  1.0000
  S   S49       1.0  0.28632  0.41034  0.08681  1.0000
  H   H164      1.0  0.22782  0.29101  0.04358  1.0000
  C   C106      1.0  0.26599  0.37915  0.05771  1.0000
  S   S50       1.0  0.28408  0.28534  0.05609  1.0000
  H   H165      1.0  0.00185  0.40021  0.31789  1.0000
  H   H166      1.0  0.25013  0.35617  0.03245  1.0000
  C   C107      1.0  0.29872  0.30181  0.10662  1.0000
  C   C108      1.0  0.29850  0.30411  0.07517  1.0000
  C   C109      1.0  0.07432  0.32953  0.02340  1.0000
  H   H167      1.0  0.07293  0.34151  0.00863  1.0000
  H   H168      1.0  0.08857  0.30587  0.23779  1.0000
  H   H169      1.0  0.29019  0.28817  0.11952  1.0000
  H   H170      1.0  0.32521  0.28986  0.28387  1.0000
  C   C110      1.0  0.21815  0.31273  0.08015  1.0000
  C   C111      1.0  0.07702  0.34626  0.06754  1.0000
  H   H171      1.0  0.06198  0.33654  0.07707  1.0000
  H   H172      1.0  0.26450  0.28112  0.27861  1.0000
  C   C112      1.0  0.08769  0.32000  0.06773  1.0000
  H   H173      1.0  0.11450  0.33440  0.25632  1.0000
  H   H174      1.0  0.31858  0.46692  0.18092  1.0000
  H   H175      1.0  0.30340  0.27002  0.00927  1.0000
  H   H176      1.0  0.28960  0.30440  0.24086  1.0000
  H   H177      1.0  0.02830  0.39002  0.25354  1.0000
  H   H178      1.0  0.22120  0.32614  0.09067  1.0000
  H   H179      1.0  0.20405  0.30194  0.09142  1.0000
  H   H180      1.0  0.05920  0.31923  0.03147  1.0000
  H   H181      1.0  0.30245  0.31630  0.27117  1.0000
  C   C113      1.0  0.26478  0.39278  0.07565  1.0000
  H   H182      1.0  0.08111  0.32207  0.00902  1.0000
  C   C114      1.0  0.29331  0.27108  0.25577  1.0000
  H   H183      1.0  0.21559  0.31578  0.05610  1.0000
  H   H184      1.0  0.22351  0.29049  0.12682  1.0000
  C   C115      1.0  0.30705  0.43599  0.15105  1.0000
  N   N14       1.0  0.00140  0.38975  0.27474  1.0000
  H   H185      1.0  0.99734  0.32236  0.32944  1.0000
  H   H186      1.0  0.31296  0.29823  0.31146  1.0000
  C   C116      1.0  0.32371  0.46941  0.15651  1.0000
  C   C117      1.0  0.00304  0.40792  0.25747  1.0000
  H   H187      1.0  0.31272  0.47312  0.14362  1.0000
  C   C118      1.0  0.27647  0.28152  0.29341  1.0000
  C   C119      1.0  0.16691  0.26043  0.09438  1.0000
  H   H188      1.0  0.27761  0.29221  0.30932  1.0000
  H   H189      1.0  0.15693  0.26437  0.08061  1.0000
  H   H190      1.0  0.27155  0.26732  0.30716  1.0000
  N   N15       1.0  0.32614  0.45248  0.14641  1.0000
  Fe  Fe23      1.0  0.09593  0.40519  0.33090  1.0000
  H   H191      1.0  0.05061  0.50586  0.19745  1.0000
  H   H192      1.0  0.31464  0.26751  0.07300  1.0000
  C   C120      1.0  0.32646  0.27190  0.05431  1.0000
  H   H193      1.0  0.32767  0.28619  0.04370  1.0000
  S   S51       1.0  0.10867  0.41816  0.37296  1.0000
  Fe  Fe24      1.0  0.15790  0.30513  0.62973  1.0000
  S   S52       1.0  0.16798  0.31016  0.58015  1.0000
  H   H194      1.0  0.24013  0.28114  0.54143  1.0000
  Fe  Fe25      1.0  0.19778  0.33302  0.64771  1.0000
  S   S53       1.0  0.21095  0.34035  0.59978  1.0000
  Fe  Fe26      1.0  0.18170  0.34100  0.58802  1.0000
  S   S54       1.0  0.18180  0.36541  0.55517  1.0000
  Fe  Fe27      1.0  0.19640  0.30894  0.59558  1.0000
  N   N16       1.0  0.06857  0.30820  0.58477  1.0000
  S   S55       1.0  0.16964  0.33618  0.63607  1.0000
  S   S56       1.0  0.18521  0.30144  0.64484  1.0000
  Fe  Fe28      1.0  0.06711  0.37851  0.61161  1.0000
  S   S57       1.0  0.08603  0.40662  0.62629  1.0000
  S   S58       1.0  0.05399  0.35211  0.64498  1.0000
  Fe  Fe29      1.0  0.07148  0.39426  0.54531  1.0000
  S   S59       1.0  0.09046  0.42379  0.55426  1.0000
  S   S60       1.0  0.06106  0.38379  0.50076  1.0000
  Fe  Fe30      1.0  0.10536  0.40894  0.58469  1.0000
  S   S61       1.0  0.13845  0.42029  0.58217  1.0000
  Fe  Fe31      1.0  0.06933  0.41886  0.59519  1.0000
  S   S62       1.0  0.05573  0.44029  0.60443  1.0000
  S   S63       1.0  0.08791  0.37979  0.57265  1.0000
  S   S64       1.0  0.04896  0.39045  0.58346  1.0000
  C   C121      1.0  0.23016  0.27935  0.49644  1.0000
  H   H195      1.0  0.06505  0.42332  0.50201  1.0000
  C   C122      1.0  0.03960  0.43338  0.53307  1.0000
  H   H196      1.0  0.15888  0.41182  0.45908  1.0000
  H   H197      1.0  0.24352  0.37325  0.65132  1.0000
  C   C123      1.0  0.02634  0.43522  0.48465  1.0000
  H   H198      1.0  0.01057  0.40148  0.51884  1.0000
  H   H199      1.0  0.03510  0.46191  0.62879  1.0000
  C   C124      1.0  0.06850  0.29785  0.55837  1.0000
  N   N17       1.0  0.19863  0.39262  0.65201  1.0000
  H   H200      1.0  0.10024  0.32052  0.58370  1.0000
  C   C125      1.0  0.05656  0.42993  0.48810  1.0000
  C   C126      1.0  0.01366  0.32257  0.59048  1.0000
  C   C127      1.0  0.02866  0.33729  0.60205  1.0000
  C   C128      1.0  0.19461  0.40859  0.63622  1.0000
  N   N18       1.0  0.03702  0.42591  0.50349  1.0000
  H   H201      1.0  0.32776  0.34804  0.39591  1.0000
  H   H202      1.0  0.03648  0.35054  0.58788  1.0000
  C   C129      1.0  0.21556  0.28986  0.53789  1.0000
  C   C130      1.0  0.20209  0.29263  0.51861  1.0000
  C   C131      1.0  0.20247  0.28851  0.48855  1.0000
  C   C132      1.0  0.12794  0.40486  0.49894  1.0000
  H   H203      1.0  0.03293  0.39770  0.52332  1.0000
  H   H204      1.0  0.19121  0.29772  0.52697  1.0000
  C   C133      1.0  0.10647  0.27555  0.63739  1.0000
  H   H205      1.0  0.04819  0.44907  0.53071  1.0000
  H   H206      1.0  0.07922  0.33570  0.55815  1.0000
  S   S65       1.0  0.12781  0.28869  0.65467  1.0000
  C   C134      1.0  0.22959  0.28321  0.52666  1.0000
  C   C135      1.0  0.16980  0.38013  0.56577  1.0000
  C   C136      1.0  0.17791  0.39938  0.55397  1.0000
  C   C137      1.0  0.16835  0.41154  0.56003  1.0000
  C   C138      1.0  0.15019  0.40444  0.57703  1.0000
  C   C139      1.0  0.14196  0.38514  0.58913  1.0000
  C   C140      1.0  0.15197  0.37302  0.58392  1.0000
  H   H207      1.0  0.19168  0.40493  0.53998  1.0000
  H   H208      1.0  0.17483  0.42644  0.55082  1.0000
  H   H209      1.0  0.12799  0.37964  0.60258  1.0000
  H   H210      1.0  0.14560  0.35810  0.59300  1.0000
  C   C141      1.0  0.09473  0.40907  0.40803  1.0000
  C   C142      1.0  0.10086  0.41870  0.43344  1.0000
  C   C143      1.0  0.09057  0.41126  0.46199  1.0000
  C   C144      1.0  0.07412  0.39406  0.46531  1.0000
  C   C145      1.0  0.06779  0.38462  0.43983  1.0000
  C   C146      1.0  0.07805  0.39207  0.41129  1.0000
  H   H211      1.0  0.11368  0.43194  0.43095  1.0000
  H   H212      1.0  0.09539  0.41884  0.48134  1.0000
  H   H213      1.0  0.05500  0.37137  0.44216  1.0000
  H   H214      1.0  0.07319  0.38455  0.39186  1.0000
  S   S66       1.0  0.25061  0.27780  0.37071  1.0000
  C   C147      1.0  0.00921  0.30225  0.63759  1.0000
  H   H215      1.0  0.31525  0.30226  0.47786  1.0000
  C   C148      1.0  0.10733  0.27182  0.60740  1.0000
  H   H216      1.0  0.06708  0.33473  0.59425  1.0000
  H   H217      1.0  0.02429  0.39869  0.48652  1.0000
  H   H218      1.0  0.05286  0.32427  0.56408  1.0000
  H   H219      1.0  0.05453  0.29458  0.54710  1.0000
  H   H220      1.0  0.03743  0.29374  0.59648  1.0000
  H   H221      1.0  0.06977  0.28394  0.56518  1.0000
  C   C149      1.0  0.08989  0.26165  0.59427  1.0000
  H   H222      1.0  0.02524  0.43048  0.54574  1.0000
  H   H223      1.0  0.18887  0.41591  0.65233  1.0000
  C   C150      1.0  0.02565  0.40506  0.50819  1.0000
  C   C151      1.0  0.08713  0.31193  0.59947  1.0000
  H   H224      1.0  0.22009  0.39355  0.61703  1.0000
  H   H225      1.0  0.00988  0.32464  0.56756  1.0000
  C   C152      1.0  0.04991  0.44315  0.64214  1.0000
  H   H226      1.0  0.24116  0.27446  0.48802  1.0000
  H   H227      1.0  0.13090  0.41792  0.48287  1.0000
  H   H228      1.0  0.06552  0.44552  0.48387  1.0000
  H   H229      1.0  0.05162  0.30357  0.62716  1.0000
  S   S67       1.0  0.21496  0.29393  0.57628  1.0000
  C   C153      1.0  0.20619  0.38341  0.62968  1.0000
  C   C154      1.0  0.12231  0.38549  0.45778  1.0000
  H   H230      1.0  0.11203  0.39899  0.50691  1.0000
  C   C155      1.0  0.21642  0.28179  0.47734  1.0000
  H   H231      1.0  0.08098  0.30618  0.54140  1.0000
  C   C156      1.0  0.03398  0.33451  0.63137  1.0000
  H   H232      1.0  0.11265  0.36690  0.51402  1.0000
  H   H233      1.0  0.12583  0.37455  0.44672  1.0000
  H   H234      1.0  0.19177  0.29042  0.47395  1.0000
  H   H235      1.0  0.12142  0.27666  0.59443  1.0000
  H   H236      1.0  0.02416  0.42983  0.46218  1.0000
  C   C157      1.0  0.30978  0.29174  0.43449  1.0000
  H   H237      1.0  0.10611  0.37965  0.46369  1.0000
  N   N19       1.0  0.13342  0.39062  0.48473  1.0000
  H   H238      1.0  0.13637  0.40941  0.51894  1.0000
  C   C158      1.0  0.15477  0.39877  0.47562  1.0000
  H   H239      1.0  0.15946  0.38836  0.46498  1.0000
  C   C159      1.0  0.02403  0.31708  0.64932  1.0000
  H   H240      1.0  0.29591  0.29353  0.43332  1.0000
  H   H241      1.0  0.12579  0.39811  0.44049  1.0000
  C   C160      1.0  0.12865  0.37338  0.50664  1.0000
  H   H242      1.0  0.16358  0.40280  0.49544  1.0000
  H   H243      1.0  0.05527  0.42406  0.46599  1.0000
  C   C161      1.0  0.05173  0.29648  0.60653  1.0000
  C   C162      1.0  0.00422  0.30493  0.60803  1.0000
  H   H244      1.0  0.01156  0.43254  0.49567  1.0000
  H   H245      1.0  0.13278  0.36237  0.49689  1.0000
  H   H246      1.0  0.13677  0.37684  0.52722  1.0000
  H   H247      1.0  0.05225  0.28233  0.61387  1.0000
  H   H248      1.0  0.20813  0.41942  0.62352  1.0000
  C   C163      1.0  0.06687  0.32653  0.57480  1.0000
  H   H249      1.0  0.20926  0.37122  0.64079  1.0000
  H   H250      1.0  0.27558  0.39713  0.66331  1.0000
  H   H251      1.0  0.08765  0.31974  0.61949  1.0000
  H   H252      1.0  0.19539  0.37773  0.61275  1.0000
  C   C164      1.0  0.08808  0.26906  0.65408  1.0000
  C   C165      1.0  0.03957  0.45488  0.64764  1.0000
  Fe  Fe32      1.0  0.27395  0.26757  0.38565  1.0000
  S   S68       1.0  0.30633  0.28389  0.37588  1.0000
  C   C166      1.0  0.32069  0.29664  0.45971  1.0000
  S   S69       1.0  0.21505  0.27533  0.44013  1.0000
  H   H253      1.0  0.32791  0.32479  0.39351  1.0000
  C   C167      1.0  0.31762  0.28606  0.40987  1.0000
  H   H254      1.0  0.08875  0.29841  0.60758  1.0000
  H   H255      1.0  0.03457  0.45097  0.48063  1.0000
  H   H256      1.0  0.04771  0.42667  0.54766  1.0000
  H   H257      1.0  0.18337  0.40346  0.61963  1.0000
  H   H258      1.0  0.06364  0.42515  0.66281  1.0000
  Fe  Fe33      1.0  0.23440  0.26314  0.41560  1.0000
  H   H259      1.0  0.00165  0.28874  0.65140  1.0000
  H   H260      1.0  0.22780  0.41005  0.66258  1.0000
  H   H261      1.0  0.16861  0.37289  0.65228  1.0000
  H   H262      1.0  0.27601  0.33823  0.66083  1.0000
  N   N20       1.0  0.01268  0.28411  0.77831  1.0000
  H   H263      1.0  0.03347  0.31270  0.76441  1.0000
  S   S70       1.0  0.01483  0.49554  0.74892  1.0000
  C   C168      1.0  0.03291  0.50867  0.90868  1.0000
  Fe  Fe34      1.0  0.01793  0.46715  0.75851  1.0000
  S   S71       1.0  0.03681  0.45241  0.73977  1.0000
  H   H264      1.0  0.01571  0.41699  0.83080  1.0000
  S   S72       1.0  0.02490  0.47221  0.80625  1.0000
  H   H265      1.0  0.00770  0.46068  0.92432  1.0000
  C   C169      1.0  0.04120  0.44895  0.70187  1.0000
  H   H266      1.0  0.05628  0.43041  0.71508  1.0000
  C   C170      1.0  0.07040  0.28136  0.95956  1.0000
  C   C171      1.0  0.08755  0.29544  0.96829  1.0000
  H   H267      1.0  0.06368  0.28439  0.93959  1.0000
  H   H268      1.0  0.09395  0.30922  0.95478  1.0000
  H   H269      1.0  0.08735  0.27183  0.67734  1.0000
  C   C172      1.0  0.06217  0.26336  0.97647  1.0000
  H   H270      1.0  0.00652  0.30589  0.97681  1.0000
  H   H271      1.0  0.26204  0.31209  0.71990  1.0000
  H   H272      1.0  0.28192  0.36038  0.67647  1.0000
  C   C173      1.0  0.00357  0.48861  0.88757  1.0000
  H   H273      1.0  0.02578  0.46911  0.87383  1.0000
  H   H274      1.0  0.28563  0.31226  0.72925  1.0000
  H   H275      1.0  0.04765  0.48387  0.88978  1.0000
  N   N21       1.0  0.26142  0.39022  0.95862  1.0000
  H   H276      1.0  0.03017  0.28423  0.73840  1.0000
  C   C174      1.0  0.01477  0.27740  0.74884  1.0000
  H   H277      1.0  0.00499  0.28050  0.73250  1.0000
  H   H278      1.0  0.25978  0.34030  0.69009  1.0000
  H   H279      1.0  0.25212  0.36206  0.94486  1.0000
  H   H280      1.0  0.99881  0.41793  0.75355  1.0000
  C   C175      1.0  0.31535  0.31296  0.76806  1.0000
  N   N22       1.0  0.02167  0.48914  0.90145  1.0000
  H   H281      1.0  0.27301  0.39235  0.91273  1.0000
  H   H282      1.0  0.17422  0.38490  0.68547  1.0000
  H   H283      1.0  0.00067  0.37311  0.79193  1.0000
  C   C176      1.0  0.23450  0.36086  0.69757  1.0000
  C   C177      1.0  0.21346  0.39987  0.67399  1.0000
  C   C178      1.0  0.03511  0.45769  0.67741  1.0000
  C   C179      1.0  0.23996  0.36161  0.72743  1.0000
  C   C180      1.0  0.27788  0.31739  0.71163  1.0000
  C   C181      1.0  0.28504  0.34686  0.73334  1.0000
  H   H284      1.0  0.31467  0.43028  0.92725  1.0000
  C   C182      1.0  0.01007  0.38644  0.80090  1.0000
  H   H285      1.0  0.22993  0.35189  0.74552  1.0000
  H   H286      1.0  0.01733  0.29648  0.92978  1.0000
  S   S73       1.0  0.21102  0.34418  0.69096  1.0000
  Fe  Fe35      1.0  0.00542  0.26963  0.88555  1.0000
  C   C183      1.0  0.01595  0.41934  0.80574  1.0000
  Fe  Fe36      1.0  0.31750  0.40371  0.82763  1.0000
  C   C184      1.0  0.24639  0.37079  0.95809  1.0000
  H   H287      1.0  0.04153  0.28635  0.78996  1.0000
  S   S74       1.0  0.00528  0.29829  0.86929  1.0000
  C   C185      1.0  0.01626  0.47551  0.92932  1.0000
  H   H288      1.0  0.01891  0.41043  0.74935  1.0000
  C   C186      1.0  0.27915  0.38899  0.97164  1.0000
  H   H289      1.0  0.27891  0.31054  0.69104  1.0000
  C   C187      1.0  0.32335  0.30718  0.74364  1.0000
  H   H290      1.0  0.21629  0.38799  0.68681  1.0000
  H   H291      1.0  0.02811  0.31490  0.67201  1.0000
  C   C188      1.0  0.26679  0.40008  0.92744  1.0000
  H   H292      1.0  0.24151  0.36313  0.98133  1.0000
  H   H293      1.0  0.02546  0.39038  0.79118  1.0000
  H   H294      1.0  0.23296  0.37120  0.94787  1.0000
  C   C189      1.0  0.00368  0.40602  0.76011  1.0000
  H   H295      1.0  0.30196  0.30315  0.78077  1.0000
  C   C190      1.0  0.00728  0.30379  0.92896  1.0000
  H   H296      1.0  0.31431  0.36076  0.68931  1.0000
  H   H297      1.0  0.31599  0.34051  0.71103  1.0000
  C   C191      1.0  0.01797  0.30498  0.77410  1.0000
  C   C192      1.0  0.09654  0.29186  0.99423  1.0000
  H   H298      1.0  0.27816  0.41476  0.92689  1.0000
  H   H299      1.0  0.20849  0.40731  0.69082  1.0000
  S   S75       1.0  0.03188  0.26210  0.88108  1.0000
  H   H300      1.0  0.27552  0.38057  0.99432  1.0000
  C   C193      1.0  0.25334  0.40103  0.97726  1.0000
  C   C194      1.0  0.32170  0.42011  0.92841  1.0000
  Fe  Fe37      1.0  0.31014  0.40055  0.76076  1.0000
  S   S76       1.0  0.29565  0.38124  0.80342  1.0000
  S   S77       1.0  0.29465  0.40413  0.71861  1.0000
  H   H301      1.0  0.26945  0.34246  0.74236  1.0000
  S   S78       1.0  0.31336  0.33899  0.80465  1.0000
  H   H302      1.0  0.00702  0.47916  0.94602  1.0000
  S   S79       1.0  0.31010  0.41375  0.87122  1.0000
  C   C195      1.0  0.25829  0.37477  0.73415  1.0000
  H   H303      1.0  0.02729  0.46685  0.68137  1.0000
  H   H304      1.0  0.00986  0.38310  0.82582  1.0000
  H   H305      1.0  0.03149  0.42426  0.79606  1.0000
  H   H306      1.0  0.02475  0.28459  0.82154  1.0000
  H   H307      1.0  0.26422  0.41580  0.97812  1.0000
  C   C196      1.0  0.05141  0.43715  0.69635  1.0000
  C   C197      1.0  0.03390  0.48371  0.88007  1.0000
  H   H308      1.0  0.00833  0.30894  0.75847  1.0000
  C   C198      1.0  0.27126  0.38761  0.71110  1.0000
  C   C199      1.0  0.00135  0.30930  0.95550  1.0000
  H   H309      1.0  0.09207  0.26359  0.89211  1.0000
  H   H310      1.0  0.28649  0.38213  0.95705  1.0000
  N   N23       1.0  0.28646  0.33843  0.70529  1.0000
  H   H311      1.0  0.26229  0.37510  0.75724  1.0000
  Fe  Fe38      1.0  0.31988  0.37041  0.79796  1.0000
  H   H312      1.0  0.25382  0.40130  0.91677  1.0000
  C   C200      1.0  0.02586  0.27958  0.79915  1.0000
  H   H313      1.0  0.01082  0.26170  0.75133  1.0000
  H   H314      1.0  0.30913  0.33881  0.67298  1.0000
  H   H315      1.0  0.18267  0.36611  0.67998  1.0000
  H   H316      1.0  0.29160  0.36274  0.72948  1.0000
  H   H317      1.0  0.01650  0.31041  0.79604  1.0000
  C   C201      1.0  0.27557  0.34459  0.68215  1.0000
  H   H318      1.0  0.31622  0.29288  0.73761  1.0000
  H   H319      1.0  0.02210  0.26394  0.80320  1.0000
  C   C202      1.0  0.26564  0.38719  0.68127  1.0000
  H   H320      1.0  0.29295  0.34237  0.75139  1.0000
  H   H321      1.0  0.03834  0.49376  0.85882  1.0000
  Fe  Fe39      1.0  0.01870  0.49875  0.79810  1.0000
  N   N24       1.0  0.00308  0.40201  0.79332  1.0000
  C   C203      1.0  0.24748  0.37367  0.67441  1.0000
  H   H322      1.0  0.01113  0.43136  0.80024  1.0000
  H   H323      1.0  0.02956  0.47543  0.94034  1.0000
  C   C204      1.0  0.30739  0.34491  0.69408  1.0000
  H   H324      1.0  0.23980  0.40204  0.96832  1.0000
  H   H325      1.0  0.00711  0.49904  0.86685  1.0000
  C   C205      1.0  0.32435  0.33157  0.77552  1.0000
  H   H326      1.0  0.29018  0.40337  0.97444  1.0000
  C   C206      1.0  0.32161  0.40985  0.90383  1.0000
  C   C207      1.0  0.00018  0.30768  0.90148  1.0000
  C   C208      1.0  0.05565  0.43416  0.66668  1.0000
  C   C209      1.0  0.18022  0.37853  0.66815  1.0000
  C   C210      1.0  0.99779  0.75663  0.22683  1.0000
  H   H327      1.0  0.10815  0.73604  0.19988  1.0000
  S   S80       1.0  0.02022  0.53711  0.16255  1.0000
  H   H328      1.0  0.08067  0.55775  0.18257  1.0000
  Fe  Fe40      1.0  0.09762  0.67836  0.05608  1.0000
  C   C211      1.0  0.10814  0.74085  0.17551  1.0000
  S   S81       1.0  0.11131  0.71066  0.04604  1.0000
  Fe  Fe41      1.0  0.08420  0.63835  0.09149  1.0000
  S   S82       1.0  0.06524  0.62416  0.05566  1.0000
  S   S83       1.0  0.08376  0.62204  0.13709  1.0000
  Fe  Fe42      1.0  0.09042  0.64341  0.02286  1.0000
  Fe  Fe43      1.0  0.05585  0.64886  0.05397  1.0000
  S   S84       1.0  0.02460  0.64572  0.04889  1.0000
  S   S85       1.0  0.11061  0.65584  0.05881  1.0000
  S   S86       1.0  0.07316  0.66216  0.09178  1.0000
  N   N25       1.0  0.05616  0.71675  0.05312  1.0000
  C   C212      1.0  0.01813  0.75556  0.27905  1.0000
  H   H329      1.0  0.07452  0.74594  0.05709  1.0000
  C   C213      1.0  0.01569  0.65439  0.07862  1.0000
  C   C214      1.0  0.02280  0.65366  0.10713  1.0000
  C   C215      1.0  0.01616  0.66124  0.13058  1.0000
  H   H330      1.0  0.05676  0.70777  0.10020  1.0000
  H   H331      1.0  0.16385  0.73108  0.11608  1.0000
  C   C216      1.0  0.16085  0.75506  0.09006  1.0000
  H   H332      1.0  0.03320  0.64703  0.11133  1.0000
  H   H333      1.0  0.02179  0.66080  0.15260  1.0000
  Fe  Fe44      1.0  0.00615  0.52004  0.20784  1.0000
  H   H334      1.0  0.09370  0.74204  0.17212  1.0000
  S   S87       1.0  0.07914  0.66679  0.01811  1.0000
  C   C217      1.0  0.14056  0.72159  0.08605  1.0000
  C   C218      1.0  0.13029  0.72723  0.06385  1.0000
  C   C219      1.0  0.13540  0.74675  0.05476  1.0000
  H   H335      1.0  0.13680  0.70657  0.09315  1.0000
  Fe  Fe45      1.0  0.02082  0.74768  0.10281  1.0000
  C   C220      1.0  0.03859  0.56038  0.15677  1.0000
  C   C221      1.0  0.04606  0.56836  0.12705  1.0000
  C   C222      1.0  0.06003  0.58713  0.12094  1.0000
  C   C223      1.0  0.06681  0.59812  0.14452  1.0000
  C   C224      1.0  0.05980  0.58997  0.17444  1.0000
  C   C225      1.0  0.04552  0.57121  0.18056  1.0000
  H   H336      1.0  0.04090  0.56001  0.10855  1.0000
  H   H337      1.0  0.06574  0.59300  0.09794  1.0000
  H   H338      1.0  0.06502  0.59839  0.19283  1.0000
  H   H339      1.0  0.03969  0.56525  0.20353  1.0000
  H   H340      1.0  0.04337  0.52487  0.20640  1.0000
  C   C226      1.0  0.04753  0.71248  0.08473  1.0000
  S   S88       1.0  0.01629  0.73499  0.15103  1.0000
  H   H341      1.0  0.14463  0.75261  0.19477  1.0000
  H   H342      1.0  0.02164  0.61673  0.14697  1.0000
  H   H343      1.0  0.10895  0.72942  0.16238  1.0000
  H   H344      1.0  0.04597  0.72519  0.09299  1.0000
  S   S89       1.0  0.01361  0.52764  0.25442  1.0000
  H   H345      1.0  0.06529  0.70240  0.01995  1.0000
  H   H346      1.0  0.05951  0.52539  0.25395  1.0000
  H   H347      1.0  0.00773  0.59470  0.07639  1.0000
  C   C227      1.0  0.01887  0.74463  0.25583  1.0000
  H   H348      1.0  0.00528  0.59651  0.17199  1.0000
  H   H349      1.0  0.06809  0.55513  0.21892  1.0000
  H   H350      1.0  0.13986  0.69365  0.03023  1.0000
  H   H351      1.0  0.03264  0.70087  0.08701  1.0000
  H   H352      1.0  0.08301  0.73569  0.02771  1.0000
  H   H353      1.0  0.02657  0.59545  0.15268  1.0000
  H   H354      1.0  0.08528  0.52965  0.25310  1.0000
  H   H355      1.0  0.08570  0.72911  0.06645  1.0000
  H   H356      1.0  0.04092  0.73506  0.03994  1.0000
  C   C228      1.0  0.04303  0.72222  0.03330  1.0000
  C   C229      1.0  0.15265  0.70260  0.01412  1.0000
  H   H357      1.0  0.14540  0.74619  0.15709  1.0000
  H   H358      1.0  0.09373  0.55895  0.21614  1.0000
  C   C230      1.0  0.05839  0.69963  0.04345  1.0000
  H   H359      1.0  0.02754  0.73590  0.25779  1.0000
  C   C231      1.0  0.07163  0.52298  0.24154  1.0000
  H   H360      1.0  0.02758  0.59322  0.09734  1.0000
  H   H361      1.0  0.00883  0.73602  0.21286  1.0000
  H   H362      1.0  0.06787  0.69489  0.05828  1.0000
  H   H363      1.0  0.04391  0.68750  0.04421  1.0000
  H   H364      1.0  0.12765  0.75125  0.03742  1.0000
  H   H365      1.0  0.02376  0.61510  0.09231  1.0000
  C   C232      1.0  0.14354  0.75701  0.17063  1.0000
  C   C233      1.0  0.07943  0.55155  0.20660  1.0000
  C   C234      1.0  0.05538  0.52167  0.19538  1.0000
  C   C235      1.0  0.15588  0.73549  0.09898  1.0000
  N   N26       1.0  0.00296  0.59342  0.12466  1.0000
  C   C236      1.0  0.07569  0.73258  0.05099  1.0000
  S   S90       1.0  0.00169  0.72045  0.08593  1.0000
  N   N27       1.0  0.07408  0.53068  0.20928  1.0000
  C   C237      1.0  0.00849  0.74491  0.23009  1.0000
  C   C238      1.0  0.01459  0.60087  0.15022  1.0000
  C   C239      1.0  0.01604  0.59932  0.09645  1.0000
  H   H366      1.0  0.04912  0.72557  0.00930  1.0000
  H   H367      1.0  0.05656  0.52697  0.17094  1.0000
  C   C240      1.0  0.00279  0.67000  0.12531  1.0000
  H   H368      1.0  0.12510  0.75418  0.11935  1.0000
  S   S91       1.0  0.03310  0.75654  0.30935  1.0000
  H   H369      1.0  0.02816  0.71056  0.03450  1.0000
  H   H370      1.0  0.09194  0.53208  0.16919  1.0000
  H   H371      1.0  0.15600  0.71772  0.01786  1.0000
  H   H372      1.0  0.00521  0.56602  0.13226  1.0000
  C   C241      1.0  0.00177  0.66254  0.07360  1.0000
  H   H373      1.0  0.10405  0.53292  0.20365  1.0000
  C   C242      1.0  0.08973  0.52645  0.19360  1.0000
  H   H374      1.0  0.16543  0.69905  0.02051  1.0000
  H   H375      1.0  0.08598  0.51077  0.19516  1.0000
  N   N28       1.0  0.12470  0.75922  0.16589  1.0000
  S   S92       1.0  0.99622  0.68108  0.15390  1.0000
  H   H376      1.0  0.99618  0.66305  0.05157  1.0000
  S   S93       1.0  0.99650  0.75846  0.10640  1.0000
  S   S94       1.0  0.03580  0.74260  0.39526  1.0000
  H   H377      1.0  0.10121  0.61330  0.65065  1.0000
  H   H378      1.0  0.12010  0.64674  0.62662  1.0000
  N   N29       1.0  0.03788  0.72018  0.49784  1.0000
  H   H379      1.0  0.01027  0.71401  0.52323  1.0000
  H   H380      1.0  0.04346  0.72727  0.54303  1.0000
  C   C243      1.0  0.04963  0.73269  0.51929  1.0000
  H   H381      1.0  0.05241  0.70049  0.50317  1.0000
  H   H382      1.0  0.02846  0.69096  0.48910  1.0000
  C   C244      1.0  0.13422  0.74644  0.64890  1.0000
  H   H383      1.0  0.03059  0.69441  0.52827  1.0000
  C   C245      1.0  0.01760  0.71968  0.50013  1.0000
  Fe  Fe46      1.0  0.01944  0.75008  0.35748  1.0000
  H   H384      1.0  0.13063  0.71805  0.63980  1.0000
  H   H385      1.0  0.03924  0.71806  0.45017  1.0000
  H   H386      1.0  0.06522  0.73393  0.51760  1.0000
  C   C246      1.0  0.03736  0.70065  0.50501  1.0000
  H   H387      1.0  0.04987  0.74740  0.51461  1.0000
  H   H388      1.0  0.13739  0.75240  0.62539  1.0000
  H   H389      1.0  0.08745  0.63836  0.65364  1.0000
  C   C247      1.0  0.04691  0.72776  0.46678  1.0000
  C   C248      1.0  0.12679  0.64994  0.64842  1.0000
  H   H390      1.0  0.06269  0.72974  0.46459  1.0000
  H   H391      1.0  0.04606  0.74178  0.45975  1.0000
  Fe  Fe47      1.0  0.00707  0.71819  0.40943  1.0000
  H   H392      1.0  0.00834  0.71043  0.48412  1.0000
  S   S95       1.0  0.00593  0.68987  0.43145  1.0000
  H   H393      1.0  0.01747  0.73423  0.49470  1.0000
  H   H394      1.0  0.14085  0.64762  0.64741  1.0000
  H   H395      1.0  0.99726  0.58872  0.37951  1.0000
  C   C249      1.0  0.13033  0.72697  0.65713  1.0000
  H   H396      1.0  0.13054  0.66542  0.65010  1.0000
  H   H397      1.0  0.99905  0.62115  0.38510  1.0000
  H   H398      1.0  0.00653  0.61358  0.33416  1.0000
  S   S96       1.0  0.99587  0.73450  0.43913  1.0000
  Fe  Fe48      1.0  0.08360  0.63628  0.76982  1.0000
  S   S97       1.0  0.07125  0.64389  0.81132  1.0000
  S   S98       1.0  0.07532  0.60825  0.74980  1.0000
  Fe  Fe49      1.0  0.10491  0.67840  0.74226  1.0000
  S   S99       1.0  0.09424  0.68932  0.78129  1.0000
  S   S100      1.0  0.12043  0.69426  0.69686  1.0000
  Fe  Fe50      1.0  0.10127  0.66729  0.81056  1.0000
  S   S101      1.0  0.11630  0.67843  0.85194  1.0000
  Fe  Fe51      1.0  0.06529  0.66528  0.77938  1.0000
  S   S102      1.0  0.03705  0.66988  0.78467  1.0000
  S   S103      1.0  0.11442  0.65811  0.77139  1.0000
  S   S104      1.0  0.07521  0.65605  0.73814  1.0000
  H   H399      1.0  0.02041  0.57570  0.77529  1.0000
  C   C250      1.0  0.12576  0.71891  0.68752  1.0000
  C   C251      1.0  0.07307  0.73702  0.70179  1.0000
  C   C252      1.0  0.12547  0.73058  0.70972  1.0000
  H   H400      1.0  0.06157  0.69939  0.69508  1.0000
  H   H401      1.0  0.12232  0.72463  0.73324  1.0000
  C   C253      1.0  0.10846  0.66423  0.88719  1.0000
  C   C254      1.0  0.10827  0.64574  0.89130  1.0000
  C   C255      1.0  0.10511  0.63584  0.92056  1.0000
  C   C256      1.0  0.10166  0.64417  0.94576  1.0000
  C   C257      1.0  0.10092  0.66230  0.94141  1.0000
  C   C258      1.0  0.10470  0.67244  0.91232  1.0000
  H   H402      1.0  0.11146  0.63941  0.87211  1.0000
  H   H403      1.0  0.10572  0.62182  0.92373  1.0000
  H   H404      1.0  0.09808  0.66877  0.96050  1.0000
  H   H405      1.0  0.10483  0.68674  0.90922  1.0000
  H   H406      1.0  0.16955  0.72697  0.96413  1.0000
  H   H407      1.0  0.13015  0.66958  0.99337  1.0000
  H   H408      1.0  0.03665  0.70276  0.74842  1.0000
  C   C259      1.0  0.02032  0.66045  0.75783  1.0000
  C   C260      1.0  0.02682  0.65753  0.72959  1.0000
  H   H409      1.0  0.14059  0.67630  0.95509  1.0000
  H   H410      1.0  0.06369  0.69195  0.73376  1.0000
  H   H411      1.0  0.09838  0.60826  0.69113  1.0000
  H   H412      1.0  0.04222  0.66152  0.72354  1.0000
  H   H413      1.0  0.03391  0.61908  0.75307  1.0000
  C   C261      1.0  0.04513  0.54810  0.80117  1.0000
  C   C262      1.0  0.04705  0.55089  0.76959  1.0000
  C   C263      1.0  0.05627  0.56943  0.75424  1.0000
  C   C264      1.0  0.06337  0.58535  0.77028  1.0000
  C   C265      1.0  0.06095  0.58265  0.80185  1.0000
  C   C266      1.0  0.05198  0.56406  0.81722  1.0000
  H   H414      1.0  0.04188  0.53872  0.75700  1.0000
  H   H415      1.0  0.05805  0.57139  0.72981  1.0000
  H   H416      1.0  0.06642  0.59480  0.81446  1.0000
  H   H417      1.0  0.05058  0.56203  0.84166  1.0000
  C   C267      1.0  0.12952  0.75007  0.70154  1.0000
  C   C268      1.0  0.07397  0.72563  0.75399  1.0000
  H   H418      1.0  0.06785  0.71347  0.77239  1.0000
  N   N30       1.0  0.11327  0.63797  0.67435  1.0000
  H   H419      1.0  0.12776  0.70259  0.95140  1.0000
  H   H420      1.0  0.08499  0.70806  0.71092  1.0000
  S   S105      1.0  0.03493  0.52494  0.82134  1.0000
  H   H421      1.0  0.03721  0.51919  0.88789  1.0000
  H   H422      1.0  0.01729  0.58669  0.73945  1.0000
  H   H423      1.0  0.17870  0.70813  0.96674  1.0000
  S   S106      1.0  0.10001  0.63232  0.98245  1.0000
  C   C269      1.0  0.12280  0.64281  0.70266  1.0000
  C   C270      1.0  0.06894  0.70428  0.71579  1.0000
  H   H424      1.0  0.08429  0.63268  0.69391  1.0000
  H   H425      1.0  0.99897  0.60178  0.82182  1.0000
  H   H426      1.0  0.12635  0.65806  0.70569  1.0000
  H   H427      1.0  0.02668  0.62543  0.78799  1.0000
  H   H428      1.0  0.09019  0.72957  0.75129  1.0000
  H   H429      1.0  0.01834  0.64709  0.68696  1.0000
  C   C271      1.0  0.01329  0.64954  0.70866  1.0000
  H   H430      1.0  0.03959  0.72695  0.73735  1.0000
  C   C272      1.0  0.00099  0.59038  0.80993  1.0000
  C   C273      1.0  0.00023  0.65579  0.76478  1.0000
  H   H431      1.0  0.16273  0.70951  0.93788  1.0000
  H   H432      1.0  0.03576  0.71054  0.70954  1.0000
  H   H433      1.0  0.08928  0.74148  0.69742  1.0000
  C   C274      1.0  0.14354  0.67914  0.97883  1.0000
  H   H434      1.0  0.07133  0.73793  0.76191  1.0000
  H   H435      1.0  0.13409  0.71953  0.97864  1.0000
  N   N31       1.0  0.14828  0.69944  0.98254  1.0000
  C   C275      1.0  0.13129  0.70447  0.97523  1.0000
  H   H436      1.0  0.03880  0.60886  0.78822  1.0000
  N   N32       1.0  0.06482  0.72050  0.72546  1.0000
  C   C276      1.0  0.16561  0.71156  0.96192  1.0000
  H   H437      1.0  0.02410  0.51335  0.92456  1.0000
  C   C277      1.0  0.02782  0.61339  0.77680  1.0000
  C   C278      1.0  0.04329  0.71500  0.73034  1.0000
  H   H438      1.0  0.11787  0.69535  0.99000  1.0000
  H   H439      1.0  0.15576  0.67462  0.98494  1.0000
  H   H440      1.0  0.07040  0.74961  0.70839  1.0000
  N   N33       1.0  0.00851  0.59735  0.77804  1.0000
  H   H441      1.0  0.11307  0.63393  0.72270  1.0000
  C   C279      1.0  0.01072  0.58170  0.76310  1.0000
  H   H442      1.0  0.13677  0.64036  0.70307  1.0000
  H   H443      1.0  0.99974  0.60955  0.73834  1.0000
  H   H444      1.0  0.01127  0.58535  0.82247  1.0000
  H   H445      1.0  0.06645  0.73361  0.67998  1.0000
  H   H446      1.0  0.12932  0.75901  0.71888  1.0000
  H   H447      1.0  0.12202  0.61422  0.67136  1.0000
  C   C280      1.0  0.09492  0.64163  0.67481  1.0000
  C   C281      1.0  0.13375  0.75806  0.67111  1.0000
  H   H448      1.0  0.09789  0.65684  0.67743  1.0000
  C   C282      1.0  0.10854  0.61756  0.67166  1.0000
  H   H449      1.0  0.99623  0.56979  0.76240  1.0000
  H   H450      1.0  0.04671  0.50966  0.91913  1.0000
  Fe  Fe52      1.0  0.15593  0.82428  0.11740  1.0000
  S   S107      1.0  0.16311  0.81358  0.07526  1.0000
  S   S108      1.0  0.12506  0.81653  0.13901  1.0000
  Fe  Fe53      1.0  0.19925  0.84053  0.13340  1.0000
  S   S109      1.0  0.20933  0.82988  0.09319  1.0000
  S   S110      1.0  0.32669  0.95807  0.25532  1.0000
  Fe  Fe54      1.0  0.18959  0.84147  0.06755  1.0000
  H   H451      1.0  0.28824  0.90359  0.17225  1.0000
  Fe  Fe55      1.0  0.18200  0.80298  0.10402  1.0000
  S   S111      1.0  0.17958  0.77218  0.10760  1.0000
  S   S112      1.0  0.18058  0.85324  0.10726  1.0000
  S   S113      1.0  0.17384  0.81264  0.14666  1.0000
  H   H452      1.0  0.30992  0.91905  0.14887  1.0000
  H   H453      1.0  0.13633  0.77882  0.12535  1.0000
  C   C283      1.0  0.01347  0.80288  0.15487  1.0000
  H   H454      1.0  0.05212  0.79204  0.17670  1.0000
  C   C284      1.0  0.03647  0.79031  0.17571  1.0000
  H   H455      1.0  0.05868  0.80927  0.12349  1.0000
  C   C285      1.0  0.20885  0.88224  0.01029  1.0000
  H   H456      1.0  0.04449  0.83644  0.15137  1.0000
  H   H457      1.0  0.19758  0.88786  0.05197  1.0000
  C   C286      1.0  0.25600  0.89705  0.04177  1.0000
  H   H458      1.0  0.24455  0.85918  0.05477  1.0000
  C   C287      1.0  0.10474  0.80140  0.12185  1.0000
  C   C288      1.0  0.10584  0.79973  0.09098  1.0000
  C   C289      1.0  0.08914  0.78816  0.07770  1.0000
  C   C290      1.0  0.07137  0.77788  0.09528  1.0000
  H   H459      1.0  0.12369  0.77016  0.20842  1.0000
  C   C291      1.0  0.08706  0.79082  0.13956  1.0000
  H   H460      1.0  0.11936  0.80787  0.07711  1.0000
  H   H461      1.0  0.08990  0.78750  0.05358  1.0000
  H   H462      1.0  0.03546  0.79176  0.11598  1.0000
  H   H463      1.0  0.08620  0.79196  0.16351  1.0000
  H   H464      1.0  0.03050  0.78986  0.19922  1.0000
  C   C292      1.0  0.23992  0.86170  0.18239  1.0000
  S   S114      1.0  0.21722  0.85936  0.16739  1.0000
  H   H465      1.0  0.22114  0.87300  0.07027  1.0000
  N   N34       1.0  0.03450  0.80586  0.15531  1.0000
  H   H466      1.0  0.21050  0.92296  0.03785  1.0000
  H   H467      1.0  0.28550  0.95120  0.17226  1.0000
  H   H468      1.0  0.27660  0.91581  0.21648  1.0000
  H   H469      1.0  0.29038  0.93973  0.22448  1.0000
  H   H470      1.0  0.00668  0.80200  0.17800  1.0000
  H   H471      1.0  0.15441  0.77554  0.06035  1.0000
  C   C293      1.0  0.04256  0.80590  0.12440  1.0000
  H   H472      1.0  0.25288  0.91025  0.04196  1.0000
  C   C294      1.0  0.20568  0.89404  0.03029  1.0000
  H   H473      1.0  0.22925  0.89538  0.08544  1.0000
  C   C295      1.0  0.15056  0.76059  0.06780  1.0000
  S   S115      1.0  0.20173  0.85733  0.02057  1.0000
  H   H474      1.0  0.23594  0.87821  0.21685  1.0000
  H   H475      1.0  0.05702  0.77053  0.14017  1.0000
  C   C296      1.0  0.12309  0.77395  0.18387  1.0000
  C   C297      1.0  0.04550  0.82434  0.16635  1.0000
  H   H476      1.0  0.26477  0.91127  0.09455  1.0000
  C   C298      1.0  0.99709  0.76764  0.24998  1.0000
  C   C299      1.0  0.29159  0.92724  0.21480  1.0000
  H   H477      1.0  0.02820  0.77610  0.16826  1.0000
  H   H478      1.0  0.06142  0.82692  0.16723  1.0000
  H   H479      1.0  0.27263  0.92705  0.16471  1.0000
  C   C300      1.0  0.26638  0.89747  0.09265  1.0000
  H   H480      1.0  0.25215  0.85934  0.09261  1.0000
  N   N35       1.0  0.25240  0.88619  0.07220  1.0000
  H   H481      1.0  0.32722  0.95248  0.15885  1.0000
  C   C301      1.0  0.00703  0.76696  0.27618  1.0000
  H   H482      1.0  0.28188  0.90064  0.08439  1.0000
  H   H483      1.0  0.30071  0.92199  0.22965  1.0000
  C   C302      1.0  0.25256  0.85399  0.16997  1.0000
  Fe  Fe56      1.0  0.31515  0.89026  0.25608  1.0000
  S   S116      1.0  0.30275  0.90427  0.28887  1.0000
  S   S117      1.0  0.30009  0.87162  0.21997  1.0000
  H   H484      1.0  0.22900  0.87433  0.10758  1.0000
  H   H485      1.0  0.13524  0.78805  0.17697  1.0000
  H   H486      1.0  0.04027  0.81671  0.10804  1.0000
  H   H487      1.0  0.26374  0.88958  0.11585  1.0000
  C   C303      1.0  0.25498  0.86802  0.07008  1.0000
  C   C304      1.0  0.24571  0.87232  0.20694  1.0000
  H   H488      1.0  0.31893  0.96096  0.19089  1.0000
  C   C305      1.0  0.21298  0.91395  0.02221  1.0000
  C   C306      1.0  0.23210  0.88211  0.08442  1.0000
  C   C307      1.0  0.27083  0.85698  0.18198  1.0000
  C   C308      1.0  0.27655  0.86750  0.20667  1.0000
  C   C309      1.0  0.26381  0.87503  0.21925  1.0000
  H   H489      1.0  0.29377  0.94269  0.14030  1.0000
  H   H490      1.0  0.28055  0.85098  0.17225  1.0000
  H   H491      1.0  0.26783  0.88278  0.23863  1.0000
  C   C310      1.0  0.30272  0.91562  0.17221  1.0000
  H   H492      1.0  0.27146  0.90123  0.03236  1.0000
  H   H493      1.0  0.31192  0.91022  0.18682  1.0000
  H   H494      1.0  0.24826  0.84568  0.15124  1.0000
  N   N36       1.0  0.30047  0.93241  0.18333  1.0000
  C   C311      1.0  0.28752  0.93861  0.16421  1.0000
  C   C312      1.0  0.32001  0.94813  0.18220  1.0000
  H   H495      1.0  0.03970  0.82481  0.18956  1.0000
  H   H496      1.0  0.24632  0.88839  0.02557  1.0000
  C   C313      1.0  0.12401  0.76502  0.13351  1.0000
  C   C314      1.0  0.07054  0.77877  0.12642  1.0000
  H   H497      1.0  0.27014  0.87049  0.06100  1.0000
  Fe  Fe57      1.0  0.32282  0.89833  0.32194  1.0000
  H   H498      1.0  0.10910  0.77606  0.18077  1.0000
  H   H499      1.0  0.00485  0.78926  0.14596  1.0000
  H   H500      1.0  0.32107  0.00279  0.02249  1.0000
  H   H501      1.0  0.15635  0.77062  0.16355  1.0000
  H   H502      1.0  0.11003  0.76684  0.12906  1.0000
  H   H503      1.0  0.01135  0.81457  0.14038  1.0000
  H   H504      1.0  0.00675  0.77578  0.29367  1.0000
  S   S118      1.0  0.05044  0.76469  0.07732  1.0000
  H   H505      1.0  0.28393  0.90869  0.53861  1.0000
  Fe  Fe58      1.0  0.14056  0.80468  0.54800  1.0000
  S   S119      1.0  0.12827  0.81246  0.58941  1.0000
  S   S120      1.0  0.12467  0.79200  0.50721  1.0000
  Fe  Fe59      1.0  0.18256  0.81851  0.56994  1.0000
  S   S121      1.0  0.17302  0.82711  0.61243  1.0000
  S   S122      1.0  0.21405  0.82137  0.55929  1.0000
  Fe  Fe60      1.0  0.14678  0.79933  0.61523  1.0000
  Fe  Fe61      1.0  0.15583  0.83939  0.58275  1.0000
  S   S123      1.0  0.15578  0.86907  0.58385  1.0000
  S   S124      1.0  0.15735  0.78982  0.57434  1.0000
  S   S125      1.0  0.16697  0.83248  0.53978  1.0000
  H   H506      1.0  0.11587  0.82614  0.47083  1.0000
  H   H507      1.0  0.24914  0.93249  0.51974  1.0000
  H   H508      1.0  0.14904  0.84282  0.48529  1.0000
  S   S126      1.0  0.13814  0.78252  0.66213  1.0000
  C   C315      1.0  0.32576  0.89483  0.40183  1.0000
  C   C316      1.0  0.28727  0.94557  0.53122  1.0000
  H   H509      1.0  0.15493  0.86387  0.50418  1.0000
  S   S127      1.0  0.32738  0.92231  0.53050  1.0000
  S   S128      1.0  0.22657  0.98170  0.61959  1.0000
  H   H510      1.0  0.28822  0.95905  0.54002  1.0000
  H   H511      1.0  0.23479  0.79833  0.64895  1.0000
  C   C317      1.0  0.17785  0.88672  0.59339  1.0000
  C   C318      1.0  0.17901  0.90539  0.59578  1.0000
  C   C319      1.0  0.19656  0.91953  0.60337  1.0000
  C   C320      1.0  0.21297  0.91497  0.60876  1.0000
  C   C321      1.0  0.21173  0.89635  0.60642  1.0000
  C   C322      1.0  0.19435  0.88235  0.59858  1.0000
  H   H512      1.0  0.16634  0.90892  0.59164  1.0000
  H   H513      1.0  0.19739  0.93389  0.60488  1.0000
  H   H514      1.0  0.22434  0.89271  0.61051  1.0000
  H   H515      1.0  0.19379  0.86817  0.59644  1.0000
  C   C323      1.0  0.23445  0.84112  0.56843  1.0000
  C   C324      1.0  0.23226  0.85289  0.58928  1.0000
  N   N37       1.0  0.12445  0.85053  0.49552  1.0000
  H   H516      1.0  0.28530  0.94701  0.50662  1.0000
  H   H517      1.0  0.10456  0.86455  0.50319  1.0000
  H   H518      1.0  0.09658  0.83432  0.47902  1.0000
  H   H519      1.0  0.21779  0.85056  0.59918  1.0000
  C   C325      1.0  0.11914  0.83909  0.52551  1.0000
  C   C326      1.0  0.12042  0.86803  0.49683  1.0000
  H   H520      1.0  0.11594  0.84750  0.45003  1.0000
  C   C327      1.0  0.06327  0.78106  0.47302  1.0000
  H   H521      1.0  0.12226  0.82593  0.52541  1.0000
  C   C328      1.0  0.09602  0.78033  0.46744  1.0000
  C   C329      1.0  0.10068  0.78753  0.49526  1.0000
  C   C330      1.0  0.08648  0.79142  0.51202  1.0000
  C   C331      1.0  0.06795  0.78834  0.50082  1.0000
  H   H522      1.0  0.08970  0.79675  0.53362  1.0000
  H   H523      1.0  0.05706  0.79141  0.51393  1.0000
  H   H524      1.0  0.19261  0.78902  0.60200  1.0000
  H   H525      1.0  0.12907  0.87678  0.51394  1.0000
  Fe  Fe62      1.0  0.31944  0.90390  0.57539  1.0000
  C   C332      1.0  0.11268  0.83918  0.47285  1.0000
  C   C333      1.0  0.14562  0.85577  0.48706  1.0000
  H   H526      1.0  0.10322  0.83461  0.53258  1.0000
  C   C334      1.0  0.07745  0.77709  0.45637  1.0000
  S   S129      1.0  0.03941  0.77677  0.46059  1.0000
  H   H527      1.0  0.10693  0.77740  0.45415  1.0000
  H   H528      1.0  0.26276  0.91479  0.59305  1.0000
  S   S130      1.0  0.27045  0.98521  0.59584  1.0000
  H   H529      1.0  0.15031  0.86475  0.46481  1.0000
  H   H530      1.0  0.12765  0.84724  0.54324  1.0000
  H   H531      1.0  0.12435  0.87712  0.47464  1.0000
  H   H532      1.0  0.22747  0.80080  0.61136  1.0000
  S   S131      1.0  0.23545  0.93177  0.61851  1.0000
  N   N38       1.0  0.20351  0.78944  0.64599  1.0000
  C   C335      1.0  0.20359  0.80845  0.65019  1.0000
  C   C336      1.0  0.25214  0.93120  0.54393  1.0000
  H   H533      1.0  0.25526  0.83549  0.53948  1.0000
  H   H534      1.0  0.17385  0.77940  0.63277  1.0000
  C   C337      1.0  0.27445  0.92751  0.58002  1.0000
  Fe  Fe63      1.0  0.24404  0.96317  0.62315  1.0000
  H   H535      1.0  0.20738  0.81791  0.62834  1.0000
  H   H536      1.0  0.24715  0.87619  0.61473  1.0000
  S   S132      1.0  0.31229  0.88608  0.37072  1.0000
  H   H537      1.0  0.07422  0.77173  0.43477  1.0000
  S   S133      1.0  0.28820  0.88931  0.59756  1.0000
  H   H538      1.0  0.29926  0.96857  0.62370  1.0000
  H   H539      1.0  0.23961  0.91876  0.55588  1.0000
  C   C338      1.0  0.26788  0.87090  0.58522  1.0000
  C   C339      1.0  0.32274  0.97129  0.59082  1.0000
  C   C340      1.0  0.31371  0.97768  0.61322  1.0000
  C   C341      1.0  0.25342  0.84452  0.55566  1.0000
  H   H540      1.0  0.27464  0.94031  0.59029  1.0000
  H   H541      1.0  0.22375  0.77755  0.62972  1.0000
  C   C342      1.0  0.31858  0.88518  0.43090  1.0000
  H   H542      1.0  0.28874  0.92614  0.58360  1.0000
  H   H543      1.0  0.26811  0.91193  0.51076  1.0000
  H   H544      1.0  0.21462  0.81572  0.66595  1.0000
  C   C343      1.0  0.27006  0.85953  0.56367  1.0000
  H   H545      1.0  0.30450  0.87326  0.43402  1.0000
  N   N39       1.0  0.27103  0.92890  0.54760  1.0000
  H   H546      1.0  0.25201  0.94411  0.55357  1.0000
  C   C344      1.0  0.24893  0.86749  0.59796  1.0000
  C   C345      1.0  0.27020  0.91128  0.53535  1.0000
  Fe  Fe64      1.0  0.28024  0.99547  0.64007  1.0000
  H   H547      1.0  0.30175  0.94434  0.53372  1.0000
  H   H548      1.0  0.25785  0.89850  0.54695  1.0000
  H   H549      1.0  0.28459  0.86199  0.55373  1.0000
  H   H550      1.0  0.31536  0.95728  0.58397  1.0000
  H   H551      1.0  0.18890  0.80742  0.65948  1.0000
  C   C346      1.0  0.18880  0.78052  0.62469  1.0000
  C   C347      1.0  0.32350  0.99573  0.62234  1.0000
  C   C348      1.0  0.22325  0.79157  0.63355  1.0000
  H   H552      1.0  0.32438  0.88241  0.47791  1.0000
  H   H553      1.0  0.18784  0.76590  0.62162  1.0000
  S   S134      1.0  0.31204  0.00435  0.64889  1.0000
  S   S135      1.0  0.00958  0.76910  0.38387  1.0000
  Fe  Fe65      1.0  0.23987  0.99177  0.66277  1.0000
  Fe  Fe66      1.0  0.25406  0.00482  0.59593  1.0000
  H   H554      1.0  0.18883  0.93770  0.66336  1.0000
  H   H555      1.0  0.29940  0.00847  0.53739  1.0000
  H   H556      1.0  0.31950  0.00797  0.55830  1.0000
  Fe  Fe67      1.0  0.02389  0.75954  0.42292  1.0000
  C   C349      1.0  0.21899  0.89054  0.98190  1.0000
  H   H557      1.0  0.17091  0.90901  0.70020  1.0000
  C   C350      1.0  0.23854  0.98850  0.75267  1.0000
  C   C351      1.0  0.22329  0.92227  0.99393  1.0000
  C   C352      1.0  0.19633  0.94489  0.68261  1.0000
  H   H558      1.0  0.21212  0.00236  0.88875  1.0000
  C   C353      1.0  0.20579  0.98850  0.75948  1.0000
  C   C354      1.0  0.22282  0.98435  0.80360  1.0000
  H   H559      1.0  0.18776  0.95285  0.69156  1.0000
  C   C355      1.0  0.19832  0.77727  0.67538  1.0000
  C   C356      1.0  0.22178  0.98985  0.74017  1.0000
  S   S136      1.0  0.22161  0.98063  0.84353  1.0000
  S   S137      1.0  0.21914  0.99241  0.70090  1.0000
  C   C357      1.0  0.32537  0.97604  0.90613  1.0000
  H   H560      1.0  0.25100  0.98953  0.73790  1.0000
  H   H561      1.0  0.22366  0.95250  0.72268  1.0000
  H   H562      1.0  0.19359  0.98446  0.80528  1.0000
  S   S138      1.0  0.25113  0.95558  0.89461  1.0000
  C   C358      1.0  0.22620  0.91046  0.97373  1.0000
  H   H563      1.0  0.21113  0.93174  0.74942  1.0000
  H   H564      1.0  0.20049  0.94920  0.74136  1.0000
  N   N40       1.0  0.19864  0.93116  0.70638  1.0000
  C   C359      1.0  0.20626  0.98568  0.79082  1.0000
  H   H565      1.0  0.22148  0.88154  0.96623  1.0000
  H   H566      1.0  0.19279  0.98948  0.75011  1.0000
  H   H567      1.0  0.25197  0.98480  0.79418  1.0000
  S   S139      1.0  0.23872  0.98825  0.92163  1.0000
  Fe  Fe68      1.0  0.27060  0.00739  0.91764  1.0000
  C   C360      1.0  0.21031  0.92121  0.69340  1.0000
  Fe  Fe69      1.0  0.24490  0.98101  0.87551  1.0000
  H   H568      1.0  0.23408  0.91667  0.95189  1.0000
  S   S140      1.0  0.27632  0.00205  0.87028  1.0000
  S   S141      1.0  0.27936  0.98436  0.93978  1.0000
  C   C361      1.0  0.23911  0.98585  0.78450  1.0000
  Fe  Fe70      1.0  0.24771  0.96455  0.94038  1.0000
  H   H569      1.0  0.20897  0.78364  0.69219  1.0000
  H   H570      1.0  0.31527  0.99679  0.98504  1.0000
  Fe  Fe71      1.0  0.28222  0.97724  0.89283  1.0000
  S   S142      1.0  0.30800  0.97007  0.87923  1.0000
  C   C362      1.0  0.32427  0.00837  0.99809  1.0000
  H   H571      1.0  0.16983  0.92417  0.72814  1.0000
  H   H572      1.0  0.20313  0.91345  0.67440  1.0000
  H   H573      1.0  0.32725  0.94842  0.91086  1.0000
  C   C363      1.0  0.20891  0.94153  0.73107  1.0000
  H   H574      1.0  0.21235  0.91068  0.71060  1.0000
  C   C364      1.0  0.17901  0.91707  0.71833  1.0000
  H   H575      1.0  0.32694  0.00484  0.90577  1.0000
  S   S143      1.0  0.23275  0.94747  0.98548  1.0000
  H   H576      1.0  0.19817  0.76280  0.67307  1.0000
  H   H577      1.0  0.22522  0.93144  0.68415  1.0000
  H   H578      1.0  0.20085  0.00700  0.85583  1.0000
  H   H579      1.0  0.18019  0.90652  0.73643  1.0000
  H   H580      1.0  0.18336  0.77533  0.68496  1.0000
  H   H581      1.0  0.21087  0.95575  0.67341  1.0000
  S   S144      1.0  0.25559  0.97179  0.66764  1.0000
  Fe  Fe72      1.0  0.44070  0.08577  0.23825  1.0000
  S   S145      1.0  0.42289  0.05710  0.22458  1.0000
  S   S146      1.0  0.47261  0.09317  0.24632  1.0000
  Fe  Fe73      1.0  0.40479  0.09575  0.25101  1.0000
  S   S147      1.0  0.38435  0.06766  0.23837  1.0000
  S   S148      1.0  0.39005  0.11546  0.26493  1.0000
  Fe  Fe74      1.0  0.40269  0.05509  0.26458  1.0000
  S   S149      1.0  0.39160  0.02968  0.29990  1.0000
  Fe  Fe75      1.0  0.40644  0.07248  0.19906  1.0000
  S   S150      1.0  0.39248  0.06409  0.15539  1.0000
  S   S151      1.0  0.42148  0.08265  0.28028  1.0000
  S   S152      1.0  0.42586  0.10173  0.20961  1.0000
  S   S153      1.0  0.43800  0.06961  0.02884  1.0000
  C   C365      1.0  0.40582  0.06446  0.12146  1.0000
  C   C366      1.0  0.39529  0.05610  0.09750  1.0000
  C   C367      1.0  0.40510  0.05683  0.06953  1.0000
  C   C368      1.0  0.42556  0.06627  0.06497  1.0000
  C   C369      1.0  0.43617  0.07437  0.08911  1.0000
  C   C370      1.0  0.42635  0.07344  0.11733  1.0000
  H   H582      1.0  0.37943  0.04901  0.10067  1.0000
  H   H583      1.0  0.39678  0.05022  0.05148  1.0000
  H   H584      1.0  0.45201  0.08168  0.08583  1.0000
  H   H585      1.0  0.43460  0.07994  0.13567  1.0000
  H   H586      1.0  0.40742  0.08394  0.01947  1.0000
  C   C371      1.0  0.50003  0.05102  0.22249  1.0000
  H   H587      1.0  0.41698  0.12180  0.07138  1.0000
  C   C372      1.0  0.38491  0.11809  0.30292  1.0000
  N   N41       1.0  0.54474  0.01521  0.15360  1.0000
  C   C373      1.0  0.37167  0.12677  0.30956  1.0000
  C   C374      1.0  0.33311  0.04116  0.00762  1.0000
  H   H588      1.0  0.36502  0.13196  0.29132  1.0000
  C   C375      1.0  0.34583  0.03847  0.30664  1.0000
  S   S154      1.0  0.54440  0.01124  0.25243  1.0000
  H   H589      1.0  0.42930  0.13618  0.01800  1.0000
  H   H590      1.0  0.39862  0.09796  0.07848  1.0000
  C   C376      1.0  0.41107  0.10777  0.06239  1.0000
  H   H591      1.0  0.34884  0.04482  0.00026  1.0000
  N   N42       1.0  0.40491  0.10957  0.03143  1.0000
  H   H592      1.0  0.38502  0.11981  0.00828  1.0000
  H   H593      1.0  0.40381  0.10495  0.32175  1.0000
  H   H594      1.0  0.63817  0.03911  0.29230  1.0000
  H   H595      1.0  0.57110  0.03904  0.16018  1.0000
  C   C377      1.0  0.34882  0.07116  0.30690  1.0000
  H   H596      1.0  0.46959  0.07211  0.19480  1.0000
  H   H597      1.0  0.45317  0.04010  0.25656  1.0000
  H   H598      1.0  0.41070  0.01441  0.24917  1.0000
  C   C378      1.0  0.53836  0.02671  0.13095  1.0000
  H   H599      1.0  0.37208  0.02484  0.24447  1.0000
  H   H600      1.0  0.62766  0.07801  0.32487  1.0000
  H   H601      1.0  0.38198  0.06508  0.31192  1.0000
  H   H602      1.0  0.33042  0.03394  0.30013  1.0000
  H   H603      1.0  0.55033  0.03536  0.18611  1.0000
  H   H604      1.0  0.45426  0.03057  0.29448  1.0000
  C   C379      1.0  0.47871  0.06818  0.21041  1.0000
  H   H605      1.0  0.56348  0.01972  0.19028  1.0000
  H   H606      1.0  0.48568  0.05031  0.18109  1.0000
  C   C380      1.0  0.42227  0.12168  0.01082  1.0000
  H   H607      1.0  0.43364  0.11530  0.01025  1.0000
  C   C381      1.0  0.36651  0.01139  0.25892  1.0000
  C   C382      1.0  0.44434  0.02974  0.27599  1.0000
  H   H608      1.0  0.42285  0.10197  0.06298  1.0000
  H   H609      1.0  0.33402  0.23998  0.05779  1.0000
  H   H610      1.0  0.33364  0.06749  0.29972  1.0000
  C   C383      1.0  0.48228  0.07624  0.23755  1.0000
  C   C384      1.0  0.39008  0.11833  0.03128  1.0000
  C   C385      1.0  0.42291  0.00999  0.24233  1.0000
  C   C386      1.0  0.39342  0.11143  0.32661  1.0000
  C   C387      1.0  0.39628  0.09047  0.02117  1.0000
  H   H611      1.0  0.49713  0.07748  0.27848  1.0000
  H   H612      1.0  0.63348  0.06047  0.28318  1.0000
  N   N43       1.0  0.63531  0.05331  0.33048  1.0000
  H   H613      1.0  0.39614  0.13287  0.03861  1.0000
  S   S155      1.0  0.51259  0.03685  0.21116  1.0000
  C   C388      1.0  0.65663  0.06499  0.32940  1.0000
  C   C389      1.0  0.37380  0.00984  0.28712  1.0000
  H   H614      1.0  0.43143  0.01994  0.22222  1.0000
  C   C390      1.0  0.50284  0.05834  0.25028  1.0000
  H   H615      1.0  0.51239  0.05486  0.26553  1.0000
  C   C391      1.0  0.49427  0.07120  0.25753  1.0000
  C   C392      1.0  0.48783  0.05585  0.20268  1.0000
  H   H616      1.0  0.53050  0.03463  0.14212  1.0000
  H   H617      1.0  0.61398  0.03894  0.30027  1.0000
  H   H618      1.0  0.52809  0.01755  0.11590  1.0000
  N   N44       1.0  0.35098  0.05474  0.32466  1.0000
  Fe  Fe76      1.0  0.51639  0.01620  0.24750  1.0000
  H   H619      1.0  0.35565  0.04215  0.28548  1.0000
  C   C393      1.0  0.55802  0.02791  0.17339  1.0000
  H   H620      1.0  0.33108  0.03699  0.03249  1.0000
  H   H621      1.0  0.56849  0.01503  0.12409  1.0000
  H   H622      1.0  0.43281  0.03478  0.28385  1.0000
  H   H623      1.0  0.37687  0.10958  0.04679  1.0000
  H   H624      1.0  0.38383  0.08056  0.03708  1.0000
  H   H625      1.0  0.35912  0.07626  0.28609  1.0000
  H   H626      1.0  0.55113  0.03744  0.11652  1.0000
  S   S156      1.0  0.50949  0.01382  0.29752  1.0000
  C   C394      1.0  0.63003  0.04773  0.30017  1.0000
  H   H627      1.0  0.35210  0.08350  0.32017  1.0000
  H   H628      1.0  0.33028  0.05449  0.00289  1.0000
  H   H629      1.0  0.34747  0.02588  0.31929  1.0000
  H   H630      1.0  0.66085  0.07820  0.31322  1.0000
  N   N45       1.0  0.43559  0.01020  0.26735  1.0000
  H   H631      1.0  0.46083  0.01376  0.23771  1.0000
  C   C395      1.0  0.37157  0.06018  0.33253  1.0000
  Fe  Fe77      1.0  0.35047  0.16953  0.45585  1.0000
  S   S157      1.0  0.34843  0.16550  0.40693  1.0000
  S   S158      1.0  0.36953  0.19608  0.47562  1.0000
  Fe  Fe78      1.0  0.34877  0.13639  0.42022  1.0000
  S   S159      1.0  0.37012  0.12413  0.40150  1.0000
  S   S160      1.0  0.35334  0.14162  0.46865  1.0000
  C   C396      1.0  0.42413  0.20086  0.39122  1.0000
  C   C397      1.0  0.62404  0.06452  0.34017  1.0000
  H   H632      1.0  0.34701  0.03894  0.56527  1.0000
  H   H633      1.0  0.42907  0.17201  0.36593  1.0000
  H   H634      1.0  0.34981  0.02132  0.61629  1.0000
  H   H635      1.0  0.63991  0.02793  0.34703  1.0000
  C   C398      1.0  0.56948  0.02618  0.36334  1.0000
  H   H636      1.0  0.35225  0.23366  0.46069  1.0000
  H   H637      1.0  0.39542  0.10827  0.37482  1.0000
  C   C399      1.0  0.38186  0.21912  0.45596  1.0000
  C   C400      1.0  0.38975  0.23451  0.47283  1.0000
  C   C401      1.0  0.58141  0.02156  0.38396  1.0000
  C   C402      1.0  0.39386  0.24122  0.40989  1.0000
  C   C403      1.0  0.38382  0.22251  0.42437  1.0000
  H   H638      1.0  0.38838  0.23197  0.49727  1.0000
  H   H639      1.0  0.33907  0.03687  0.36665  1.0000
  H   H640      1.0  0.37774  0.21077  0.41113  1.0000
  H   H641      1.0  0.38892  0.15999  0.42638  1.0000
  H   H642      1.0  0.38773  0.18832  0.37266  1.0000
  N   N46       1.0  0.41011  0.18079  0.39345  1.0000
  H   H643      1.0  0.61494  0.02608  0.35176  1.0000
  H   H644      1.0  0.63285  0.03954  0.37574  1.0000
  C   C404      1.0  0.39935  0.25320  0.45840  1.0000
  H   H645      1.0  0.52419  0.01540  0.35921  1.0000
  H   H646      1.0  0.52847  0.02444  0.39496  1.0000
  H   H647      1.0  0.33756  0.24779  0.46036  1.0000
  H   H648      1.0  0.41639  0.21061  0.39510  1.0000
  C   C405      1.0  0.38865  0.11337  0.35665  1.0000
  C   C406      1.0  0.34169  0.04586  0.54638  1.0000
  C   C407      1.0  0.33157  0.20982  0.42184  1.0000
  C   C408      1.0  0.37529  0.12188  0.36332  1.0000
  C   C409      1.0  0.39591  0.17883  0.37015  1.0000
  C   C410      1.0  0.39944  0.17514  0.42378  1.0000
  H   H649      1.0  0.41060  0.15301  0.39016  1.0000
  H   H650      1.0  0.43166  0.16921  0.40590  1.0000
  H   H651      1.0  0.37400  0.04793  0.34484  1.0000
  H   H652      1.0  0.40339  0.18248  0.34694  1.0000
  C   C411      1.0  0.42089  0.16825  0.38865  1.0000
  C   C412      1.0  0.40158  0.25665  0.42688  1.0000
  C   C413      1.0  0.63051  0.03596  0.35217  1.0000
  H   H653      1.0  0.34563  0.06107  0.55009  1.0000
  H   H654      1.0  0.35076  0.24696  0.42612  1.0000
  C   C414      1.0  0.66171  0.05523  0.57056  1.0000
  H   H655      1.0  0.39560  0.24382  0.38547  1.0000
  H   H656      1.0  0.43513  0.20283  0.40837  1.0000
  S   S161      1.0  0.64884  0.08348  0.48254  1.0000
  H   H657      1.0  0.35645  0.13516  0.34447  1.0000
  H   H658      1.0  0.60113  0.03084  0.41908  1.0000
  Fe  Fe79      1.0  0.63170  0.06824  0.44506  1.0000
  S   S162      1.0  0.63613  0.04105  0.45824  1.0000
  S   S163      1.0  0.60318  0.06883  0.42768  1.0000
  C   C415      1.0  0.56726  0.04361  0.36352  1.0000
  Fe  Fe80      1.0  0.65548  0.05709  0.49283  1.0000
  H   H659      1.0  0.43233  0.20571  0.36852  1.0000
  H   H660      1.0  0.57564  0.06995  0.38381  1.0000
  H   H661      1.0  0.65624  0.07913  0.54929  1.0000
  H   H662      1.0  0.50627  0.02240  0.37732  1.0000
  H   H663      1.0  0.36527  0.01050  0.57522  1.0000
  H   H664      1.0  0.39087  0.18406  0.42816  1.0000
  H   H665      1.0  0.65335  0.01406  0.44197  1.0000
  C   C416      1.0  0.59175  0.03450  0.40370  1.0000
  C   C417      1.0  0.58983  0.05205  0.40368  1.0000
  C   C418      1.0  0.57724  0.05639  0.38391  1.0000
  H   H666      1.0  0.38485  0.16392  0.37165  1.0000
  C   C419      1.0  0.34211  0.23826  0.44715  1.0000
  S   S164      1.0  0.55858  0.00982  0.33734  1.0000
  H   H667      1.0  0.40966  0.17661  0.44199  1.0000
  H   H668      1.0  0.62711  0.06846  0.36343  1.0000
  H   H669      1.0  0.34126  0.20395  0.43423  1.0000
  H   H670      1.0  0.55818  0.04740  0.34769  1.0000
  H   H671      1.0  0.61345  0.04328  0.65701  1.0000
  C   C420      1.0  0.66016  0.07299  0.56969  1.0000
  H   H672      1.0  0.60792  0.05630  0.34040  1.0000
  H   H673      1.0  0.35002  0.04565  0.52515  1.0000
  H   H674      1.0  0.66103  0.06941  0.35194  1.0000
  H   H675      1.0  0.63557  0.03976  0.66478  1.0000
  H   H676      1.0  0.33990  0.21814  0.40041  1.0000
  C   C421      1.0  0.33773  0.04918  0.35266  1.0000
  H   H677      1.0  0.34126  0.06118  0.36675  1.0000
  C   C422      1.0  0.36679  0.12859  0.33965  1.0000
  H   H678      1.0  0.60586  0.01569  0.62629  1.0000
  H   H679      1.0  0.37580  0.07198  0.34698  1.0000
  C   C423      1.0  0.51687  0.01536  0.38148  1.0000
  H   H680      1.0  0.66206  0.09644  0.59454  1.0000
  S   S165      1.0  0.65792  0.08062  0.41137  1.0000
  S   S166      1.0  0.65778  0.04253  0.53866  1.0000
  H   H681      1.0  0.62747  0.01204  0.63729  1.0000
  H   H682      1.0  0.58138  0.01662  0.66563  1.0000
  Fe  Fe81      1.0  0.34476  0.18523  0.86042  1.0000
  S   S167      1.0  0.35198  0.19429  0.90629  1.0000
  S   S168      1.0  0.35422  0.20315  0.81460  1.0000
  Fe  Fe82      1.0  0.35253  0.16505  0.91796  1.0000
  S   S169      1.0  0.37750  0.15976  0.93965  1.0000
  S   S170      1.0  0.34823  0.15735  0.87080  1.0000
  H   H683      1.0  0.36974  0.08504  0.84577  1.0000
  Fe  Fe83      1.0  0.39067  0.06268  0.94815  1.0000
  S   S171      1.0  0.36592  0.07310  0.94398  1.0000
  Fe  Fe84      1.0  0.42550  0.05517  0.92094  1.0000
  S   S172      1.0  0.42617  0.03631  0.96244  1.0000
  S   S173      1.0  0.44433  0.06063  0.87680  1.0000
  Fe  Fe85      1.0  0.39325  0.02408  0.96170  1.0000
  C   C424      1.0  0.59825  0.04733  0.74271  1.0000
  Fe  Fe86      1.0  0.42122  0.05822  0.98863  1.0000
  S   S174      1.0  0.39284  0.04131  0.91849  1.0000
  S   S175      1.0  0.42334  0.07845  0.94703  1.0000
  C   C425      1.0  0.45009  0.04203  0.86374  1.0000
  C   C426      1.0  0.45670  0.04346  0.83326  1.0000
  H   H684      1.0  0.61191  0.05951  0.73660  1.0000
  C   C427      1.0  0.56262  0.01607  0.75884  1.0000
  H   H685      1.0  0.41541  0.01465  0.83834  1.0000
  H   H686      1.0  0.45855  0.05612  0.81818  1.0000
  H   H687      1.0  0.34807  0.24132  0.86414  1.0000
  H   H688      1.0  0.52674  0.05862  0.77047  1.0000
  H   H689      1.0  0.33974  0.24975  0.81350  1.0000
  C   C428      1.0  0.58044  0.01562  0.76854  1.0000
  C   C429      1.0  0.44783  0.02568  0.88308  1.0000
  H   H690      1.0  0.52174  0.06998  0.83339  1.0000
  C   C430      1.0  0.37446  0.13567  0.94246  1.0000
  C   C431      1.0  0.39099  0.13071  0.94176  1.0000
  C   C432      1.0  0.38864  0.11148  0.94259  1.0000
  C   C433      1.0  0.36973  0.09720  0.94479  1.0000
  C   C434      1.0  0.35326  0.10214  0.94636  1.0000
  C   C435      1.0  0.35560  0.12132  0.94482  1.0000
  H   H691      1.0  0.40560  0.14183  0.93968  1.0000
  H   H692      1.0  0.40142  0.10776  0.94092  1.0000
  S   S176      1.0  0.48206  0.01203  0.74087  1.0000
  H   H693      1.0  0.34278  0.12501  0.94558  1.0000
  H   H694      1.0  0.38054  0.22866  0.85347  1.0000
  H   H695      1.0  0.33858  0.09112  0.94828  1.0000
  H   H696      1.0  0.46484  0.02930  0.79830  1.0000
  C   C436      1.0  0.38054  0.23683  0.83223  1.0000
  C   C437      1.0  0.36915  0.22775  0.80963  1.0000
  H   H697      1.0  0.61935  0.04022  0.69537  1.0000
  N   N47       1.0  0.60912  0.01442  0.67407  1.0000
  C   C438      1.0  0.46033  0.02833  0.82198  1.0000
  N   N48       1.0  0.35291  0.10220  0.85266  1.0000
  H   H698      1.0  0.34945  0.08103  0.82249  1.0000
  H   H699      1.0  0.34749  0.08095  0.89095  1.0000
  H   H700      1.0  0.35399  0.01394  0.94022  1.0000
  C   C439      1.0  0.36902  0.11689  0.86594  1.0000
  C   C440      1.0  0.59833  0.03121  0.76046  1.0000
  H   H701      1.0  0.33599  0.21640  0.86066  1.0000
  C   C441      1.0  0.51070  0.03183  0.83885  1.0000
  C   C442      1.0  0.36126  0.09220  0.83286  1.0000
  H   H702      1.0  0.35110  0.12187  0.81593  1.0000
  S   S177      1.0  0.38834  0.04411  0.99133  1.0000
  H   H703      1.0  0.50379  0.01777  0.83010  1.0000
  H   H704      1.0  0.36319  0.12464  0.88115  1.0000
  C   C443      1.0  0.33362  0.22905  0.86756  1.0000
  H   H705      1.0  0.41887  0.23085  0.73294  1.0000
  H   H706      1.0  0.54924  0.03792  0.83003  1.0000
  H   H707      1.0  0.33486  0.25413  0.99051  1.0000
  H   H708      1.0  0.36050  0.23158  0.76463  1.0000
  C   C444      1.0  0.36940  0.23849  0.78213  1.0000
  C   C445      1.0  0.33962  0.08830  0.87710  1.0000
  H   H709      1.0  0.54076  0.06360  0.84947  1.0000
  C   C446      1.0  0.51602  0.04812  0.78821  1.0000
  C   C447      1.0  0.54159  0.03954  0.80955  1.0000
  C   C448      1.0  0.61980  0.03530  0.67277  1.0000
  H   H710      1.0  0.37928  0.12776  0.84823  1.0000
  H   H711      1.0  0.44313  0.02458  0.90670  1.0000
  H   H712      1.0  0.64617  0.01439  0.79897  1.0000
  H   H713      1.0  0.40328  0.24212  0.69084  1.0000
  H   H714      1.0  0.49859  0.03653  0.84500  1.0000
  H   H715      1.0  0.58043  0.06046  0.71976  1.0000
  H   H716      1.0  0.51738  0.02943  0.86002  1.0000
  C   C449      1.0  0.58039  0.04784  0.73323  1.0000
  H   H717      1.0  0.53596  0.02551  0.80046  1.0000
  C   C450      1.0  0.53354  0.06464  0.82825  1.0000
  H   H718      1.0  0.50364  0.05282  0.79230  1.0000
  H   H719      1.0  0.41819  0.12345  0.98728  1.0000
  Fe  Fe87      1.0  0.65121  0.04970  0.75408  1.0000
  S   S178      1.0  0.62032  0.02984  0.77312  1.0000
  S   S179      1.0  0.54028  0.03378  0.72996  1.0000
  N   N49       1.0  0.52547  0.04603  0.81625  1.0000
  C   C451      1.0  0.56250  0.03223  0.74124  1.0000
  H   H720      1.0  0.58563  0.01382  0.70472  1.0000
  H   H721      1.0  0.43828  0.24644  0.68358  1.0000
  C   C452      1.0  0.38073  0.25818  0.77733  1.0000
  H   H722      1.0  0.43738  0.24788  0.75214  1.0000
  H   H723      1.0  0.51002  0.03437  0.77850  1.0000
  H   H724      1.0  0.37142  0.10228  0.81418  1.0000
  H   H725      1.0  0.54474  0.07565  0.81169  1.0000
  C   C453      1.0  0.39226  0.25650  0.82710  1.0000
  C   C454      1.0  0.42366  0.24531  0.74046  1.0000
  H   H726      1.0  0.37777  0.11044  0.87964  1.0000
  H   H727      1.0  0.33876  0.03472  0.95016  1.0000
  C   C455      1.0  0.34169  0.11142  0.83487  1.0000
  H   H728      1.0  0.55282  0.04977  0.79214  1.0000
  H   H729      1.0  0.33554  0.11934  0.84918  1.0000
  H   H730      1.0  0.33325  0.09546  0.89258  1.0000
  C   C456      1.0  0.45156  0.01065  0.87189  1.0000
  H   H731      1.0  0.41212  0.24502  0.75767  1.0000
  C   C457      1.0  0.45757  0.01179  0.84129  1.0000
  H   H732      1.0  0.39068  0.09113  0.99846  1.0000
  C   C458      1.0  0.40814  0.25612  0.69994  1.0000
  H   H733      1.0  0.39601  0.25572  0.71599  1.0000
  H   H734      1.0  0.38579  0.01790  0.86142  1.0000
  H   H735      1.0  0.34004  0.01120  0.99211  1.0000
  C   C459      1.0  0.58796  0.00942  0.68232  1.0000
  Fe  Fe88      1.0  0.48806  0.46170  0.28515  1.0000
  Fe  Fe89      1.0  0.46542  0.47136  0.23390  1.0000
  S   S180      1.0  0.44162  0.45194  0.20670  1.0000
  S   S181      1.0  0.46208  0.47030  0.28472  1.0000
  Fe  Fe90      1.0  0.35898  0.42547  0.09044  1.0000
  S   S182      1.0  0.36644  0.40286  0.07019  1.0000
  S   S183      1.0  0.37924  0.45184  0.11041  1.0000
  S   S184      1.0  0.49052  0.43702  0.31549  1.0000
  C   C460      1.0  0.47585  0.44837  0.15282  1.0000
  H   H736      1.0  0.34739  0.46876  0.10951  1.0000
  H   H737      1.0  0.46021  0.44482  0.14787  1.0000
  H   H738      1.0  0.48032  0.47943  0.17911  1.0000
  C   C461      1.0  0.42441  0.45256  0.18003  1.0000
  C   C462      1.0  0.41271  0.43539  0.16936  1.0000
  C   C463      1.0  0.39891  0.43495  0.14804  1.0000
  C   C464      1.0  0.39665  0.45175  0.13703  1.0000
  C   C465      1.0  0.40840  0.46898  0.14760  1.0000
  C   C466      1.0  0.42223  0.46942  0.16896  1.0000
  H   H739      1.0  0.41425  0.42226  0.17776  1.0000
  H   H740      1.0  0.39000  0.42159  0.14019  1.0000
  H   H741      1.0  0.40680  0.48207  0.13922  1.0000
  H   H742      1.0  0.43109  0.48273  0.17697  1.0000
  H   H743      1.0  0.50962  0.47076  0.17385  1.0000
  H   H744      1.0  0.51521  0.46303  0.13925  1.0000
  Fe  Fe91      1.0  0.51064  0.49232  0.23186  1.0000
  C   C467      1.0  0.50885  0.47256  0.14893  1.0000
  H   H745      1.0  0.45000  0.43337  0.32808  1.0000
  C   C468      1.0  0.48077  0.48141  0.15410  1.0000
  H   H746      1.0  0.55145  0.50490  0.25772  1.0000
  C   C469      1.0  0.48810  0.47080  0.10766  1.0000
  S   S185      1.0  0.49061  0.46142  0.23500  1.0000
  S   S186      1.0  0.51058  0.49180  0.28212  1.0000
  H   H747      1.0  0.34324  0.43547  0.15680  1.0000
  H   H748      1.0  0.33632  0.44500  0.18860  1.0000
  C   C470      1.0  0.34089  0.44810  0.16398  1.0000
  H   H749      1.0  0.51868  0.48761  0.14086  1.0000
  H   H750      1.0  0.33787  0.48209  0.15321  1.0000
  H   H751      1.0  0.35555  0.46015  0.16062  1.0000
  Fe  Fe92      1.0  0.48486  0.50058  0.27778  1.0000
  Fe  Fe93      1.0  0.34699  0.40555  0.03345  1.0000
  H   H752      1.0  0.49736  0.48571  0.09800  1.0000
  H   H753      1.0  0.47582  0.44593  0.17786  1.0000
  H   H754      1.0  0.35226  0.26607  0.01636  1.0000
  H   H755      1.0  0.48097  0.43796  0.14317  1.0000
  H   H756      1.0  0.47285  0.46765  0.10095  1.0000
  N   N50       1.0  0.48841  0.46828  0.14087  1.0000
  H   H757      1.0  0.49379  0.46111  0.09689  1.0000
  S   S187      1.0  0.48580  0.50252  0.22701  1.0000
  S   S188      1.0  0.34173  0.42989  0.05143  1.0000
  Fe  Fe94      1.0  0.33814  0.38218  0.09489  1.0000
  H   H758      1.0  0.49015  0.49662  0.14644  1.0000
  H   H759      1.0  0.46543  0.47875  0.14831  1.0000
  H   H760      1.0  0.34049  0.27365  0.06460  1.0000
  C   C471      1.0  0.33297  0.45646  0.11398  1.0000
  S   S189      1.0  0.33209  0.40443  0.11792  1.0000
  S   S190      1.0  0.53731  0.50641  0.19784  1.0000
  C   C472      1.0  0.33783  0.26446  0.00755  1.0000
  H   H761      1.0  0.33516  0.44405  0.10588  1.0000
  H   H762      1.0  0.32974  0.35061  0.06036  1.0000
  S   S191      1.0  0.33383  0.35473  0.12348  1.0000
  H   H763      1.0  0.37419  0.29428  0.54028  1.0000
  Fe  Fe95      1.0  0.42896  0.33311  0.47833  1.0000
  S   S192      1.0  0.43958  0.33443  0.42975  1.0000
  S   S193      1.0  0.44785  0.34846  0.51355  1.0000
  Fe  Fe96      1.0  0.38595  0.31610  0.46636  1.0000
  S   S194      1.0  0.39295  0.31686  0.41691  1.0000
  S   S195      1.0  0.35504  0.30596  0.48766  1.0000
  Fe  Fe97      1.0  0.41517  0.30505  0.43229  1.0000
  Fe  Fe98      1.0  0.41624  0.34581  0.41886  1.0000
  S   S196      1.0  0.41608  0.37110  0.38784  1.0000
  S   S197      1.0  0.40686  0.30290  0.48201  1.0000
  S   S198      1.0  0.40702  0.34605  0.46717  1.0000
  C   C473      1.0  0.34604  0.28802  0.43705  1.0000
  H   H764      1.0  0.40382  0.33311  0.55192  1.0000
  C   C474      1.0  0.43606  0.31643  0.60889  1.0000
  C   C475      1.0  0.43415  0.30640  0.58366  1.0000
  C   C476      1.0  0.43739  0.31608  0.55429  1.0000
  C   C477      1.0  0.44316  0.33592  0.55007  1.0000
  C   C478      1.0  0.44519  0.34595  0.57530  1.0000
  C   C479      1.0  0.44137  0.33621  0.60467  1.0000
  H   H765      1.0  0.43008  0.29110  0.58681  1.0000
  H   H766      1.0  0.43597  0.30827  0.53492  1.0000
  H   H767      1.0  0.44968  0.36131  0.57216  1.0000
  H   H768      1.0  0.44296  0.34406  0.62402  1.0000
  H   H769      1.0  0.46773  0.42507  0.45171  1.0000
  C   C480      1.0  0.37932  0.29646  0.56334  1.0000
  C   C481      1.0  0.43671  0.38870  0.36636  1.0000
  C   C482      1.0  0.45456  0.38641  0.36205  1.0000
  H   H770      1.0  0.38133  0.32766  0.61406  1.0000
  H   H771      1.0  0.35484  0.35478  0.42982  1.0000
  H   H772      1.0  0.45585  0.37330  0.37114  1.0000
  S   S199      1.0  0.41453  0.27994  0.40830  1.0000
  C   C483      1.0  0.45460  0.38828  0.44164  1.0000
  H   H773      1.0  0.35973  0.28596  0.43840  1.0000
  C   C484      1.0  0.36111  0.34659  0.41628  1.0000
  H   H774      1.0  0.47768  0.38337  0.48479  1.0000
  H   H775      1.0  0.37511  0.30242  0.62131  1.0000
  C   C485      1.0  0.47080  0.40115  0.34566  1.0000
  H   H776      1.0  0.35877  0.32107  0.37766  1.0000
  H   H777      1.0  0.50069  0.39836  0.46432  1.0000
  H   H778      1.0  0.38624  0.34324  0.56127  1.0000
  H   H779      1.0  0.37107  0.28305  0.57850  1.0000
  H   H780      1.0  0.38102  0.34183  0.36801  1.0000
  H   H781      1.0  0.48670  0.39823  0.40208  1.0000
  H   H782      1.0  0.36131  0.33672  0.34358  1.0000
  H   H783      1.0  0.46686  0.41019  0.48605  1.0000
  H   H784      1.0  0.50109  0.41947  0.41777  1.0000
  H   H785      1.0  0.34963  0.30789  0.55253  1.0000
  C   C486      1.0  0.48499  0.38952  0.46174  1.0000
  H   H786      1.0  0.49020  0.42585  0.46715  1.0000
  C   C487      1.0  0.47497  0.41618  0.46344  1.0000
  H   H787      1.0  0.35875  0.37679  0.38285  1.0000
  S   S200      1.0  0.43135  0.30389  0.64541  1.0000
  H   H788      1.0  0.35525  0.33158  0.42727  1.0000
  H   H789      1.0  0.38285  0.32914  0.53032  1.0000
  H   H790      1.0  0.44628  0.38124  0.46376  1.0000
  C   C488      1.0  0.43510  0.40559  0.35366  1.0000
  N   N51       1.0  0.37644  0.31299  0.57434  1.0000
  C   C489      1.0  0.35530  0.30976  0.57533  1.0000
  C   C490      1.0  0.38782  0.33040  0.55358  1.0000
  C   C491      1.0  0.38330  0.31532  0.60501  1.0000
  H   H791      1.0  0.47828  0.41745  0.40240  1.0000
  C   C492      1.0  0.36468  0.33631  0.36767  1.0000
  H   H792      1.0  0.35260  0.32200  0.58339  1.0000
  C   C493      1.0  0.48576  0.40938  0.41572  1.0000
  C   C494      1.0  0.36462  0.36777  0.37059  1.0000
  H   H793      1.0  0.39919  0.31784  0.60508  1.0000
  H   H794      1.0  0.44651  0.39632  0.42990  1.0000
  H   H795      1.0  0.45413  0.37678  0.42776  1.0000
  N   N52       1.0  0.47509  0.40085  0.44563  1.0000
  H   H796      1.0  0.39514  0.29850  0.56203  1.0000
  H   H797      1.0  0.34627  0.29672  0.59078  1.0000
  H   H798      1.0  0.38094  0.37404  0.37093  1.0000
  H   H799      1.0  0.48459  0.37732  0.44952  1.0000
  H   H800      1.0  0.37731  0.35243  0.41802  1.0000
  C   C495      1.0  0.33552  0.28376  0.41145  1.0000
  N   N53       1.0  0.35627  0.34766  0.38445  1.0000
  C   C496      1.0  0.33918  0.29543  0.46043  1.0000
  H   H801      1.0  0.36129  0.36911  0.34655  1.0000
  H   H802      1.0  0.40555  0.26486  0.47171  1.0000
  C   C497      1.0  0.33465  0.33993  0.38329  1.0000
  H   H803      1.0  0.34147  0.27906  0.39265  1.0000
  H   H804      1.0  0.42132  0.40746  0.35672  1.0000
  H   H805      1.0  0.48463  0.39937  0.34241  1.0000
  H   H806      1.0  0.45069  0.50083  0.66480  1.0000
  C   C498      1.0  0.45133  0.42030  0.33732  1.0000
  H   H807      1.0  0.33041  0.34038  0.35964  1.0000
  C   C499      1.0  0.46932  0.41823  0.33351  1.0000
  H   H808      1.0  0.47046  0.44641  0.74100  1.0000
  Fe  Fe99      1.0  0.42168  0.35006  0.71636  1.0000
  C   C500      1.0  0.46978  0.43197  0.74175  1.0000
  Fe  Fe100     1.0  0.40853  0.30924  0.74876  1.0000
  S   S201      1.0  0.39402  0.29625  0.70875  1.0000
  S   S202      1.0  0.40780  0.29179  0.79335  1.0000
  Fe  Fe101     1.0  0.38268  0.31959  0.70447  1.0000
  S   S203      1.0  0.35090  0.31244  0.69722  1.0000
  S   S204      1.0  0.43664  0.32912  0.72195  1.0000
  S   S205      1.0  0.39497  0.33108  0.74666  1.0000
  Fe  Fe102     1.0  0.35183  0.41018  0.78183  1.0000
  S   S206      1.0  0.34040  0.39108  0.82548  1.0000
  S   S207      1.0  0.38507  0.42074  0.77580  1.0000
  H   H809      1.0  0.34858  0.35854  0.76479  1.0000
  S   S208      1.0  0.45454  0.50226  0.76555  1.0000
  C   C501      1.0  0.36725  0.44397  0.84401  1.0000
  H   H810      1.0  0.55768  0.46461  0.87223  1.0000
  S   S209      1.0  0.33021  0.42439  0.78530  1.0000
  H   H811      1.0  0.55134  0.43553  0.82685  1.0000
  C   C502      1.0  0.55863  0.46974  0.79551  1.0000
  S   S210      1.0  0.33306  0.38816  0.75393  1.0000
  H   H812      1.0  0.44148  0.42145  0.72336  1.0000
  C   C503      1.0  0.38102  0.35564  0.81055  1.0000
  S   S211      1.0  0.49532  0.48993  0.72643  1.0000
  C   C504      1.0  0.34079  0.31977  0.72743  1.0000
  C   C505      1.0  0.54017  0.44185  0.83049  1.0000
  H   H813      1.0  0.57023  0.46413  0.79072  1.0000
  C   C506      1.0  0.39246  0.26724  0.79957  1.0000
  C   C507      1.0  0.35010  0.33822  0.73542  1.0000
  C   C508      1.0  0.34113  0.39494  0.93078  1.0000
  H   H814      1.0  0.36353  0.34802  0.72276  1.0000
  C   C509      1.0  0.43504  0.47976  0.76763  1.0000
  C   C510      1.0  0.43892  0.46314  0.76966  1.0000
  C   C511      1.0  0.42337  0.44526  0.77152  1.0000
  C   C512      1.0  0.40378  0.44379  0.77149  1.0000
  C   C513      1.0  0.39980  0.46041  0.76918  1.0000
  C   C514      1.0  0.41545  0.47839  0.76731  1.0000
  H   H815      1.0  0.45394  0.46404  0.76984  1.0000
  H   H816      1.0  0.42662  0.43250  0.77295  1.0000
  H   H817      1.0  0.38476  0.45944  0.76877  1.0000
  C   C515      1.0  0.53385  0.47059  0.83168  1.0000
  H   H818      1.0  0.37551  0.46127  0.89452  1.0000
  H   H819      1.0  0.37085  0.44113  0.82097  1.0000
  H   H820      1.0  0.52680  0.46629  0.85515  1.0000
  H   H821      1.0  0.41239  0.49124  0.76558  1.0000
  H   H822      1.0  0.38379  0.39035  0.82096  1.0000
  C   C516      1.0  0.39802  0.38841  0.81917  1.0000
  H   H823      1.0  0.40537  0.39409  0.75861  1.0000
  H   H824      1.0  0.41338  0.45968  0.86831  1.0000
  H   H825      1.0  0.41630  0.36106  0.78200  1.0000
  C   C517      1.0  0.34136  0.40525  0.95525  1.0000
  H   H826      1.0  0.36559  0.45794  0.84175  1.0000
  H   H827      1.0  0.46695  0.37987  0.74366  1.0000
  H   H828      1.0  0.41941  0.36639  0.82024  1.0000
  H   H829      1.0  0.37006  0.41332  0.87501  1.0000
  C   C518      1.0  0.39343  0.38034  0.76823  1.0000
  H   H830      1.0  0.36655  0.35718  0.81223  1.0000
  H   H831      1.0  0.37953  0.34449  0.79543  1.0000
  H   H832      1.0  0.37941  0.38264  0.76822  1.0000
  H   H833      1.0  0.39259  0.36977  0.75227  1.0000
  C   C519      1.0  0.48532  0.42749  0.75241  1.0000
  Fe  Fe103     1.0  0.48490  0.50124  0.76528  1.0000
  H   H834      1.0  0.56564  0.48560  0.79173  1.0000
  H   H835      1.0  0.38844  0.42212  0.84366  1.0000
  C   C520      1.0  0.45335  0.41776  0.73174  1.0000
  H   H836      1.0  0.46282  0.49866  0.69832  1.0000
  H   H837      1.0  0.36252  0.43610  0.90436  1.0000
  H   H838      1.0  0.39559  0.42438  0.88175  1.0000
  N   N54       1.0  0.54924  0.46293  0.82658  1.0000
  H   H839      1.0  0.38031  0.26631  0.75643  1.0000
  H   H840      1.0  0.42118  0.27955  0.74226  1.0000
  C   C521      1.0  0.46764  0.39432  0.74319  1.0000
  C   C522      1.0  0.38426  0.42507  0.86634  1.0000
  H   H841      1.0  0.40073  0.47329  0.85002  1.0000
  H   H842      1.0  0.40671  0.45649  0.83044  1.0000
  H   H843      1.0  0.34875  0.38525  0.93153  1.0000
  C   C523      1.0  0.40165  0.45899  0.85287  1.0000
  S   S212      1.0  0.43105  0.38184  0.71927  1.0000
  H   H844      1.0  0.38353  0.35013  0.83337  1.0000
  C   C524      1.0  0.41616  0.37150  0.79768  1.0000
  C   C525      1.0  0.45225  0.39893  0.73216  1.0000
  N   N55       1.0  0.39715  0.37394  0.79890  1.0000
  H   H845      1.0  0.40983  0.26724  0.68072  1.0000
  N   N56       1.0  0.38253  0.44383  0.86456  1.0000
  C   C526      1.0  0.34167  0.34420  0.75912  1.0000
  C   C527      1.0  0.37691  0.44722  0.89499  1.0000
  H   H846      1.0  0.42856  0.38517  0.78917  1.0000
  H   H847      1.0  0.35260  0.43281  0.85237  1.0000
  H   H848      1.0  0.40129  0.38427  0.84232  1.0000
  H   H849      1.0  0.40963  0.40255  0.81044  1.0000
  H   H850      1.0  0.52201  0.46540  0.81607  1.0000
  H   H851      1.0  0.54000  0.48645  0.82789  1.0000
  H   H852      1.0  0.52886  0.43648  0.81402  1.0000
  H   H853      1.0  0.38791  0.44690  0.91130  1.0000
  C   C528      1.0  0.48413  0.40858  0.75326  1.0000
  H   H854      1.0  0.44646  0.28245  0.73790  1.0000
  S   S213      1.0  0.53729  0.50050  0.75761  1.0000
  H   H855      1.0  0.57114  0.48543  0.84638  1.0000
  C   C529      1.0  0.56424  0.46956  0.84854  1.0000
  H   H856      1.0  0.54765  0.46508  0.77838  1.0000
  S   S214      1.0  0.49551  0.48527  0.80069  1.0000
  S   S215      1.0  0.50628  0.44520  0.76489  1.0000
  H   H857      1.0  0.33179  0.42593  0.97279  1.0000
  H   H858      1.0  0.57626  0.46428  0.84515  1.0000
  H   H859      1.0  0.53271  0.43619  0.85355  1.0000
  Fe  Fe104     1.0  0.50790  0.47571  0.76152  1.0000
  H   H860      1.0  0.49608  0.40499  0.76145  1.0000
  H   H861      1.0  0.40131  0.26339  0.84447  1.0000
  S   S216      1.0  0.35599  0.40371  0.98500  1.0000
  C   C530      1.0  0.33139  0.41768  0.95421  1.0000
  H   H862      1.0  0.43548  0.29064  0.70719  1.0000
  H   H863      1.0  0.44476  0.27154  0.67301  1.0000
  C   C531      1.0  0.43273  0.27902  0.72601  1.0000
  Fe  Fe105     1.0  0.42084  0.31743  0.68146  1.0000
  H   H864      1.0  0.33937  0.27853  0.99559  1.0000
  H   H865      1.0  0.45655  0.26361  0.70293  1.0000
  C   C532      1.0  0.33103  0.39699  0.90544  1.0000
  H   H866      1.0  0.33051  0.38852  0.88725  1.0000
  N   N57       1.0  0.42670  0.26019  0.71477  1.0000
  S   S217      1.0  0.40807  0.33977  0.67355  1.0000
  C   C533      1.0  0.45738  0.50827  0.68431  1.0000
  C   C534      1.0  0.44226  0.26041  0.69264  1.0000
  H   H867      1.0  0.32933  0.26245  0.85772  1.0000
  S   S218      1.0  0.48619  0.52422  0.30595  1.0000
  H   H868      1.0  0.52706  0.59114  0.31495  1.0000
  H   H869      1.0  0.56707  0.55093  0.27560  1.0000
  H   H870      1.0  0.58937  0.60806  0.23104  1.0000
  C   C535      1.0  0.65105  0.63440  0.27607  1.0000
  H   H871      1.0  0.56566  0.55517  0.23576  1.0000
  C   C536      1.0  0.64279  0.69542  0.18537  1.0000
  H   H872      1.0  0.58455  0.51957  0.27609  1.0000
  C   C537      1.0  0.51360  0.57290  0.24888  1.0000
  H   H873      1.0  0.52490  0.62308  0.31134  1.0000
  S   S219      1.0  0.55272  0.66415  0.27181  1.0000
  Fe  Fe106     1.0  0.59649  0.65022  0.29089  1.0000
  S   S220      1.0  0.58352  0.64667  0.24633  1.0000
  C   C538      1.0  0.51006  0.56147  0.31083  1.0000
  Fe  Fe107     1.0  0.58315  0.67587  0.24819  1.0000
  S   S221      1.0  0.59274  0.69441  0.20296  1.0000
  Fe  Fe108     1.0  0.55447  0.63522  0.27320  1.0000
  H   H874      1.0  0.56510  0.58877  0.29069  1.0000
  S   S222      1.0  0.59849  0.68022  0.29100  1.0000
  S   S223      1.0  0.64436  0.54710  0.02107  1.0000
  C   C539      1.0  0.60494  0.71955  0.19707  1.0000
  C   C540      1.0  0.60816  0.73074  0.22092  1.0000
  C   C541      1.0  0.59875  0.53386  0.23246  1.0000
  C   C542      1.0  0.65603  0.60012  0.08534  1.0000
  C   C543      1.0  0.62250  0.74830  0.16186  1.0000
  C   C544      1.0  0.61216  0.72841  0.16758  1.0000
  H   H875      1.0  0.60263  0.72408  0.24372  1.0000
  H   H876      1.0  0.57501  0.53122  0.16777  1.0000
  H   H877      1.0  0.60972  0.71986  0.14900  1.0000
  Fe  Fe109     1.0  0.56815  0.66605  0.31484  1.0000
  H   H878      1.0  0.60297  0.56970  0.26936  1.0000
  H   H879      1.0  0.65189  0.58940  0.10581  1.0000
  H   H880      1.0  0.63685  0.53950  0.08543  1.0000
  S   S224      1.0  0.62168  0.64218  0.30353  1.0000
  C   C545      1.0  0.48593  0.60489  0.31130  1.0000
  H   H881      1.0  0.65386  0.62991  0.29859  1.0000
  H   H882      1.0  0.65415  0.61603  0.13569  1.0000
  C   C546      1.0  0.63623  0.64147  0.27204  1.0000
  C   C547      1.0  0.63296  0.64757  0.24288  1.0000
  C   C548      1.0  0.64380  0.64577  0.21772  1.0000
  H   H883      1.0  0.56325  0.59451  0.23578  1.0000
  H   H884      1.0  0.62206  0.65359  0.23960  1.0000
  H   H885      1.0  0.64073  0.64978  0.19514  1.0000
  C   C549      1.0  0.59595  0.53724  0.20191  1.0000
  H   H886      1.0  0.60836  0.54607  0.18629  1.0000
  C   C550      1.0  0.58251  0.52232  0.25245  1.0000
  H   H887      1.0  0.52459  0.64208  0.33199  1.0000
  H   H888      1.0  0.63691  0.68725  0.24626  1.0000
  S   S225      1.0  0.56741  0.63621  0.31815  1.0000
  C   C551      1.0  0.52067  0.58076  0.29954  1.0000
  H   H889      1.0  0.51441  0.57731  0.22490  1.0000
  N   N58       1.0  0.49668  0.62493  0.31671  1.0000
  C   C552      1.0  0.57705  0.52880  0.19148  1.0000
  C   C553      1.0  0.65182  0.54978  0.08050  1.0000
  H   H890      1.0  0.49683  0.54324  0.24471  1.0000
  C   C554      1.0  0.50362  0.55357  0.26005  1.0000
  H   H891      1.0  0.64218  0.60046  0.07658  1.0000
  C   C555      1.0  0.50132  0.54784  0.29114  1.0000
  C   C556      1.0  0.49979  0.63759  0.28809  1.0000
  H   H892      1.0  0.50856  0.63401  0.27047  1.0000
  H   H893      1.0  0.62793  0.75494  0.13903  1.0000
  H   H894      1.0  0.57843  0.58819  0.20993  1.0000
  H   H895      1.0  0.50795  0.65284  0.29125  1.0000
  C   C557      1.0  0.61831  0.75068  0.21514  1.0000
  S   S226      1.0  0.62199  0.54386  0.24720  1.0000
  H   H896      1.0  0.64571  0.62761  0.10553  1.0000
  H   H897      1.0  0.66209  0.63391  0.05369  1.0000
  H   H898      1.0  0.59125  0.60234  0.28632  1.0000
  C   C558      1.0  0.52192  0.58659  0.26855  1.0000
  N   N59       1.0  0.58077  0.58046  0.25682  1.0000
  C   C559      1.0  0.56526  0.56114  0.25750  1.0000
  C   C560      1.0  0.60035  0.57954  0.25146  1.0000
  C   C561      1.0  0.57965  0.58780  0.28603  1.0000
  C   C562      1.0  0.57784  0.59338  0.23229  1.0000
  Fe  Fe110     1.0  0.65107  0.56428  0.22295  1.0000
  H   H899      1.0  0.60180  0.57413  0.22955  1.0000
  H   H900      1.0  0.48558  0.63631  0.27881  1.0000
  H   H901      1.0  0.61248  0.59381  0.25111  1.0000
  H   H902      1.0  0.58173  0.57835  0.30508  1.0000
  H   H903      1.0  0.55026  0.56123  0.26163  1.0000
  S   S227      1.0  0.53149  0.61091  0.25369  1.0000
  C   C563      1.0  0.65930  0.55638  0.05036  1.0000
  H   H904      1.0  0.63577  0.67996  0.19373  1.0000
  C   C564      1.0  0.65901  0.62605  0.11441  1.0000
  S   S228      1.0  0.65594  0.58197  0.17790  1.0000
  H   H905      1.0  0.47107  0.60259  0.30363  1.0000
  H   H906      1.0  0.49397  0.60073  0.29343  1.0000
  H   H907      1.0  0.65774  0.55093  0.12752  1.0000
  H   H908      1.0  0.65058  0.71105  0.25451  1.0000
  C   C565      1.0  0.66184  0.72709  0.19731  1.0000
  H   H909      1.0  0.64939  0.73182  0.19386  1.0000
  H   H910      1.0  0.65190  0.69706  0.16403  1.0000
  C   C566      1.0  0.56368  0.51403  0.24209  1.0000
  C   C567      1.0  0.65814  0.63809  0.22176  1.0000
  N   N60       1.0  0.65462  0.70649  0.20824  1.0000
  C   C568      1.0  0.51594  0.62707  0.32794  1.0000
  H   H911      1.0  0.63071  0.70019  0.17946  1.0000
  H   H912      1.0  0.62911  0.70611  0.23384  1.0000
  C   C569      1.0  0.64230  0.70257  0.23696  1.0000
  C   C570      1.0  0.56084  0.51710  0.21153  1.0000
  H   H913      1.0  0.47056  0.62895  0.33173  1.0000
  C   C571      1.0  0.66208  0.63283  0.25093  1.0000
  H   H914      1.0  0.62049  0.75929  0.23362  1.0000
  H   H915      1.0  0.48402  0.59478  0.33204  1.0000
  H   H916      1.0  0.61930  0.65019  0.63724  1.0000
  H   H917      1.0  0.57756  0.63590  0.46881  1.0000
  H   H918      1.0  0.60211  0.60373  0.60538  1.0000
  C   C572      1.0  0.54547  0.59380  0.64890  1.0000
  H   H919      1.0  0.59489  0.63727  0.65503  1.0000
  H   H920      1.0  0.63736  0.72403  0.58811  1.0000
  H   H921      1.0  0.61151  0.62915  0.59607  1.0000
  C   C573      1.0  0.60201  0.75452  0.53391  1.0000
  C   C574      1.0  0.62428  0.64287  0.44412  1.0000
  S   S229      1.0  0.56120  0.67959  0.35413  1.0000
  C   C575      1.0  0.63099  0.62078  0.64106  1.0000
  C   C576      1.0  0.59830  0.60334  0.66547  1.0000
  Fe  Fe111     1.0  0.56209  0.63601  0.59317  1.0000
  S   S230      1.0  0.56971  0.62745  0.54926  1.0000
  Fe  Fe112     1.0  0.58088  0.67916  0.56922  1.0000
  S   S231      1.0  0.58951  0.67379  0.52303  1.0000
  S   S232      1.0  0.59303  0.70651  0.59135  1.0000
  Fe  Fe113     1.0  0.55970  0.64974  0.52735  1.0000
  S   S233      1.0  0.54131  0.63870  0.48861  1.0000
  Fe  Fe114     1.0  0.59866  0.65199  0.54787  1.0000
  S   S234      1.0  0.62671  0.64901  0.53272  1.0000
  S   S235      1.0  0.54992  0.65682  0.57176  1.0000
  S   S236      1.0  0.59205  0.65865  0.59370  1.0000
  H   H922      1.0  0.45917  0.53278  0.63556  1.0000
  C   C577      1.0  0.55018  0.58280  0.62894  1.0000
  C   C578      1.0  0.54787  0.56391  0.63895  1.0000
  H   H923      1.0  0.55557  0.58881  0.60583  1.0000
  H   H924      1.0  0.48344  0.51725  0.63562  1.0000
  C   C579      1.0  0.64435  0.65879  0.55815  1.0000
  C   C580      1.0  0.64170  0.67129  0.57716  1.0000
  H   H925      1.0  0.49304  0.64520  0.34426  1.0000
  H   H926      1.0  0.63033  0.67674  0.57360  1.0000
  C   C581      1.0  0.60079  0.73038  0.57457  1.0000
  C   C582      1.0  0.61202  0.74498  0.59110  1.0000
  H   H927      1.0  0.58724  0.72404  0.53290  1.0000
  H   H928      1.0  0.61568  0.74135  0.61352  1.0000
  C   C583      1.0  0.55741  0.66786  0.39123  1.0000
  C   C584      1.0  0.54797  0.64801  0.39712  1.0000
  C   C585      1.0  0.54323  0.63923  0.42713  1.0000
  C   C586      1.0  0.54848  0.65014  0.45137  1.0000
  C   C587      1.0  0.55869  0.66988  0.44547  1.0000
  C   C588      1.0  0.56284  0.67874  0.41548  1.0000
  H   H929      1.0  0.54373  0.63952  0.37864  1.0000
  H   H930      1.0  0.53530  0.62394  0.43163  1.0000
  H   H931      1.0  0.56259  0.67842  0.46403  1.0000
  H   H932      1.0  0.56998  0.69412  0.41105  1.0000
  H   H933      1.0  0.59452  0.63182  0.40742  1.0000
  C   C589      1.0  0.61016  0.63753  0.65334  1.0000
  H   H934      1.0  0.55152  0.55546  0.62340  1.0000
  H   H935      1.0  0.50150  0.53800  0.64841  1.0000
  H   H936      1.0  0.63600  0.65331  0.42763  1.0000
  C   C590      1.0  0.65358  0.67657  0.60110  1.0000
  H   H937      1.0  0.58525  0.64979  0.41458  1.0000
  N   N61       1.0  0.60629  0.64715  0.44495  1.0000
  H   H938      1.0  0.63777  0.62318  0.66297  1.0000
  C   C591      1.0  0.66011  0.65291  0.56140  1.0000
  C   C592      1.0  0.59861  0.64629  0.41472  1.0000
  H   H939      1.0  0.65257  0.73447  0.52121  1.0000
  C   C593      1.0  0.60247  0.61721  0.61345  1.0000
  H   H940      1.0  0.59662  0.63322  0.49025  1.0000
  H   H941      1.0  0.58711  0.61824  0.46117  1.0000
  H   H942      1.0  0.61714  0.66770  0.47638  1.0000
  H   H943      1.0  0.58717  0.61678  0.61421  1.0000
  C   C594      1.0  0.59125  0.63299  0.46723  1.0000
  H   H944      1.0  0.63039  0.64342  0.46669  1.0000
  H   H945      1.0  0.62208  0.67758  0.43731  1.0000
  H   H946      1.0  0.59766  0.67000  0.45527  1.0000
  S   S237      1.0  0.54911  0.61793  0.63829  1.0000
  H   H947      1.0  0.62124  0.62837  0.43754  1.0000
  C   C595      1.0  0.61102  0.66648  0.45385  1.0000
  H   H948      1.0  0.65076  0.68538  0.61681  1.0000
  H   H949      1.0  0.60965  0.65663  0.39722  1.0000
  H   H950      1.0  0.64042  0.63284  0.62420  1.0000
  H   H951      1.0  0.63180  0.60751  0.63388  1.0000
  C   C596      1.0  0.59599  0.73518  0.54574  1.0000
  H   H952      1.0  0.65846  0.72008  0.60110  1.0000
  N   N62       1.0  0.61049  0.61970  0.64334  1.0000
  C   C597      1.0  0.65177  0.72362  0.58057  1.0000
  H   H953      1.0  0.64122  0.74695  0.54242  1.0000
  C   C598      1.0  0.48907  0.52418  0.65604  1.0000
  H   H954      1.0  0.59748  0.58952  0.65810  1.0000
  C   C599      1.0  0.48515  0.63020  0.33949  1.0000
  H   H955      1.0  0.59783  0.75819  0.51190  1.0000
  H   H956      1.0  0.64859  0.71163  0.56662  1.0000
  H   H957      1.0  0.48250  0.62084  0.36131  1.0000
  C   C600      1.0  0.65555  0.74592  0.53624  1.0000
  H   H958      1.0  0.51424  0.61777  0.34954  1.0000
  H   H959      1.0  0.47733  0.55352  0.64817  1.0000
  H   H960      1.0  0.65460  0.75869  0.59034  1.0000
  C   C601      1.0  0.46554  0.53929  0.65598  1.0000
  H   H961      1.0  0.50833  0.55708  0.33492  1.0000
  H   H962      1.0  0.66233  0.64334  0.54658  1.0000
  H   H963      1.0  0.59598  0.60465  0.85727  1.0000
  H   H964      1.0  0.53476  0.59418  0.69438  1.0000
  H   H965      1.0  0.64265  0.60881  0.81638  1.0000
  C   C602      1.0  0.57658  0.52364  0.82530  1.0000
  Fe  Fe115     1.0  0.65324  0.55986  0.97223  1.0000
  H   H966      1.0  0.62042  0.61885  0.86627  1.0000
  S   S238      1.0  0.53780  0.53198  0.68032  1.0000
  H   H967      1.0  0.62085  0.59065  0.89589  1.0000
  H   H968      1.0  0.59021  0.57487  0.83279  1.0000
  H   H969      1.0  0.44546  0.50982  0.69863  1.0000
  Fe  Fe116     1.0  0.64256  0.55312  0.90725  1.0000
  S   S239      1.0  0.62574  0.53526  0.87141  1.0000
  S   S240      1.0  0.63079  0.56526  0.94372  1.0000
  H   H970      1.0  0.55845  0.53334  0.89005  1.0000
  H   H971      1.0  0.59765  0.57502  0.88522  1.0000
  C   C603      1.0  0.60632  0.58072  0.82608  1.0000
  C   C604      1.0  0.61188  0.60939  0.84980  1.0000
  Fe  Fe117     1.0  0.52412  0.51102  0.79466  1.0000
  S   S241      1.0  0.51219  0.52811  0.76290  1.0000
  Fe  Fe118     1.0  0.52336  0.51583  0.72605  1.0000
  H   H972      1.0  0.48793  0.52736  0.71505  1.0000
  Fe  Fe119     1.0  0.65576  0.59291  0.92726  1.0000
  C   C605      1.0  0.60149  0.53177  0.86215  1.0000
  C   C606      1.0  0.58794  0.53425  0.88241  1.0000
  C   C607      1.0  0.56886  0.53148  0.87413  1.0000
  C   C608      1.0  0.56305  0.52610  0.84563  1.0000
  C   C609      1.0  0.59567  0.52632  0.83365  1.0000
  H   H973      1.0  0.59210  0.53811  0.90461  1.0000
  H   H974      1.0  0.64803  0.60880  0.85529  1.0000
  C   C610      1.0  0.48167  0.53620  0.70107  1.0000
  H   H975      1.0  0.57239  0.51976  0.80315  1.0000
  H   H976      1.0  0.61607  0.63988  0.67585  1.0000
  C   C611      1.0  0.53599  0.56684  0.68872  1.0000
  S   S242      1.0  0.65112  0.62017  0.91549  1.0000
  H   H977      1.0  0.61464  0.61825  0.82751  1.0000
  C   C612      1.0  0.63897  0.59990  0.83871  1.0000
  N   N63       1.0  0.61771  0.59294  0.84815  1.0000
  H   H978      1.0  0.64382  0.58782  0.83690  1.0000
  H   H979      1.0  0.53066  0.56089  0.71185  1.0000
  C   C613      1.0  0.61369  0.58166  0.87821  1.0000
  H   H980      1.0  0.60880  0.58874  0.80313  1.0000
  S   S243      1.0  0.53874  0.52254  0.83668  1.0000
  H   H981      1.0  0.61060  0.56828  0.82438  1.0000
  H   H982      1.0  0.61942  0.57010  0.87846  1.0000
  H   H983      1.0  0.47020  0.53810  0.71592  1.0000
  H   H984      1.0  0.60608  0.52440  0.81781  1.0000
  H   H985      1.0  0.49367  0.55045  0.69454  1.0000
  C   C614      1.0  0.53833  0.58571  0.67876  1.0000
  H   H986      1.0  0.60427  0.60443  0.68807  1.0000
  N   N64       1.0  0.47340  0.52697  0.67433  1.0000
  H   H987      1.0  0.45376  0.54175  0.66919  1.0000
  C   C615      1.0  0.54075  0.55585  0.66886  1.0000
  H   H988      1.0  0.49542  0.51503  0.66923  1.0000
  H   H989      1.0  0.58294  0.60261  0.66843  1.0000
  Fe  Fe120     1.0  0.35749  0.91003  0.27545  1.0000
  S   S244      1.0  0.34849  0.92604  0.30874  1.0000
  S   S245      1.0  0.38866  0.91212  0.26528  1.0000
  C   C616      1.0  0.35183  0.99546  0.24936  1.0000
  C   C617      1.0  0.65338  0.98402  0.06984  1.0000
  C   C618      1.0  0.45147  0.00410  0.25752  1.0000
  C   C619      1.0  0.64386  0.92996  0.08214  1.0000
  C   C620      1.0  0.55521  0.00497  0.13828  1.0000
  H   H990      1.0  0.63694  0.92931  0.10505  1.0000
  H   H991      1.0  0.58249  0.87858  0.02699  1.0000
  C   C621      1.0  0.36666  0.99237  0.30557  1.0000
  H   H992      1.0  0.49364  0.93292  0.01794  1.0000
  C   C622      1.0  0.44218  0.95539  0.30327  1.0000
  C   C623      1.0  0.40653  0.93865  0.30413  1.0000
  C   C624      1.0  0.40892  0.92950  0.27944  1.0000
  C   C625      1.0  0.42797  0.93354  0.26652  1.0000
  C   C626      1.0  0.44454  0.94664  0.27812  1.0000
  H   H993      1.0  0.41608  0.99547  0.23516  1.0000
  H   H994      1.0  0.42992  0.92644  0.24749  1.0000
  H   H995      1.0  0.45914  0.94957  0.26802  1.0000
  H   H996      1.0  0.51708  0.92072  0.04207  1.0000
  Fe  Fe121     1.0  0.65344  0.79910  0.13324  1.0000
  H   H997      1.0  0.64655  0.81285  0.22468  1.0000
  H   H998      1.0  0.52027  0.95370  0.04650  1.0000
  H   H999      1.0  0.63722  0.87154  0.01414  1.0000
  H   H1000     1.0  0.41604  0.98231  0.28739  1.0000
  H   H1001     1.0  0.64362  0.94280  0.06826  1.0000
  H   H1002     1.0  0.34611  0.99669  0.22761  1.0000
  H   H1003     1.0  0.54556  0.99502  0.12349  1.0000
  H   H1004     1.0  0.43278  0.99615  0.31246  1.0000
  H   H1005     1.0  0.64439  0.83567  0.22315  1.0000
  H   H1006     1.0  0.44541  0.98932  0.25113  1.0000
  H   H1007     1.0  0.65729  0.91200  0.12516  1.0000
  C   C627      1.0  0.55384  0.85186  0.00191  1.0000
  H   H1008     1.0  0.46135  0.00417  0.27587  1.0000
  H   H1009     1.0  0.63980  0.77626  0.02665  1.0000
  C   C628      1.0  0.52728  0.00122  0.17201  1.0000
  H   H1010     1.0  0.52338  0.91438  0.00619  1.0000
  Fe  Fe122     1.0  0.49247  0.98291  0.29262  1.0000
  S   S246      1.0  0.63797  0.78463  0.17918  1.0000
  H   H1011     1.0  0.58556  0.84762  0.02503  1.0000
  S   S247      1.0  0.54172  0.96466  0.22720  1.0000
  S   S248      1.0  0.51819  0.97458  0.30115  1.0000
  C   C629      1.0  0.34481  0.97791  0.26770  1.0000
  H   H1012     1.0  0.34652  0.96299  0.31032  1.0000
  H   H1013     1.0  0.63174  0.79432  0.01051  1.0000
  S   S249      1.0  0.64165  0.83710  0.03895  1.0000
  S   S250      1.0  0.34078  0.91716  0.23846  1.0000
  Fe  Fe123     1.0  0.59241  0.91028  0.06769  1.0000
  S   S251      1.0  0.60873  0.92626  0.02379  1.0000
  S   S252      1.0  0.59702  0.88527  0.09260  1.0000
  Fe  Fe124     1.0  0.56871  0.93565  0.07299  1.0000
  S   S253      1.0  0.58366  0.95373  0.02955  1.0000
  S   S254      1.0  0.54332  0.94194  0.09346  1.0000
  C   C630      1.0  0.42357  0.99700  0.29356  1.0000
  Fe  Fe125     1.0  0.61131  0.95213  0.04637  1.0000
  S   S255      1.0  0.63988  0.97753  0.03826  1.0000
  S   S256      1.0  0.56276  0.90805  0.05333  1.0000
  S   S257      1.0  0.59690  0.93619  0.09143  1.0000
  Fe  Fe126     1.0  0.65588  0.82365  0.07322  1.0000
  C   C631      1.0  0.52980  0.95843  0.02489  1.0000
  C   C632      1.0  0.64482  0.97684  0.09927  1.0000
  N   N65       1.0  0.52463  0.94314  0.00491  1.0000
  H   H1014     1.0  0.55245  0.84948  0.02709  1.0000
  Fe  Fe127     1.0  0.53588  0.00583  0.30237  1.0000
  H   H1015     1.0  0.62934  0.96810  0.10305  1.0000
  H   H1016     1.0  0.54208  0.92963  0.02690  1.0000
  C   C633      1.0  0.61071  0.87307  0.07753  1.0000
  C   C634      1.0  0.61162  0.85725  0.09522  1.0000
  C   C635      1.0  0.62161  0.84655  0.08379  1.0000
  C   C636      1.0  0.63060  0.85146  0.05438  1.0000
  C   C637      1.0  0.63004  0.86753  0.03677  1.0000
  C   C638      1.0  0.62032  0.87847  0.04845  1.0000
  H   H1017     1.0  0.60429  0.85303  0.11777  1.0000
  H   H1018     1.0  0.62179  0.83411  0.09745  1.0000
  S   S258      1.0  0.46268  0.97128  0.31920  1.0000
  H   H1019     1.0  0.62017  0.89094  0.03493  1.0000
  C   C639      1.0  0.54171  0.95854  0.18983  1.0000
  C   C640      1.0  0.52589  0.95632  0.17206  1.0000
  C   C641      1.0  0.52661  0.95133  0.14252  1.0000
  C   C642      1.0  0.54304  0.94833  0.13061  1.0000
  C   C643      1.0  0.55882  0.95055  0.14839  1.0000
  C   C644      1.0  0.55811  0.95554  0.17787  1.0000
  H   H1020     1.0  0.51289  0.95790  0.18138  1.0000
  H   H1021     1.0  0.51420  0.94938  0.12909  1.0000
  H   H1022     1.0  0.57153  0.94823  0.13958  1.0000
  H   H1023     1.0  0.57032  0.95702  0.19155  1.0000
  H   H1024     1.0  0.54527  0.96252  0.03114  1.0000
  S   S259      1.0  0.65880  0.83010  0.12110  1.0000
  C   C645      1.0  0.42314  0.95129  0.31634  1.0000
  S   S260      1.0  0.64716  0.79208  0.08594  1.0000
  H   H1025     1.0  0.64973  0.97525  0.14667  1.0000
  C   C646      1.0  0.52677  0.92616  0.02066  1.0000
  Fe  Fe128     1.0  0.57954  0.92631  0.01101  1.0000
  C   C647      1.0  0.35225  0.97638  0.29578  1.0000
  C   C648      1.0  0.65634  0.98108  0.12399  1.0000
  S   S261      1.0  0.33290  0.88176  0.29053  1.0000
  S   S262      1.0  0.49796  0.98573  0.24224  1.0000
  H   H1026     1.0  0.64723  0.82594  0.18898  1.0000
  H   H1027     1.0  0.39193  0.93561  0.31431  1.0000
  H   H1028     1.0  0.63432  0.91719  0.07204  1.0000
  Fe  Fe129     1.0  0.52553  0.98042  0.25074  1.0000
  H   H1029     1.0  0.65492  0.90012  0.09177  1.0000
  C   C649      1.0  0.65203  0.82753  0.21231  1.0000
  H   H1030     1.0  0.37122  0.89089  0.32384  1.0000
  H   H1031     1.0  0.53157  0.99297  0.19038  1.0000
  H   H1032     1.0  0.37219  0.99118  0.32750  1.0000
  H   H1033     1.0  0.56017  0.99619  0.15498  1.0000
  H   H1034     1.0  0.52828  0.97148  0.01393  1.0000
  H   H1035     1.0  0.41192  0.00165  0.30224  1.0000
  H   H1036     1.0  0.51728  0.99088  0.15811  1.0000
  H   H1037     1.0  0.51854  0.00834  0.18286  1.0000
  C   C650      1.0  0.58308  0.88029  0.00182  1.0000
  C   C651      1.0  0.63738  0.78325  0.00488  1.0000
  H   H1038     1.0  0.33010  0.94393  0.19657  1.0000
  Fe  Fe130     1.0  0.32944  0.93067  0.27308  1.0000
  C   C652      1.0  0.62548  0.75954  0.18560  1.0000
  Fe  Fe131     1.0  0.35297  0.91321  0.52701  1.0000
  S   S263      1.0  0.34388  0.89307  0.57059  1.0000
  S   S264      1.0  0.36441  0.90925  0.48126  1.0000
  Fe  Fe132     1.0  0.34737  0.94511  0.55558  1.0000
  C   C653      1.0  0.59909  0.79990  0.61589  1.0000
  S   S265      1.0  0.35210  0.97607  0.54763  1.0000
  Fe  Fe133     1.0  0.36253  0.91865  0.59298  1.0000
  S   S266      1.0  0.38054  0.91720  0.63333  1.0000
  S   S267      1.0  0.37369  0.93758  0.54916  1.0000
  C   C654      1.0  0.40169  0.93591  0.64335  1.0000
  N   N66       1.0  0.50696  0.99574  0.39697  1.0000
  H   H1039     1.0  0.56374  0.78594  0.59337  1.0000
  C   C655      1.0  0.34115  0.98327  0.57680  1.0000
  C   C656      1.0  0.34393  0.91031  0.39810  1.0000
  C   C657      1.0  0.61337  0.76909  0.55041  1.0000
  H   H1040     1.0  0.39069  0.97740  0.62519  1.0000
  C   C658      1.0  0.35535  0.91524  0.42294  1.0000
  C   C659      1.0  0.34843  0.90515  0.45181  1.0000
  C   C660      1.0  0.38874  0.87187  0.35788  1.0000
  H   H1041     1.0  0.36970  0.92676  0.41977  1.0000
  H   H1042     1.0  0.48369  0.96944  0.38928  1.0000
  C   C661      1.0  0.39069  0.90211  0.37267  1.0000
  C   C662      1.0  0.52156  0.98687  0.40121  1.0000
  S   S268      1.0  0.65161  0.84691  0.53579  1.0000
  H   H1043     1.0  0.48035  0.99066  0.37435  1.0000
  H   H1044     1.0  0.49008  0.98182  0.43896  1.0000
  H   H1045     1.0  0.53411  0.99571  0.41342  1.0000
  C   C663      1.0  0.43394  0.96611  0.66238  1.0000
  H   H1046     1.0  0.43489  0.98065  0.61808  1.0000
  H   H1047     1.0  0.47918  0.94784  0.63154  1.0000
  C   C664      1.0  0.37069  0.98809  0.66587  1.0000
  H   H1048     1.0  0.35556  0.85804  0.39549  1.0000
  C   C665      1.0  0.41152  0.95267  0.62381  1.0000
  C   C666      1.0  0.42749  0.96769  0.63334  1.0000
  H   H1049     1.0  0.40673  0.95412  0.60137  1.0000
  H   H1050     1.0  0.47278  0.91292  0.63873  1.0000
  H   H1051     1.0  0.35717  0.88046  0.40649  1.0000
  H   H1052     1.0  0.58835  0.78710  0.63011  1.0000
  Fe  Fe134     1.0  0.65964  0.85282  0.58270  1.0000
  H   H1053     1.0  0.49797  0.98351  0.35586  1.0000
  H   H1054     1.0  0.36698  0.97377  0.61204  1.0000
  H   H1055     1.0  0.37286  0.95366  0.62456  1.0000
  H   H1056     1.0  0.39984  0.90959  0.35135  1.0000
  H   H1057     1.0  0.58862  0.82727  0.63582  1.0000
  S   S269      1.0  0.65155  0.82184  0.59920  1.0000
  S   S270      1.0  0.33739  0.92793  0.60076  1.0000
  H   H1058     1.0  0.33763  0.96224  0.64747  1.0000
  N   N67       1.0  0.58913  0.81095  0.59926  1.0000
  H   H1059     1.0  0.50911  0.00482  0.44131  1.0000
  H   H1060     1.0  0.57062  0.82610  0.60925  1.0000
  H   H1061     1.0  0.60748  0.79475  0.60003  1.0000
  C   C667      1.0  0.57840  0.81778  0.62103  1.0000
  H   H1062     1.0  0.65136  0.91879  0.51750  1.0000
  H   H1063     1.0  0.39954  0.87101  0.37418  1.0000
  H   H1064     1.0  0.37601  0.87184  0.41550  1.0000
  H   H1065     1.0  0.60378  0.99274  0.64428  1.0000
  H   H1066     1.0  0.45478  0.94197  0.64848  1.0000
  H   H1067     1.0  0.40085  0.90203  0.39049  1.0000
  C   C668      1.0  0.57514  0.79861  0.57983  1.0000
  H   H1068     1.0  0.38243  0.91087  0.37937  1.0000
  H   H1069     1.0  0.61194  0.82278  0.56312  1.0000
  C   C669      1.0  0.36606  0.87276  0.39779  1.0000
  H   H1070     1.0  0.34943  0.91814  0.37600  1.0000
  C   C670      1.0  0.60393  0.82750  0.58022  1.0000
  H   H1071     1.0  0.51483  0.97239  0.41411  1.0000
  C   C671      1.0  0.36332  0.88351  0.34608  1.0000
  Fe  Fe135     1.0  0.64630  0.81636  0.55114  1.0000
  S   S271      1.0  0.61973  0.79320  0.53577  1.0000
  H   H1072     1.0  0.48684  0.00314  0.42427  1.0000
  H   H1073     1.0  0.47542  0.95918  0.66336  1.0000
  C   C672      1.0  0.63509  0.87203  0.63327  1.0000
  H   H1074     1.0  0.36329  0.99471  0.64973  1.0000
  C   C673      1.0  0.63112  0.88757  0.64166  1.0000
  H   H1075     1.0  0.35426  0.89140  0.35334  1.0000
  C   C674      1.0  0.34567  0.95673  0.66409  1.0000
  H   H1076     1.0  0.50242  0.93639  0.65794  1.0000
  C   C675      1.0  0.49785  0.99640  0.42672  1.0000
  C   C676      1.0  0.61862  0.76424  0.57887  1.0000
  H   H1077     1.0  0.63719  0.90116  0.62757  1.0000
  H   H1078     1.0  0.62738  0.77531  0.59177  1.0000
  H   H1079     1.0  0.58301  0.00800  0.38428  1.0000
  N   N68       1.0  0.37720  0.88256  0.36866  1.0000
  H   H1080     1.0  0.56749  0.80648  0.56659  1.0000
  H   H1081     1.0  0.58286  0.79315  0.56330  1.0000
  C   C677      1.0  0.37473  0.96830  0.62919  1.0000
  H   H1082     1.0  0.60968  0.80867  0.63098  1.0000
  H   H1083     1.0  0.56722  0.80568  0.63599  1.0000
  S   S272      1.0  0.65081  0.87558  0.60045  1.0000
  H   H1084     1.0  0.59702  0.83637  0.56770  1.0000
  H   H1085     1.0  0.52791  0.98520  0.37911  1.0000
  C   C678      1.0  0.49158  0.98435  0.37842  1.0000
  C   C679      1.0  0.35093  0.00130  0.58597  1.0000
  H   H1086     1.0  0.34248  0.94158  0.66077  1.0000
  H   H1087     1.0  0.63046  0.84257  0.64571  1.0000
  H   H1088     1.0  0.35287  0.86902  0.34243  1.0000
  C   C680      1.0  0.47038  0.94540  0.65347  1.0000
  H   H1089     1.0  0.61509  0.83694  0.59391  1.0000
  C   C681      1.0  0.62716  0.85453  0.65165  1.0000
  H   H1090     1.0  0.65728  0.90150  0.47660  1.0000
  H   H1091     1.0  0.44878  0.90780  0.65674  1.0000
  C   C682      1.0  0.46463  0.91186  0.66079  1.0000
  H   H1092     1.0  0.42121  0.95796  0.33590  1.0000
  H   H1093     1.0  0.37899  0.85703  0.35463  1.0000
  H   H1094     1.0  0.38671  0.99718  0.66326  1.0000
  H   H1095     1.0  0.65759  0.98444  0.46211  1.0000
  H   H1096     1.0  0.39710  0.87884  0.33570  1.0000
  C   C683      1.0  0.32979  0.89040  0.45583  1.0000
  N   N69       1.0  0.36707  0.96829  0.66030  1.0000
  C   C684      1.0  0.34225  0.00738  0.60915  1.0000
  C   C685      1.0  0.61163  0.00843  0.64416  1.0000
  C   C686      1.0  0.66212  0.00852  0.42882  1.0000
  H   H1097     1.0  0.60255  0.98049  0.84761  1.0000
  H   H1098     1.0  0.62412  0.99736  0.86153  1.0000
  H   H1099     1.0  0.62888  0.97595  0.77775  1.0000
  Fe  Fe136     1.0  0.47436  0.99075  0.78250  1.0000
  H   H1100     1.0  0.49540  0.92367  0.69539  1.0000
  S   S273      1.0  0.46046  0.99178  0.82827  1.0000
  Fe  Fe137     1.0  0.47095  0.98636  0.71510  1.0000
  H   H1101     1.0  0.65281  0.76550  0.96720  1.0000
  S   S274      1.0  0.46102  0.96531  0.75699  1.0000
  H   H1102     1.0  0.62562  0.77218  0.99432  1.0000
  C   C687      1.0  0.34758  0.96760  0.93793  1.0000
  H   H1103     1.0  0.39346  0.96799  0.67912  1.0000
  C   C688      1.0  0.64852  0.00242  0.81216  1.0000
  H   H1104     1.0  0.56946  0.85095  0.94684  1.0000
  C   C689      1.0  0.63345  0.97045  0.83787  1.0000
  H   H1105     1.0  0.35332  0.95719  0.94683  1.0000
  S   S275      1.0  0.49697  0.93827  0.75680  1.0000
  H   H1106     1.0  0.49971  0.92654  0.98225  1.0000
  C   C690      1.0  0.33289  0.96266  0.91760  1.0000
  S   S276      1.0  0.37515  0.99266  0.96872  1.0000
  C   C691      1.0  0.40837  0.93418  0.67224  1.0000
  C   C692      1.0  0.33258  0.99442  0.91495  1.0000
  H   H1107     1.0  0.42899  0.94791  0.70434  1.0000
  H   H1108     1.0  0.36557  0.99706  0.87849  1.0000
  C   C693      1.0  0.53796  0.94984  0.97693  1.0000
  H   H1109     1.0  0.65983  0.89929  0.74051  1.0000
  N   N70       1.0  0.47239  0.93000  0.67421  1.0000
  C   C694      1.0  0.61949  0.88576  0.66835  1.0000
  H   H1110     1.0  0.61646  0.89783  0.67443  1.0000
  N   N71       1.0  0.39045  0.99166  0.86192  1.0000
  C   C695      1.0  0.35531  0.98616  0.94593  1.0000
  C   C696      1.0  0.57588  0.86467  0.95663  1.0000
  C   C697      1.0  0.61516  0.85262  0.67813  1.0000
  H   H1111     1.0  0.46272  0.91676  0.71994  1.0000
  H   H1112     1.0  0.37217  0.96015  0.70578  1.0000
  Fe  Fe138     1.0  0.49163  0.96552  0.75282  1.0000
  H   H1113     1.0  0.49970  0.94843  0.68945  1.0000
  H   H1114     1.0  0.46590  0.89995  0.67597  1.0000
  H   H1115     1.0  0.60909  0.98872  0.69896  1.0000
  C   C698      1.0  0.65192  0.80026  0.95583  1.0000
  H   H1116     1.0  0.58035  0.00304  0.78218  1.0000
  H   H1117     1.0  0.65357  0.90671  0.70444  1.0000
  H   H1118     1.0  0.60548  0.96717  0.79951  1.0000
  H   H1119     1.0  0.61569  0.99113  0.78132  1.0000
  H   H1120     1.0  0.61395  0.00438  0.82873  1.0000
  H   H1121     1.0  0.38806  0.98681  0.91045  1.0000
  Fe  Fe139     1.0  0.60237  0.89176  0.74503  1.0000
  S   S277      1.0  0.62472  0.89568  0.77913  1.0000
  S   S278      1.0  0.59665  0.86569  0.72027  1.0000
  Fe  Fe140     1.0  0.59758  0.92864  0.75587  1.0000
  S   S279      1.0  0.61999  0.93531  0.79026  1.0000
  S   S280      1.0  0.58768  0.95285  0.74263  1.0000
  Fe  Fe141     1.0  0.63742  0.92599  0.75816  1.0000
  Fe  Fe142     1.0  0.60520  0.90458  0.80878  1.0000
  S   S281      1.0  0.60505  0.89638  0.85915  1.0000
  S   S282      1.0  0.61655  0.92174  0.72201  1.0000
  S   S283      1.0  0.58122  0.89806  0.77649  1.0000
  C   C699      1.0  0.59543  0.90628  0.88684  1.0000
  C   C700      1.0  0.60458  0.90955  0.91397  1.0000
  C   C701      1.0  0.59601  0.91514  0.93808  1.0000
  C   C702      1.0  0.57788  0.91691  0.93557  1.0000
  C   C703      1.0  0.56897  0.91413  0.90818  1.0000
  C   C704      1.0  0.57782  0.90902  0.88374  1.0000
  H   H1122     1.0  0.61825  0.90752  0.91643  1.0000
  H   H1123     1.0  0.60324  0.91768  0.95877  1.0000
  H   H1124     1.0  0.55496  0.91551  0.90600  1.0000
  H   H1125     1.0  0.57055  0.90633  0.86303  1.0000
  H   H1126     1.0  0.33927  0.95680  0.68706  1.0000
  H   H1127     1.0  0.65197  0.96803  0.74557  1.0000
  C   C705      1.0  0.56241  0.94842  0.74720  1.0000
  C   C706      1.0  0.55642  0.96385  0.74333  1.0000
  H   H1128     1.0  0.56733  0.97821  0.73823  1.0000
  H   H1129     1.0  0.41022  0.98663  0.89285  1.0000
  H   H1130     1.0  0.41617  0.99143  0.83765  1.0000
  H   H1131     1.0  0.61957  0.95771  0.84432  1.0000
  C   C707      1.0  0.61142  0.86829  0.68670  1.0000
  C   C708      1.0  0.61950  0.97982  0.79382  1.0000
  H   H1132     1.0  0.53468  0.93855  0.96150  1.0000
  H   H1133     1.0  0.60905  0.83909  0.69236  1.0000
  C   C709      1.0  0.34785  0.99957  0.93437  1.0000
  C   C710      1.0  0.37879  0.97130  0.85970  1.0000
  C   C711      1.0  0.53636  0.96081  0.74639  1.0000
  C   C712      1.0  0.54824  0.92989  0.75416  1.0000
  H   H1134     1.0  0.55275  0.91792  0.75710  1.0000
  C   C713      1.0  0.37720  0.96001  0.68202  1.0000
  C   C714      1.0  0.50404  0.93808  0.99726  1.0000
  H   H1135     1.0  0.53190  0.97280  0.74343  1.0000
  H   H1136     1.0  0.37429  0.94488  0.67881  1.0000
  H   H1137     1.0  0.64644  0.81175  0.95931  1.0000
  H   H1138     1.0  0.64062  0.97472  0.85899  1.0000
  H   H1139     1.0  0.56789  0.87381  0.94838  1.0000
  H   H1140     1.0  0.65641  0.00803  0.83213  1.0000
  H   H1141     1.0  0.40083  0.92128  0.68755  1.0000
  H   H1142     1.0  0.54898  0.00394  0.76517  1.0000
  H   H1143     1.0  0.44957  0.99796  0.88702  1.0000
  H   H1144     1.0  0.38815  0.96273  0.86141  1.0000
  S   S284      1.0  0.50410  0.98877  0.78225  1.0000
  S   S285      1.0  0.56534  0.92124  0.96680  1.0000
  H   H1145     1.0  0.46642  0.94140  0.71381  1.0000
  C   C715      1.0  0.40618  0.99937  0.83699  1.0000
  H   H1146     1.0  0.51722  0.91248  0.76250  1.0000
  S   S286      1.0  0.50086  0.98494  0.70930  1.0000
  N   N72       1.0  0.62962  0.98625  0.82115  1.0000
  H   H1147     1.0  0.37182  0.96930  0.83791  1.0000
  N   N73       1.0  0.65578  0.79172  0.98484  1.0000
  C   C716      1.0  0.65902  0.89640  0.71651  1.0000
  C   C717      1.0  0.52218  0.94228  0.75331  1.0000
  H   H1148     1.0  0.36673  0.96511  0.87815  1.0000
  H   H1149     1.0  0.50186  0.95057  0.98534  1.0000
  C   C718      1.0  0.49339  0.93482  0.67932  1.0000
  H   H1150     1.0  0.64070  0.78939  0.94414  1.0000
  C   C719      1.0  0.39937  0.99357  0.89119  1.0000
  C   C720      1.0  0.61700  0.99237  0.84069  1.0000
  C   C721      1.0  0.52814  0.92683  0.75711  1.0000
  C   C722      1.0  0.42433  0.94924  0.68181  1.0000
  H   H1151     1.0  0.40002  0.99841  0.81454  1.0000
  H   H1152     1.0  0.54505  0.86046  0.99490  1.0000
  H   H1153     1.0  0.44514  0.92392  0.70054  1.0000
  H   H1154     1.0  0.57492  0.88950  0.99496  1.0000
  H   H1155     1.0  0.63294  0.00773  0.69147  1.0000
  C   C723      1.0  0.37746  0.00245  0.85986  1.0000
  H   H1156     1.0  0.36495  0.98864  0.68905  1.0000
  Fe  Fe143     1.0  0.51115  0.00838  0.73902  1.0000
  C   C724      1.0  0.46110  0.92788  0.70335  1.0000
  H   H1157     1.0  0.53678  0.96263  0.96432  1.0000
  H   H1158     1.0  0.61557  0.00885  0.71984  1.0000
  H   H1159     1.0  0.64343  0.96589  0.82403  1.0000
  S   S287      1.0  0.45390  0.98562  0.67325  1.0000
  H   H1160     1.0  0.37022  0.00115  0.83827  1.0000
  H   H1161     1.0  0.54695  0.83771  0.99355  1.0000
  H   H1162     1.0  0.59143  0.87191  0.94688  1.0000
  N   N74       1.0  0.57467  0.86165  0.99004  1.0000
  H   H1163     1.0  0.59874  0.88816  0.99312  1.0000
  H   H1164     1.0  0.60162  0.85682  0.99111  1.0000
  C   C725      1.0  0.61705  0.00451  0.69703  1.0000
  H   H1165     1.0  0.57980  0.83559  0.99178  1.0000
  H   H1166     1.0  0.64767  0.88180  0.71599  1.0000
  H   H1167     1.0  0.65854  0.99824  0.79773  1.0000
  H   H1168     1.0  0.55363  0.95369  0.98195  1.0000
  H   H1169     1.0  0.57945  0.99375  0.68373  1.0000
  H   H1170     1.0  0.40708  0.00881  0.89466  1.0000
  C   C726      1.0  0.58586  0.84988  0.99990  1.0000
  H   H1171     1.0  0.95594  0.24211  0.28620  1.0000
  H   H1172     1.0  0.82635  0.01055  0.12953  1.0000
  H   H1173     1.0  0.75635  0.05139  0.06830  1.0000
  H   H1174     1.0  0.94392  0.24472  0.25274  1.0000
  C   C727      1.0  0.81298  0.01352  0.13484  1.0000
  C   C728      1.0  0.78509  0.05495  0.04964  1.0000
  C   C729      1.0  0.76884  0.06012  0.05274  1.0000
  C   C730      1.0  0.75678  0.01281  0.26320  1.0000
  H   H1175     1.0  0.78843  0.02165  0.17173  1.0000
  Fe  Fe144     1.0  0.76054  0.01110  0.09967  1.0000
  C   C731      1.0  0.79944  0.03403  0.15703  1.0000
  S   S288      1.0  0.74983  0.01385  0.14635  1.0000
  H   H1176     1.0  0.83554  0.06079  0.14147  1.0000
  N   N75       1.0  0.81766  0.03079  0.15038  1.0000
  H   H1177     1.0  0.75343  0.02549  0.26280  1.0000
  H   H1178     1.0  0.75966  0.01418  0.21458  1.0000
  H   H1179     1.0  0.75654  0.08102  0.03938  1.0000
  S   S289      1.0  0.78625  0.03466  0.07145  1.0000
  S   S290      1.0  0.75137  0.01088  0.32445  1.0000
  H   H1180     1.0  0.90704  0.25916  0.29015  1.0000
  C   C732      1.0  0.83174  0.04745  0.13059  1.0000
  H   H1181     1.0  0.90269  0.23486  0.28593  1.0000
  H   H1182     1.0  0.96596  0.24701  0.02269  1.0000
  H   H1183     1.0  0.92921  0.23060  0.02518  1.0000
  H   H1184     1.0  0.84833  0.22365  0.32530  1.0000
  C   C733      1.0  0.80124  0.06656  0.02940  1.0000
  H   H1185     1.0  0.84566  0.04550  0.12489  1.0000
  C   C734      1.0  0.76898  0.07693  0.03627  1.0000
  H   H1186     1.0  0.80646  0.01512  0.11307  1.0000
  C   C735      1.0  0.82629  0.02809  0.17901  1.0000
  H   H1187     1.0  0.82993  0.04081  0.19146  1.0000
  C   C736      1.0  0.94146  0.24053  0.27764  1.0000
  N   N76       1.0  0.93274  0.25235  0.29251  1.0000
  H   H1188     1.0  0.84003  0.02550  0.17495  1.0000
  H   H1189     1.0  0.82542  0.04972  0.10885  1.0000
  H   H1190     1.0  0.66562  0.05687  0.32271  1.0000
  C   C737      1.0  0.78520  0.08862  0.01622  1.0000
  H   H1191     1.0  0.93165  0.22513  0.28171  1.0000
  H   H1192     1.0  0.80234  0.04690  0.16889  1.0000
  H   H1193     1.0  0.81581  0.01558  0.19428  1.0000
  C   C738      1.0  0.92984  0.23710  0.00155  1.0000
  C   C739      1.0  0.92979  0.24643  0.32548  1.0000
  H   H1194     1.0  0.79258  0.03620  0.13587  1.0000
  C   C740      1.0  0.91358  0.24979  0.28043  1.0000
  H   H1195     1.0  0.91511  0.25345  0.25545  1.0000
  C   C741      1.0  0.80126  0.08323  0.01258  1.0000
  C   C742      1.0  0.87309  0.24972  0.32955  1.0000
  H   H1196     1.0  0.81389  0.06271  0.02684  1.0000
  H   H1197     1.0  0.87208  0.25662  0.30767  1.0000
  H   H1198     1.0  0.91896  0.23148  0.33111  1.0000
  H   H1199     1.0  0.70360  0.04023  0.44857  1.0000
  Fe  Fe145     1.0  0.67560  0.09298  0.44945  1.0000
  S   S291      1.0  0.68309  0.06756  0.46158  1.0000
  S   S292      1.0  0.70026  0.12201  0.43969  1.0000
  H   H1200     1.0  0.72590  0.03576  0.44902  1.0000
  S   S293      1.0  0.99489  0.20999  0.62951  1.0000
  C   C743      1.0  0.67192  0.01849  0.40113  1.0000
  C   C744      1.0  0.75975  0.07912  0.40704  1.0000
  H   H1201     1.0  0.73011  0.09027  0.39409  1.0000
  H   H1202     1.0  0.69604  0.11827  0.60197  1.0000
  C   C745      1.0  0.85963  0.23104  0.33961  1.0000
  C   C746      1.0  0.72272  0.12580  0.45585  1.0000
  C   C747      1.0  0.74013  0.13477  0.56042  1.0000
  H   H1203     1.0  0.71140  0.10029  0.48749  1.0000
  H   H1204     1.0  0.68044  0.03084  0.49287  1.0000
  H   H1205     1.0  0.77463  0.07881  0.40260  1.0000
  Fe  Fe146     1.0  0.75757  0.01420  0.43405  1.0000
  H   H1206     1.0  0.70288  0.01655  0.44772  1.0000
  H   H1207     1.0  0.76920  0.12304  0.36955  1.0000
  H   H1208     1.0  0.74335  0.10624  0.50972  1.0000
  H   H1209     1.0  0.73836  0.15224  0.42731  1.0000
  H   H1210     1.0  0.70912  0.10448  0.54604  1.0000
  C   C748      1.0  0.71562  0.10260  0.56767  1.0000
  S   S294      1.0  0.67459  0.08876  0.65276  1.0000
  H   H1211     1.0  0.78344  0.10851  0.36755  1.0000
  H   H1212     1.0  0.70382  0.09147  0.58316  1.0000
  H   H1213     1.0  0.75419  0.07187  0.43031  1.0000
  H   H1214     1.0  0.76839  0.10342  0.44927  1.0000
  H   H1215     1.0  0.71404  0.14215  0.59510  1.0000
  H   H1216     1.0  0.67456  0.05137  0.64313  1.0000
  C   C749      1.0  0.66656  0.04734  0.59738  1.0000
  H   H1217     1.0  0.70178  0.13041  0.56416  1.0000
  H   H1218     1.0  0.77463  0.12483  0.42364  1.0000
  H   H1219     1.0  0.68465  0.01887  0.52673  1.0000
  H   H1220     1.0  0.72714  0.09687  0.56298  1.0000
  C   C750      1.0  0.71930  0.04475  0.50329  1.0000
  C   C751      1.0  0.72423  0.11280  0.47900  1.0000
  H   H1221     1.0  0.71920  0.10674  0.62660  1.0000
  N   N77       1.0  0.70787  0.02680  0.49106  1.0000
  H   H1222     1.0  0.73440  0.09222  0.43324  1.0000
  N   N78       1.0  0.72383  0.12073  0.58106  1.0000
  C   C752      1.0  0.73124  0.11725  0.61050  1.0000
  H   H1223     1.0  0.74683  0.14860  0.56983  1.0000
  C   C753      1.0  0.68684  0.02047  0.50163  1.0000
  H   H1224     1.0  0.74297  0.11150  0.60795  1.0000
  H   H1225     1.0  0.92403  0.25563  0.33746  1.0000
  S   S295      1.0  0.73407  0.01100  0.40233  1.0000
  C   C754      1.0  0.70825  0.12824  0.58571  1.0000
  C   C755      1.0  0.71015  0.03004  0.45768  1.0000
  H   H1226     1.0  0.74997  0.07036  0.39105  1.0000
  H   H1227     1.0  0.78888  0.11034  0.42151  1.0000
  C   C756      1.0  0.66872  0.07510  0.62203  1.0000
  C   C757      1.0  0.93666  0.25016  0.57259  1.0000
  C   C758      1.0  0.73945  0.14210  0.44518  1.0000
  H   H1228     1.0  0.73527  0.04982  0.49586  1.0000
  H   H1229     1.0  0.69046  0.01869  0.36245  1.0000
  H   H1230     1.0  0.73498  0.13779  0.53805  1.0000
  C   C759      1.0  0.74228  0.11625  0.49167  1.0000
  H   H1231     1.0  0.75214  0.12955  0.55611  1.0000
  H   H1232     1.0  0.73749  0.13060  0.62135  1.0000
  C   C760      1.0  0.88941  0.11493  0.49779  1.0000
  Fe  Fe147     1.0  0.84125  0.18018  0.42430  1.0000
  S   S296      1.0  0.83153  0.18468  0.47064  1.0000
  S   S297      1.0  0.84332  0.19832  0.37959  1.0000
  Fe  Fe148     1.0  0.84185  0.14141  0.44714  1.0000
  S   S298      1.0  0.83315  0.14354  0.49462  1.0000
  S   S299      1.0  0.84497  0.11430  0.43599  1.0000
  Fe  Fe149     1.0  0.81087  0.15375  0.47476  1.0000
  S   S300      1.0  0.78074  0.13713  0.49954  1.0000
  Fe  Fe150     1.0  0.85466  0.17394  0.48675  1.0000
  S   S301      1.0  0.87183  0.18552  0.52694  1.0000
  S   S302      1.0  0.81860  0.15002  0.42744  1.0000
  S   S303      1.0  0.86549  0.17115  0.44016  1.0000
  N   N79       1.0  0.88224  0.12824  0.51156  1.0000
  C   C761      1.0  0.86150  0.11790  0.52362  1.0000
  S   S304      1.0  0.76544  0.04056  0.45880  1.0000
  C   C762      1.0  0.76831  0.10805  0.37271  1.0000
  C   C763      1.0  0.74053  0.09863  0.40977  1.0000
  C   C764      1.0  0.75893  0.13266  0.48126  1.0000
  C   C765      1.0  0.75756  0.14547  0.45770  1.0000
  C   C766      1.0  0.88352  0.14390  0.48832  1.0000
  H   H1233     1.0  0.96653  0.25499  0.50971  1.0000
  H   H1234     1.0  0.88936  0.14648  0.54693  1.0000
  H   H1235     1.0  0.87780  0.15398  0.49777  1.0000
  H   H1236     1.0  0.77031  0.15824  0.44970  1.0000
  H   H1237     1.0  0.85984  0.10564  0.54068  1.0000
  H   H1238     1.0  0.89897  0.15222  0.47896  1.0000
  H   H1239     1.0  0.89384  0.12492  0.55439  1.0000
  C   C767      1.0  0.78797  0.06056  0.45237  1.0000
  C   C768      1.0  0.80348  0.06103  0.43277  1.0000
  C   C769      1.0  0.82101  0.07749  0.42802  1.0000
  C   C770      1.0  0.82296  0.09368  0.44232  1.0000
  C   C771      1.0  0.80737  0.09319  0.46174  1.0000
  C   C772      1.0  0.79004  0.07667  0.46690  1.0000
  H   H1240     1.0  0.80203  0.04869  0.42143  1.0000
  H   H1241     1.0  0.83302  0.07774  0.41300  1.0000
  H   H1242     1.0  0.80868  0.10552  0.47299  1.0000
  H   H1243     1.0  0.77815  0.07642  0.48218  1.0000
  C   C773      1.0  0.93491  0.19532  0.55128  1.0000
  C   C774      1.0  0.92933  0.19098  0.52221  1.0000
  C   C775      1.0  0.91014  0.18809  0.51419  1.0000
  C   C776      1.0  0.89620  0.18905  0.53548  1.0000
  C   C777      1.0  0.90178  0.19330  0.56457  1.0000
  C   C778      1.0  0.92103  0.19645  0.57245  1.0000
  H   H1244     1.0  0.94004  0.19017  0.50566  1.0000
  H   H1245     1.0  0.90626  0.18547  0.49145  1.0000
  H   H1246     1.0  0.89109  0.19409  0.58119  1.0000
  H   H1247     1.0  0.92504  0.19945  0.59505  1.0000
  C   C779      1.0  0.87513  0.23160  0.38653  1.0000
  H   H1248     1.0  0.91016  0.14433  0.52795  1.0000
  H   H1249     1.0  0.87595  0.22475  0.40855  1.0000
  H   H1250     1.0  0.92295  0.25255  0.57796  1.0000
  C   C780      1.0  0.67020  0.05730  0.62295  1.0000
  H   H1251     1.0  0.71411  0.05627  0.49565  1.0000
  H   H1252     1.0  0.74056  0.11333  0.40703  1.0000
  H   H1253     1.0  0.71789  0.04283  0.52844  1.0000
  C   C781      1.0  0.89443  0.13628  0.53631  1.0000
  C   C782      1.0  0.88858  0.25027  0.37648  1.0000
  H   H1254     1.0  0.75882  0.10020  0.35562  1.0000
  S   S305      1.0  0.96426  0.23237  0.62719  1.0000
  H   H1255     1.0  0.85181  0.11218  0.50526  1.0000
  C   C783      1.0  0.77365  0.10982  0.42550  1.0000
  C   C784      1.0  0.68294  0.01107  0.38393  1.0000
  H   H1256     1.0  0.85574  0.12744  0.53473  1.0000
  H   H1257     1.0  0.88040  0.10873  0.47899  1.0000
  N   N80       1.0  0.76053  0.09889  0.40376  1.0000
  C   C785      1.0  0.71519  0.01188  0.50166  1.0000
  Fe  Fe151     1.0  0.97595  0.21727  0.59561  1.0000
  H   H1258     1.0  0.90497  0.12229  0.48822  1.0000
  C   C786      1.0  0.86055  0.22188  0.36814  1.0000
  S   S306      1.0  0.95921  0.19892  0.56027  1.0000
  H   H1259     1.0  0.87477  0.13836  0.46905  1.0000
  H   H1260     1.0  0.88865  0.10286  0.51462  1.0000
  H   H1261     1.0  0.93362  0.23487  0.57972  1.0000
  H   H1262     1.0  0.91370  0.24619  0.52649  1.0000
  N   N81       1.0  0.94334  0.25546  0.54012  1.0000
  S   S307      1.0  0.67214  0.04102  0.38892  1.0000
  C   C787      1.0  0.92767  0.24409  0.52196  1.0000
  H   H1263     1.0  0.93205  0.24792  0.49731  1.0000
  H   H1264     1.0  0.66786  0.03364  0.59822  1.0000
  H   H1265     1.0  0.92434  0.22858  0.52717  1.0000
  H   H1266     1.0  0.73108  0.01625  0.49449  1.0000
  H   H1267     1.0  0.94382  0.24753  0.33523  1.0000
  Fe  Fe152     1.0  0.98513  0.22751  0.65979  1.0000
  C   C788      1.0  0.66348  0.08279  0.59539  1.0000
  C   C789      1.0  0.96128  0.25161  0.53408  1.0000
  H   H1268     1.0  0.89977  0.25768  0.39092  1.0000
  H   H1269     1.0  0.95867  0.23635  0.54083  1.0000
  Fe  Fe153     1.0  0.66321  0.05436  0.42634  1.0000
  H   H1270     1.0  0.94804  0.25867  0.58692  1.0000
  Fe  Fe154     1.0  0.99032  0.25859  0.60941  1.0000
  Fe  Fe155     1.0  0.69035  0.04745  0.73531  1.0000
  H   H1271     1.0  0.75911  0.10907  0.94845  1.0000
  Fe  Fe156     1.0  0.67673  0.07519  0.69952  1.0000
  Fe  Fe157     1.0  0.69061  0.08204  0.76358  1.0000
  S   S308      1.0  0.70546  0.10313  0.79699  1.0000
  S   S309      1.0  0.70516  0.07889  0.72032  1.0000
  C   C790      1.0  0.73512  0.11979  0.83370  1.0000
  C   C791      1.0  0.88769  0.24210  0.86785  1.0000
  C   C792      1.0  0.72845  0.10672  0.81238  1.0000
  H   H1272     1.0  0.72615  0.12743  0.84039  1.0000
  H   H1273     1.0  0.73677  0.10401  0.92995  1.0000
  S   S310      1.0  0.70858  0.02987  0.73154  1.0000
  H   H1274     1.0  0.73538  0.08695  0.78748  1.0000
  H   H1275     1.0  0.87579  0.24233  0.88384  1.0000
  C   C793      1.0  0.75119  0.10240  0.92912  1.0000
  C   C794      1.0  0.73809  0.07181  0.95967  1.0000
  C   C795      1.0  0.74027  0.09704  0.80383  1.0000
  H   H1276     1.0  0.91164  0.22481  0.91905  1.0000
  H   H1277     1.0  0.72333  0.07257  0.96257  1.0000
  H   H1278     1.0  0.75980  0.11080  0.90791  1.0000
  Fe  Fe158     1.0  0.82134  0.17022  0.92405  1.0000
  S   S311      1.0  0.83168  0.16072  0.88288  1.0000
  S   S312      1.0  0.82643  0.20177  0.91974  1.0000
  Fe  Fe159     1.0  0.80608  0.12979  0.95817  1.0000
  S   S313      1.0  0.81672  0.11813  0.92007  1.0000
  N   N82       1.0  0.74867  0.08216  0.93047  1.0000
  Fe  Fe160     1.0  0.84398  0.14509  0.91603  1.0000
  S   S314      1.0  0.87416  0.14706  0.89884  1.0000
  Fe  Fe161     1.0  0.80352  0.13467  0.88974  1.0000
  S   S315      1.0  0.78860  0.11773  0.85170  1.0000
  S   S316      1.0  0.83477  0.15553  0.95728  1.0000
  S   S317      1.0  0.79182  0.14555  0.92791  1.0000
  H   H1279     1.0  0.77720  0.08727  0.94650  1.0000
  C   C796      1.0  0.88070  0.20926  0.88644  1.0000
  H   H1280     1.0  0.85084  0.19740  0.96776  1.0000
  Fe  Fe162     1.0  0.97808  0.22978  0.91263  1.0000
  S   S318      1.0  0.94727  0.21620  0.93620  1.0000
  H   H1281     1.0  0.82843  0.14542  0.82001  1.0000
  H   H1282     1.0  0.98167  0.22026  0.81649  1.0000
  H   H1283     1.0  0.86239  0.15617  0.83668  1.0000
  C   C797      1.0  0.97798  0.22034  0.76876  1.0000
  N   N83       1.0  0.84798  0.13055  0.81620  1.0000
  C   C798      1.0  0.89484  0.16555  0.91011  1.0000
  C   C799      1.0  0.89338  0.17408  0.93597  1.0000
  C   C800      1.0  0.90976  0.18925  0.94398  1.0000
  C   C801      1.0  0.92773  0.19612  0.92616  1.0000
  C   C802      1.0  0.92930  0.18752  0.90039  1.0000
  C   C803      1.0  0.91291  0.17220  0.89250  1.0000
  H   H1284     1.0  0.87962  0.16901  0.94986  1.0000
  H   H1285     1.0  0.90839  0.19575  0.96400  1.0000
  H   H1286     1.0  0.94309  0.19267  0.88654  1.0000
  H   H1287     1.0  0.91420  0.16558  0.87256  1.0000
  C   C804      1.0  0.84396  0.21836  0.93990  1.0000
  C   C805      1.0  0.84845  0.23800  0.93264  1.0000
  H   H1288     1.0  0.76690  0.06582  0.92899  1.0000
  C   C806      1.0  0.87372  0.24568  0.96836  1.0000
  C   C807      1.0  0.86889  0.22603  0.97611  1.0000
  C   C808      1.0  0.85420  0.21245  0.96182  1.0000
  H   H1289     1.0  0.91865  0.21833  0.86769  1.0000
  H   H1290     1.0  0.87730  0.14283  0.83059  1.0000
  C   C809      1.0  0.91180  0.22831  0.85854  1.0000
  H   H1291     1.0  0.83993  0.10643  0.79104  1.0000
  H   H1292     1.0  0.75837  0.13364  0.86205  1.0000
  H   H1293     1.0  0.83820  0.14625  0.78211  1.0000
  H   H1294     1.0  0.87233  0.15652  0.79905  1.0000
  C   C810      1.0  0.73730  0.07368  0.90523  1.0000
  C   C811      1.0  0.76529  0.11380  0.83722  1.0000
  C   C812      1.0  0.83286  0.13707  0.80410  1.0000
  H   H1295     1.0  0.72253  0.07456  0.90627  1.0000
  S   S319      1.0  0.97244  0.21997  0.70861  1.0000
  H   H1296     1.0  0.96245  0.21765  0.77153  1.0000
  C   C813      1.0  0.75856  0.10061  0.81613  1.0000
  H   H1297     1.0  0.74502  0.08128  0.88296  1.0000
  C   C814      1.0  0.86579  0.14727  0.82068  1.0000
  H   H1298     1.0  0.84053  0.24269  0.91579  1.0000
  H   H1299     1.0  0.73599  0.05648  0.96163  1.0000
  C   C815      1.0  0.75339  0.12331  0.84609  1.0000
  C   C816      1.0  0.84018  0.11862  0.84546  1.0000
  S   S320      1.0  0.67742  0.05067  0.77962  1.0000
  C   C817      1.0  0.86339  0.25164  0.94662  1.0000
  H   H1300     1.0  0.83657  0.12693  0.86212  1.0000
  H   H1301     1.0  0.76758  0.09312  0.80907  1.0000
  H   H1302     1.0  0.81917  0.12479  0.80058  1.0000
  H   H1303     1.0  0.85897  0.12775  0.77232  1.0000
  C   C818      1.0  0.76820  0.08089  0.92787  1.0000
  H   H1304     1.0  0.90572  0.22360  0.83691  1.0000
  H   H1305     1.0  0.87316  0.20450  0.86580  1.0000
  H   H1306     1.0  0.86446  0.11409  0.80323  1.0000
  H   H1307     1.0  0.73509  0.05840  0.90546  1.0000
  H   H1308     1.0  0.82641  0.10609  0.84330  1.0000
  H   H1309     1.0  0.85112  0.11338  0.85542  1.0000
  C   C819      1.0  0.85307  0.11920  0.79472  1.0000
  N   N84       1.0  0.89632  0.22859  0.88038  1.0000
  H   H1310     1.0  0.86917  0.20866  0.90380  1.0000
  C   C820      1.0  0.98695  0.22201  0.73973  1.0000
  H   H1311     1.0  0.74646  0.07800  0.97903  1.0000
  H   H1312     1.0  0.81385  0.09210  0.99731  1.0000
  H   H1313     1.0  0.77662  0.08859  0.90611  1.0000
  H   H1314     1.0  0.88673  0.19858  0.89487  1.0000
  S   S321      1.0  0.98502  0.24458  0.86517  1.0000
  C   C821      1.0  0.98888  0.22192  0.79426  1.0000
  H   H1315     1.0  0.91690  0.24923  0.90507  1.0000
  H   H1316     1.0  0.92381  0.24269  0.85338  1.0000
  C   C822      1.0  0.90509  0.23468  0.90877  1.0000
  H   H1317     1.0  0.88102  0.23806  0.84630  1.0000
  S   S322      1.0  0.66325  0.04344  0.71120  1.0000
  H   H1318     1.0  0.89387  0.23501  0.92573  1.0000
  S   S323      1.0  0.66312  0.08142  0.74137  1.0000
  H   H1319     1.0  0.96661  0.24201  0.98432  1.0000
  H   H1320     1.0  0.93069  0.22668  0.98630  1.0000
  H   H1321     1.0  0.87675  0.22126  0.99295  1.0000
  N   N85       1.0  0.94677  0.25557  0.99494  1.0000
  H   H1322     1.0  0.94844  0.25420  0.94706  1.0000
  H   H1323     1.0  0.89893  0.25692  0.86347  1.0000
  S   S324      1.0  0.78474  0.10991  0.99675  1.0000
  H   H1324     1.0  0.91563  0.23880  0.99857  1.0000
  C   C823      1.0  0.96527  0.25258  0.99896  1.0000
  H   H1325     1.0  0.98764  0.25871  0.79485  1.0000
  Fe  Fe163     1.0  0.97465  0.48043  0.23209  1.0000
  S   S325      1.0  0.95611  0.45315  0.21355  1.0000
  C   C824      1.0  0.98753  0.32025  0.28451  1.0000
  Fe  Fe164     1.0  0.92919  0.34548  0.27048  1.0000
  S   S326      1.0  0.93643  0.34205  0.22271  1.0000
  S   S327      1.0  0.93734  0.37325  0.29069  1.0000
  Fe  Fe165     1.0  0.91210  0.30193  0.29139  1.0000
  S   S328      1.0  0.91780  0.29510  0.24477  1.0000
  H   H1326     1.0  0.99509  0.37401  0.23626  1.0000
  Fe  Fe166     1.0  0.94676  0.31978  0.24354  1.0000
  S   S329      1.0  0.97532  0.31840  0.22713  1.0000
  Fe  Fe167     1.0  0.90687  0.31785  0.22781  1.0000
  S   S330      1.0  0.88496  0.31470  0.19240  1.0000
  S   S331      1.0  0.94206  0.32530  0.29075  1.0000
  S   S332      1.0  0.89865  0.32277  0.27482  1.0000
  S   S333      1.0  0.90404  0.34274  0.05176  1.0000
  C   C825      1.0  0.91322  0.38577  0.00627  1.0000
  H   H1327     1.0  0.94871  0.27777  0.26182  1.0000
  H   H1328     1.0  0.93997  0.28196  0.29748  1.0000
  C   C826      1.0  0.89102  0.32072  0.15290  1.0000
  C   C827      1.0  0.91010  0.32567  0.13936  1.0000
  C   C828      1.0  0.91409  0.33128  0.10782  1.0000
  C   C829      1.0  0.89908  0.33218  0.08990  1.0000
  C   C830      1.0  0.88015  0.32731  0.10367  1.0000
  C   C831      1.0  0.87609  0.32136  0.13479  1.0000
  H   H1329     1.0  0.92177  0.32529  0.15313  1.0000
  H   H1330     1.0  0.92889  0.33546  0.09754  1.0000
  H   H1331     1.0  0.86853  0.32824  0.09023  1.0000
  H   H1332     1.0  0.86132  0.31754  0.14495  1.0000
  H   H1333     1.0  0.88436  0.39263  0.21232  1.0000
  H   H1334     1.0  0.92380  0.37851  0.00857  1.0000
  H   H1335     1.0  0.90905  0.35576  0.17647  1.0000
  H   H1336     1.0  0.90762  0.36881  0.23745  1.0000
  H   H1337     1.0  0.97243  0.31178  0.29240  1.0000
  C   C832      1.0  0.87492  0.36142  0.18353  1.0000
  C   C833      1.0  0.95316  0.43143  0.23498  1.0000
  C   C834      1.0  0.95244  0.42982  0.26652  1.0000
  C   C835      1.0  0.94791  0.41192  0.28332  1.0000
  C   C836      1.0  0.94435  0.39559  0.26871  1.0000
  C   C837      1.0  0.94619  0.39735  0.23716  1.0000
  C   C838      1.0  0.95030  0.41519  0.22032  1.0000
  H   H1338     1.0  0.95460  0.44224  0.27802  1.0000
  H   H1339     1.0  0.94671  0.41069  0.30775  1.0000
  H   H1340     1.0  0.94428  0.38495  0.22585  1.0000
  H   H1341     1.0  0.95119  0.41646  0.19589  1.0000
  C   C839      1.0  0.89659  0.39156  0.19816  1.0000
  H   H1342     1.0  0.87460  0.36800  0.16028  1.0000
  H   H1343     1.0  0.91049  0.39939  0.20850  1.0000
  H   H1344     1.0  0.89736  0.39928  0.17538  1.0000
  H   H1345     1.0  0.86222  0.36156  0.19771  1.0000
  N   N86       1.0  0.89380  0.37144  0.19641  1.0000
  H   H1346     1.0  0.91013  0.37667  0.15314  1.0000
  H   H1347     1.0  0.89103  0.34670  0.22649  1.0000
  H   H1348     1.0  0.92469  0.37886  0.18499  1.0000
  C   C840      1.0  0.91013  0.37069  0.17690  1.0000
  H   H1349     1.0  0.93087  0.27085  0.01387  1.0000
  C   C841      1.0  0.89351  0.36199  0.22706  1.0000
  H   H1350     1.0  0.87241  0.34618  0.18202  1.0000
  H   H1351     1.0  0.90122  0.37855  0.02459  1.0000
  H   H1352     1.0  0.88154  0.36246  0.24255  1.0000
  H   H1353     1.0  0.97374  0.37348  0.25798  1.0000
  H   H1354     1.0  0.92100  0.40080  0.01070  1.0000
  S   S334      1.0  0.92449  0.30497  0.01955  1.0000
  H   H1355     1.0  0.99075  0.37464  0.31914  1.0000
  H   H1356     1.0  0.94529  0.26344  0.03977  1.0000
  S   S335      1.0  0.97917  0.48537  0.28067  1.0000
  Fe  Fe168     1.0  0.91432  0.32916  0.01510  1.0000
  H   H1357     1.0  0.97773  0.38906  0.30519  1.0000
  H   H1358     1.0  0.96077  0.27518  0.29525  1.0000
  C   C842      1.0  0.94500  0.26885  0.01581  1.0000
  C   C843      1.0  0.94614  0.27266  0.28647  1.0000
  C   C844      1.0  0.99301  0.32512  0.25354  1.0000
  C   C845      1.0  0.99256  0.38835  0.30563  1.0000
  H   H1359     1.0  0.95716  0.28317  0.01089  1.0000
  C   C846      1.0  0.98882  0.37352  0.25958  1.0000
  H   H1360     1.0  0.98833  0.40869  0.25521  1.0000
  H   H1361     1.0  0.98724  0.35961  0.27217  1.0000
  S   S336      1.0  0.97349  0.50914  0.21844  1.0000
  H   H1362     1.0  0.95305  0.28057  0.50766  1.0000
  S   S337      1.0  0.98742  0.28591  0.59193  1.0000
  H   H1363     1.0  0.93943  0.50528  0.64865  1.0000
  C   C847      1.0  0.94778  0.27600  0.53194  1.0000
  C   C848      1.0  0.86646  0.48291  0.41079  1.0000
  S   S338      1.0  0.90578  0.28254  0.33605  1.0000
  H   H1364     1.0  0.90230  0.50563  0.38356  1.0000
  H   H1365     1.0  0.95952  0.28493  0.54543  1.0000
  H   H1366     1.0  0.85644  0.47381  0.43042  1.0000
  H   H1367     1.0  0.85708  0.48530  0.39308  1.0000
  H   H1368     1.0  0.87463  0.47468  0.40158  1.0000
  H   H1369     1.0  0.85879  0.50347  0.45195  1.0000
  H   H1370     1.0  0.93456  0.27942  0.53619  1.0000
  N   N87       1.0  0.88012  0.50119  0.41962  1.0000
  H   H1371     1.0  0.88302  0.48824  0.46330  1.0000
  H   H1372     1.0  0.90181  0.49034  0.43442  1.0000
  C   C849      1.0  0.89227  0.49742  0.44311  1.0000
  H   H1373     1.0  0.97352  0.26028  0.54692  1.0000
  C   C850      1.0  0.88766  0.25943  0.34797  1.0000
  H   H1374     1.0  0.99000  0.27919  0.81363  1.0000
  S   S339      1.0  0.89465  0.31753  0.97814  1.0000
  Fe  Fe169     1.0  0.94851  0.32274  0.98426  1.0000
  S   S340      1.0  0.93168  0.31110  0.94499  1.0000
  H   H1375     1.0  0.91663  0.39304  0.92947  1.0000
  Fe  Fe170     1.0  0.92152  0.33545  0.94661  1.0000
  S   S341      1.0  0.91973  0.35512  0.90590  1.0000
  Fe  Fe171     1.0  0.90685  0.29446  0.98005  1.0000
  H   H1376     1.0  0.95945  0.27783  0.95786  1.0000
  C   C851      1.0  0.95655  0.50578  0.75523  1.0000
  H   H1377     1.0  0.93315  0.26618  0.95967  1.0000
  C   C852      1.0  0.89116  0.39399  0.97421  1.0000
  H   H1378     1.0  0.93017  0.50190  0.73272  1.0000
  C   C853      1.0  0.92187  0.39423  0.95260  1.0000
  S   S342      1.0  0.98574  0.45001  0.77152  1.0000
  H   H1379     1.0  0.88918  0.36283  0.94900  1.0000
  H   H1380     1.0  0.98251  0.32110  0.87907  1.0000
  H   H1381     1.0  0.98167  0.27751  0.77616  1.0000
  H   H1382     1.0  0.88511  0.39339  0.95163  1.0000
  C   C854      1.0  0.89554  0.36441  0.97134  1.0000
  S   S343      1.0  0.95921  0.48553  0.74292  1.0000
  H   H1383     1.0  0.97837  0.26614  0.99307  1.0000
  H   H1384     1.0  0.97717  0.40795  0.80205  1.0000
  C   C855      1.0  0.98267  0.39627  0.80661  1.0000
  C   C856      1.0  0.96940  0.41325  0.87299  1.0000
  C   C857      1.0  0.97186  0.40130  0.89716  1.0000
  C   C858      1.0  0.95704  0.38325  0.90684  1.0000
  C   C859      1.0  0.93942  0.37705  0.89273  1.0000
  C   C860      1.0  0.93702  0.38894  0.86835  1.0000
  C   C861      1.0  0.95196  0.40694  0.85842  1.0000
  H   H1385     1.0  0.89810  0.40927  0.97789  1.0000
  H   H1386     1.0  0.95921  0.37422  0.92543  1.0000
  H   H1387     1.0  0.92343  0.38429  0.85728  1.0000
  H   H1388     1.0  0.94983  0.41601  0.83983  1.0000
  Fe  Fe172     1.0  0.99267  0.45610  0.81899  1.0000
  H   H1389     1.0  0.92955  0.40964  0.95494  1.0000
  S   S344      1.0  0.98688  0.48305  0.81452  1.0000
  C   C862      1.0  0.98790  0.31792  0.90030  1.0000
  S   S345      1.0  0.89392  0.26194  0.98461  1.0000
  H   H1390     1.0  0.93300  0.38760  0.95389  1.0000
  H   H1391     1.0  0.97238  0.33123  0.92597  1.0000
  H   H1392     1.0  0.97238  0.38348  0.79734  1.0000
  H   H1393     1.0  0.90616  0.35728  0.97164  1.0000
  H   H1394     1.0  0.98165  0.39278  0.83160  1.0000
  C   C863      1.0  0.94694  0.26378  0.96345  1.0000
  S   S346      1.0  0.94028  0.34820  0.98345  1.0000
  H   H1395     1.0  0.86696  0.26671  0.94048  1.0000
  S   S347      1.0  0.97896  0.32319  0.98849  1.0000
  H   H1396     1.0  0.99406  0.39335  0.74986  1.0000
  N   N88       1.0  0.90544  0.38464  0.97611  1.0000
  Fe  Fe173     1.0  0.98310  0.47875  0.76571  1.0000
  H   H1397     1.0  0.98533  0.40597  0.90849  1.0000
  C   C864      1.0  0.98191  0.32337  0.92691  1.0000
  C   C865      1.0  0.99207  0.27447  0.79130  1.0000
  S   S348      1.0  0.98854  0.43590  0.86220  1.0000
  C   C866      1.0  0.98825  0.31865  0.95462  1.0000
  H   H1398     1.0  0.99377  0.49226  0.90322  1.0000
  H   H1399     1.0  0.88357  0.35635  0.98935  1.0000
  H   H1400     1.0  0.87849  0.38688  0.99150  1.0000
  H   H1401     1.0  0.99499  0.47422  0.88095  1.0000
  Fe  Fe174     1.0  0.69424  0.58416  0.23812  1.0000
  S   S349      1.0  0.70240  0.60340  0.19421  1.0000
  S   S350      1.0  0.71544  0.58210  0.27325  1.0000
  Fe  Fe175     1.0  0.68435  0.57760  0.17264  1.0000
  S   S351      1.0  0.69871  0.57644  0.12753  1.0000
  H   H1402     1.0  0.68072  0.70885  0.23054  1.0000
  H   H1403     1.0  0.68512  0.64716  0.06830  1.0000
  S   S352      1.0  0.67831  0.55773  0.21585  1.0000
  C   C867      1.0  0.92703  0.65756  0.00168  1.0000
  H   H1404     1.0  0.69739  0.63185  0.11044  1.0000
  C   C868      1.0  0.73942  0.61981  0.27892  1.0000
  C   C869      1.0  0.68322  0.56891  0.09816  1.0000
  C   C870      1.0  0.69071  0.57561  0.06802  1.0000
  C   C871      1.0  0.67865  0.56969  0.04421  1.0000
  H   H1405     1.0  0.70581  0.58558  0.06311  1.0000
  H   H1406     1.0  0.68435  0.57523  0.02112  1.0000
  S   S353      1.0  0.66660  0.58917  0.24824  1.0000
  C   C872      1.0  0.73432  0.60046  0.28890  1.0000
  H   H1407     1.0  0.66309  0.59473  0.06792  1.0000
  H   H1408     1.0  0.73497  0.56011  0.19308  1.0000
  H   H1409     1.0  0.68325  0.60771  0.12595  1.0000
  C   C873      1.0  0.76095  0.58206  0.22864  1.0000
  H   H1410     1.0  0.68740  0.53243  0.03622  1.0000
  C   C874      1.0  0.66364  0.55623  0.10436  1.0000
  H   H1411     1.0  0.68304  0.62784  0.04677  1.0000
  Fe  Fe176     1.0  0.98073  0.51517  0.26606  1.0000
  H   H1412     1.0  0.91161  0.71974  0.29674  1.0000
  H   H1413     1.0  0.67369  0.62759  0.25418  1.0000
  C   C875      1.0  0.94742  0.54316  0.33188  1.0000
  H   H1414     1.0  0.93495  0.75329  0.28001  1.0000
  H   H1415     1.0  0.76300  0.59542  0.15319  1.0000
  C   C876      1.0  0.76799  0.59072  0.17468  1.0000
  C   C877      1.0  0.99386  0.57235  0.13011  1.0000
  H   H1416     1.0  0.94354  0.70956  0.26647  1.0000
  H   H1417     1.0  0.75924  0.64871  0.28263  1.0000
  C   C878      1.0  0.74507  0.59534  0.31117  1.0000
  S   S354      1.0  0.87614  0.67168  0.01870  1.0000
  H   H1418     1.0  0.72839  0.57878  0.17509  1.0000
  H   H1419     1.0  0.76965  0.57703  0.17191  1.0000
  C   C879      1.0  0.94542  0.72479  0.26560  1.0000
  H   H1420     1.0  0.73126  0.62401  0.26193  1.0000
  H   H1421     1.0  0.97729  0.59710  0.14280  1.0000
  C   C880      1.0  0.91160  0.70310  0.00573  1.0000
  C   C881      1.0  0.72052  0.56108  0.01323  1.0000
  H   H1422     1.0  0.76235  0.56813  0.22729  1.0000
  C   C882      1.0  0.95827  0.72706  0.31472  1.0000
  C   C883      1.0  0.94589  0.75038  0.29409  1.0000
  H   H1423     1.0  0.78285  0.60154  0.17755  1.0000
  H   H1424     1.0  0.92950  0.64649  0.01721  1.0000
  H   H1425     1.0  0.72348  0.57203  0.21514  1.0000
  C   C884      1.0  0.73437  0.57425  0.19571  1.0000
  N   N89       1.0  0.75392  0.58851  0.20066  1.0000
  H   H1426     1.0  0.68177  0.54419  0.00325  1.0000
  H   H1427     1.0  0.94419  0.75470  0.31690  1.0000
  H   H1428     1.0  0.68162  0.52078  0.00255  1.0000
  S   S355      1.0  0.96527  0.53292  0.28555  1.0000
  C   C885      1.0  0.89940  0.68818  0.02699  1.0000
  S   S356      1.0  0.96821  0.71626  0.14078  1.0000
  S   S357      1.0  0.95919  0.73064  0.05143  1.0000
  C   C886      1.0  0.93633  0.71371  0.04255  1.0000
  C   C887      1.0  0.90589  0.68595  0.05588  1.0000
  C   C888      1.0  0.92429  0.69855  0.06359  1.0000
  H   H1429     1.0  0.89655  0.67446  0.07251  1.0000
  H   H1430     1.0  0.92899  0.69677  0.08598  1.0000
  C   C889      1.0  0.98738  0.60118  0.12185  1.0000
  C   C890      1.0  0.92990  0.71584  0.01357  1.0000
  Fe  Fe177     1.0  0.99038  0.74356  0.15406  1.0000
  H   H1431     1.0  0.68118  0.70363  0.19213  1.0000
  H   H1432     1.0  0.67108  0.73593  0.21371  1.0000
  H   H1433     1.0  0.74753  0.61259  0.18266  1.0000
  H   H1434     1.0  0.97342  0.73510  0.30385  1.0000
  N   N90       1.0  0.94323  0.73008  0.29618  1.0000
  C   C891      1.0  0.75527  0.63380  0.29077  1.0000
  S   S358      1.0  0.98540  0.75809  0.19403  1.0000
  C   C892      1.0  0.99059  0.60901  0.33058  1.0000
  C   C893      1.0  0.92334  0.71812  0.31042  1.0000
  H   H1435     1.0  0.77552  0.59261  0.23340  1.0000
  Fe  Fe178     1.0  0.97669  0.73017  0.09253  1.0000
  H   H1436     1.0  0.66653  0.68537  0.22146  1.0000
  H   H1437     1.0  0.88758  0.64169  0.00255  1.0000
  H   H1438     1.0  0.69453  0.74827  0.02626  1.0000
  H   H1439     1.0  0.76665  0.61802  0.20846  1.0000
  C   C894      1.0  0.95824  0.53228  0.32409  1.0000
  H   H1440     1.0  0.96024  0.73353  0.25414  1.0000
  H   H1441     1.0  0.98491  0.67711  0.09291  1.0000
  H   H1442     1.0  0.75058  0.58014  0.24865  1.0000
  C   C895      1.0  0.68947  0.53473  0.01108  1.0000
  H   H1443     1.0  0.74141  0.60573  0.22242  1.0000
  Fe  Fe179     1.0  0.67361  0.60630  0.20252  1.0000
  H   H1444     1.0  0.98823  0.62161  0.31938  1.0000
  H   H1445     1.0  0.69525  0.61256  0.08871  1.0000
  H   H1446     1.0  0.94323  0.55130  0.31419  1.0000
  H   H1447     1.0  0.93440  0.72699  0.25085  1.0000
  C   C896      1.0  0.76607  0.62867  0.31296  1.0000
  C   C897      1.0  0.67152  0.70087  0.21330  1.0000
  C   C898      1.0  0.75236  0.60705  0.20360  1.0000
  H   H1448     1.0  0.71398  0.57170  0.00658  1.0000
  H   H1449     1.0  0.95608  0.71173  0.31843  1.0000
  H   H1450     1.0  0.92089  0.70269  0.31328  1.0000
  Fe  Fe180     1.0  0.99471  0.70871  0.13481  1.0000
  H   H1451     1.0  0.73646  0.56781  0.00533  1.0000
  H   H1452     1.0  0.98497  0.56621  0.11128  1.0000
  C   C899      1.0  0.99547  0.67055  0.09688  1.0000
  H   H1453     1.0  0.67080  0.73053  0.17528  1.0000
  H   H1454     1.0  0.71931  0.55870  0.03838  1.0000
  H   H1455     1.0  0.98708  0.59808  0.31448  1.0000
  N   N91       1.0  0.66932  0.61915  0.09213  1.0000
  H   H1456     1.0  0.71876  0.52618  0.03409  1.0000
  S   S359      1.0  0.67018  0.63401  0.19032  1.0000
  H   H1457     1.0  0.97837  0.59593  0.10268  1.0000
  S   S360      1.0  0.78604  0.64697  0.32670  1.0000
  H   H1458     1.0  0.98405  0.56733  0.15141  1.0000
  C   C900      1.0  0.68709  0.61779  0.10479  1.0000
  C   C901      1.0  0.71991  0.52955  0.00906  1.0000
  H   H1459     1.0  0.89719  0.62325  0.00448  1.0000
  H   H1460     1.0  0.66876  0.64015  0.12079  1.0000
  H   H1461     1.0  0.92103  0.72208  0.33321  1.0000
  H   H1462     1.0  0.74125  0.58042  0.31911  1.0000
  H   H1463     1.0  0.99376  0.61704  0.11760  1.0000
  C   C902      1.0  0.67514  0.63262  0.06402  1.0000
  H   H1464     1.0  0.91945  0.66459  0.01545  1.0000
  C   C903      1.0  0.76078  0.60935  0.32329  1.0000
  N   N92       1.0  0.71055  0.54311  0.00007  1.0000
  H   H1465     1.0  0.73583  0.53551  0.00106  1.0000
  Fe  Fe181     1.0  0.71257  0.69479  0.62519  1.0000
  H   H1466     1.0  0.78240  0.69177  0.38510  1.0000
  S   S361      1.0  0.72244  0.72384  0.64058  1.0000
  C   C904      1.0  0.75531  0.66360  0.42270  1.0000
  H   H1467     1.0  0.76486  0.65593  0.43023  1.0000
  C   C905      1.0  0.67249  0.65872  0.58484  1.0000
  S   S362      1.0  0.68151  0.67447  0.63769  1.0000
  H   H1468     1.0  0.68430  0.65371  0.58802  1.0000
  C   C906      1.0  0.98565  0.67047  0.42224  1.0000
  Fe  Fe182     1.0  0.73719  0.73363  0.59376  1.0000
  H   H1469     1.0  0.74018  0.65517  0.43326  1.0000
  C   C907      1.0  0.68383  0.74055  0.55416  1.0000
  H   H1470     1.0  0.87865  0.52546  0.43873  1.0000
  H   H1471     1.0  0.79389  0.71122  0.61394  1.0000
  H   H1472     1.0  0.73305  0.63876  0.38699  1.0000
  H   H1473     1.0  0.75772  0.63952  0.38342  1.0000
  H   H1474     1.0  0.90332  0.52678  0.39880  1.0000
  S   S363      1.0  0.72528  0.70465  0.57725  1.0000
  N   N93       1.0  0.75574  0.66645  0.38936  1.0000
  H   H1475     1.0  0.78601  0.67008  0.38292  1.0000
  H   H1476     1.0  0.77325  0.67954  0.64214  1.0000
  C   C908      1.0  0.81187  0.68826  0.63423  1.0000
  H   H1477     1.0  0.95393  0.60791  0.34378  1.0000
  H   H1478     1.0  0.74328  0.67940  0.35542  1.0000
  N   N94       1.0  0.66492  0.74188  0.56338  1.0000
  C   C909      1.0  0.94370  0.51939  0.63475  1.0000
  C   C910      1.0  0.66879  0.67008  0.60521  1.0000
  N   N95       1.0  0.94541  0.53464  0.65389  1.0000
  C   C911      1.0  0.74835  0.64771  0.37763  1.0000
  C   C912      1.0  0.88104  0.62627  0.46959  1.0000
  Fe  Fe183     1.0  0.84740  0.65981  0.38671  1.0000
  S   S364      1.0  0.83681  0.65364  0.43604  1.0000
  S   S365      1.0  0.87966  0.66825  0.37090  1.0000
  Fe  Fe184     1.0  0.80489  0.64521  0.36579  1.0000
  S   S366      1.0  0.79173  0.63729  0.41374  1.0000
  Fe  Fe185     1.0  0.81397  0.66546  0.42298  1.0000
  S   S367      1.0  0.80347  0.68707  0.44186  1.0000
  Fe  Fe186     1.0  0.81561  0.62614  0.42228  1.0000
  S   S368      1.0  0.80772  0.59810  0.45151  1.0000
  S   S369      1.0  0.82657  0.67404  0.37451  1.0000
  S   S370      1.0  0.82698  0.63158  0.37354  1.0000
  Fe  Fe187     1.0  0.98272  0.74221  0.39797  1.0000
  H   H1479     1.0  0.97200  0.57793  0.39454  1.0000
  S   S371      1.0  0.95150  0.74126  0.40024  1.0000
  C   C913      1.0  0.95100  0.55304  0.63453  1.0000
  H   H1480     1.0  0.78526  0.70966  0.46864  1.0000
  H   H1481     1.0  0.95782  0.73202  0.33731  1.0000
  H   H1482     1.0  0.97419  0.61108  0.40187  1.0000
  Fe  Fe188     1.0  0.92659  0.59322  0.42993  1.0000
  S   S372      1.0  0.90840  0.56520  0.41454  1.0000
  S   S373      1.0  0.93459  0.61935  0.39663  1.0000
  Fe  Fe189     1.0  0.92781  0.57605  0.49362  1.0000
  S   S374      1.0  0.90957  0.54642  0.48383  1.0000
  S   S375      1.0  0.94208  0.58511  0.53661  1.0000
  Fe  Fe190     1.0  0.92831  0.55401  0.43975  1.0000
  S   S376      1.0  0.94094  0.53329  0.42373  1.0000
  Fe  Fe191     1.0  0.89138  0.56034  0.45932  1.0000
  S   S377      1.0  0.85839  0.54668  0.46356  1.0000
  S   S378      1.0  0.94811  0.58262  0.45139  1.0000
  S   S379      1.0  0.90799  0.58927  0.47279  1.0000
  Fe  Fe192     1.0  0.75251  0.70136  0.59377  1.0000
  H   H1483     1.0  0.93235  0.51807  0.61831  1.0000
  N   N96       1.0  0.97826  0.60138  0.35941  1.0000
  S   S380      1.0  0.77016  0.68479  0.57689  1.0000
  C   C914      1.0  0.98334  0.61632  0.38000  1.0000
  H   H1484     1.0  0.69420  0.75408  0.54111  1.0000
  C   C915      1.0  0.95794  0.52198  0.37747  1.0000
  C   C916      1.0  0.96270  0.63753  0.43402  1.0000
  C   C917      1.0  0.95372  0.63906  0.40735  1.0000
  C   C918      1.0  0.96050  0.65630  0.38837  1.0000
  C   C919      1.0  0.95727  0.59553  0.35351  1.0000
  C   C920      1.0  0.98179  0.58469  0.37347  1.0000
  H   H1485     1.0  0.95738  0.62429  0.44897  1.0000
  H   H1486     1.0  0.95360  0.65751  0.36768  1.0000
  C   C921      1.0  0.94196  0.54354  0.36231  1.0000
  C   C922      1.0  0.79362  0.68568  0.47932  1.0000
  C   C923      1.0  0.79391  0.67196  0.50226  1.0000
  C   C924      1.0  0.78649  0.67178  0.53194  1.0000
  C   C925      1.0  0.77844  0.68511  0.53888  1.0000
  C   C926      1.0  0.77780  0.69860  0.51581  1.0000
  C   C927      1.0  0.78546  0.69893  0.48622  1.0000
  H   H1487     1.0  0.80013  0.66167  0.49726  1.0000
  H   H1488     1.0  0.78702  0.66127  0.54962  1.0000
  H   H1489     1.0  0.88180  0.61204  0.46839  1.0000
  H   H1490     1.0  0.69136  0.73763  0.57412  1.0000
  C   C928      1.0  0.89917  0.68812  0.38131  1.0000
  C   C929      1.0  0.89600  0.70326  0.39271  1.0000
  C   C930      1.0  0.91215  0.71931  0.39915  1.0000
  C   C931      1.0  0.93148  0.72010  0.39502  1.0000
  C   C932      1.0  0.93452  0.70453  0.38492  1.0000
  C   C933      1.0  0.91848  0.68882  0.37746  1.0000
  H   H1491     1.0  0.88118  0.70286  0.39579  1.0000
  H   H1492     1.0  0.90966  0.73127  0.40705  1.0000
  H   H1493     1.0  0.94925  0.70479  0.38206  1.0000
  H   H1494     1.0  0.97171  0.51315  0.34125  1.0000
  C   C934      1.0  0.82264  0.58459  0.45330  1.0000
  C   C935      1.0  0.84168  0.59116  0.43878  1.0000
  C   C936      1.0  0.85311  0.57987  0.44211  1.0000
  C   C937      1.0  0.84525  0.56184  0.45932  1.0000
  C   C938      1.0  0.82613  0.55526  0.47312  1.0000
  C   C939      1.0  0.81502  0.56664  0.47043  1.0000
  H   H1495     1.0  0.84746  0.60484  0.42499  1.0000
  H   H1496     1.0  0.86775  0.58488  0.43087  1.0000
  H   H1497     1.0  0.81991  0.54136  0.48628  1.0000
  H   H1498     1.0  0.80032  0.56144  0.48159  1.0000
  C   C940      1.0  0.90852  0.56705  0.63030  1.0000
  C   C941      1.0  0.92647  0.58273  0.62540  1.0000
  C   C942      1.0  0.93640  0.58828  0.59642  1.0000
  C   C943      1.0  0.92831  0.57848  0.57200  1.0000
  C   C944      1.0  0.91008  0.56310  0.57669  1.0000
  C   C945      1.0  0.90028  0.55734  0.60585  1.0000
  H   H1499     1.0  0.93291  0.59043  0.64401  1.0000
  H   H1500     1.0  0.95046  0.60022  0.59293  1.0000
  H   H1501     1.0  0.90374  0.55546  0.55799  1.0000
  H   H1502     1.0  0.88635  0.54524  0.60946  1.0000
  H   H1503     1.0  0.91447  0.52934  0.65546  1.0000
  C   C946      1.0  0.94736  0.53307  0.38523  1.0000
  H   H1504     1.0  0.74844  0.69119  0.38896  1.0000
  C   C947      1.0  0.80183  0.71491  0.63464  1.0000
  H   H1505     1.0  0.93359  0.55191  0.36799  1.0000
  H   H1506     1.0  0.90227  0.51092  0.45098  1.0000
  C   C948      1.0  0.89345  0.63580  0.41727  1.0000
  H   H1507     1.0  0.92762  0.65444  0.44071  1.0000
  H   H1508     1.0  0.92109  0.67717  0.36864  1.0000
  H   H1509     1.0  0.81698  0.72531  0.62716  1.0000
  H   H1510     1.0  0.97900  0.57350  0.35795  1.0000
  H   H1511     1.0  0.76891  0.60516  0.34035  1.0000
  H   H1512     1.0  0.95208  0.56484  0.64816  1.0000
  H   H1513     1.0  0.88293  0.62946  0.49335  1.0000
  C   C949      1.0  0.74318  0.67697  0.38047  1.0000
  S   S381      1.0  0.76565  0.73133  0.60609  1.0000
  H   H1514     1.0  0.91851  0.64704  0.47975  1.0000
  S   S382      1.0  0.99187  0.72399  0.36925  1.0000
  H   H1515     1.0  0.91836  0.62972  0.45502  1.0000
  H   H1516     1.0  0.79434  0.72231  0.64776  1.0000
  H   H1517     1.0  0.95790  0.52230  0.62159  1.0000
  H   H1518     1.0  0.87863  0.63430  0.41014  1.0000
  S   S383      1.0  0.73847  0.68909  0.64080  1.0000
  H   H1519     1.0  0.86588  0.62493  0.46455  1.0000
  H   H1520     1.0  0.77175  0.70899  0.52086  1.0000
  H   H1521     1.0  0.97549  0.54043  0.66325  1.0000
  C   C950      1.0  0.97879  0.65319  0.44131  1.0000
  C   C951      1.0  0.96341  0.52160  0.34700  1.0000
  N   N97       1.0  0.89607  0.64120  0.44825  1.0000
  C   C952      1.0  0.91599  0.64319  0.45640  1.0000
  H   H1522     1.0  0.89415  0.66334  0.47320  1.0000
  H   H1523     1.0  0.96545  0.55706  0.62146  1.0000
  H   H1524     1.0  0.96209  0.51375  0.39508  1.0000
  C   C953      1.0  0.97644  0.67198  0.39583  1.0000
  H   H1525     1.0  0.98076  0.62910  0.37014  1.0000
  H   H1526     1.0  0.72764  0.66898  0.38970  1.0000
  C   C954      1.0  0.77617  0.67759  0.37657  1.0000
  H   H1527     1.0  0.87967  0.65917  0.44106  1.0000
  C   C955      1.0  0.89381  0.65957  0.44970  1.0000
  H   H1528     1.0  0.90453  0.64671  0.40052  1.0000
  Fe  Fe193     1.0  0.74982  0.71914  0.65202  1.0000
  H   H1529     1.0  0.82732  0.69790  0.62664  1.0000
  H   H1530     1.0  0.76093  0.67748  0.43227  1.0000
  C   C956      1.0  0.86874  0.51168  0.43170  1.0000
  H   H1531     1.0  0.90585  0.67146  0.43580  1.0000
  H   H1532     1.0  0.98191  0.68505  0.38067  1.0000
  H   H1533     1.0  0.89507  0.62199  0.41537  1.0000
  H   H1534     1.0  0.77721  0.67983  0.35142  1.0000
  H   H1535     1.0  0.80404  0.68400  0.61350  1.0000
  H   H1536     1.0  0.68170  0.72888  0.53982  1.0000
  H   H1537     1.0  0.74848  0.64935  0.35252  1.0000
  H   H1538     1.0  0.95298  0.58463  0.33745  1.0000
  H   H1539     1.0  0.93995  0.55240  0.61784  1.0000
  H   H1540     1.0  0.98583  0.65195  0.46183  1.0000
  H   H1541     1.0  0.94752  0.58938  0.37471  1.0000
  H   H1542     1.0  0.81217  0.67511  0.64700  1.0000
  N   N98       1.0  0.80204  0.69771  0.65273  1.0000
  C   C957      1.0  0.89305  0.51282  0.39290  1.0000
  H   H1543     1.0  0.67585  0.75501  0.60306  1.0000
  C   C958      1.0  0.66854  0.75743  0.58258  1.0000
  H   H1544     1.0  0.85953  0.51509  0.41464  1.0000
  H   H1545     1.0  0.88443  0.51584  0.37455  1.0000
  C   C959      1.0  0.78161  0.68438  0.66211  1.0000
  S   S384      1.0  0.71613  0.73195  0.90061  1.0000
  C   C960      1.0  0.86457  0.58697  0.71080  1.0000
  H   H1546     1.0  0.84566  0.57959  0.76574  1.0000
  C   C961      1.0  0.92556  0.63975  0.95910  1.0000
  Fe  Fe194     1.0  0.68569  0.57464  0.92147  1.0000
  S   S385      1.0  0.67728  0.58859  0.95862  1.0000
  H   H1547     1.0  0.71118  0.72615  0.75674  1.0000
  S   S386      1.0  0.72536  0.73596  0.81403  1.0000
  H   H1548     1.0  0.78882  0.69878  0.93017  1.0000
  C   C962      1.0  0.73705  0.59346  0.92423  1.0000
  Fe  Fe195     1.0  0.73776  0.73744  0.86003  1.0000
  C   C963      1.0  0.82954  0.56906  0.71355  1.0000
  C   C964      1.0  0.70271  0.66992  0.94354  1.0000
  C   C965      1.0  0.69346  0.67257  0.91764  1.0000
  C   C966      1.0  0.67728  0.65734  0.90937  1.0000
  H   H1549     1.0  0.92695  0.54137  0.68564  1.0000
  C   C967      1.0  0.67971  0.63697  0.95285  1.0000
  C   C968      1.0  0.69576  0.65216  0.96122  1.0000
  H   H1550     1.0  0.69880  0.68629  0.90394  1.0000
  C   C969      1.0  0.81272  0.70329  0.67989  1.0000
  H   H1551     1.0  0.97770  0.54100  0.79931  1.0000
  S   S387      1.0  0.71701  0.58034  0.90433  1.0000
  H   H1552     1.0  0.90413  0.67138  0.96887  1.0000
  H   H1553     1.0  0.72707  0.72218  0.70923  1.0000
  Fe  Fe196     1.0  0.73299  0.71545  0.92204  1.0000
  C   C970      1.0  0.73716  0.73244  0.78122  1.0000
  C   C971      1.0  0.73409  0.59854  0.95276  1.0000
  H   H1554     1.0  0.72796  0.55401  0.95746  1.0000
  C   C972      1.0  0.72652  0.72798  0.75562  1.0000
  H   H1555     1.0  0.80268  0.67427  0.92309  1.0000
  C   C973      1.0  0.67059  0.63947  0.92675  1.0000
  S   S388      1.0  0.72307  0.68847  0.95425  1.0000
  C   C974      1.0  0.73551  0.72575  0.72865  1.0000
  H   H1556     1.0  0.91687  0.63329  0.94016  1.0000
  C   C975      1.0  0.97009  0.51708  0.77362  1.0000
  H   H1557     1.0  0.80546  0.71039  0.69421  1.0000
  H   H1558     1.0  0.90677  0.70509  0.98351  1.0000
  H   H1559     1.0  0.81317  0.69067  0.69415  1.0000
  C   C976      1.0  0.99315  0.64410  0.71613  1.0000
  C   C977      1.0  0.92625  0.53018  0.67091  1.0000
  Fe  Fe197     1.0  0.93548  0.57378  0.75914  1.0000
  S   S389      1.0  0.94520  0.57970  0.70986  1.0000
  Fe  Fe198     1.0  0.91056  0.59790  0.75445  1.0000
  S   S390      1.0  0.91885  0.60620  0.70438  1.0000
  S   S391      1.0  0.88730  0.60775  0.77314  1.0000
  Fe  Fe199     1.0  0.91395  0.57552  0.70291  1.0000
  Fe  Fe200     1.0  0.94926  0.60976  0.71562  1.0000
  S   S392      1.0  0.97645  0.63214  0.69105  1.0000
  S   S393      1.0  0.90353  0.56665  0.75209  1.0000
  S   S394      1.0  0.94181  0.60436  0.76578  1.0000
  Fe  Fe201     1.0  0.84448  0.67369  0.91503  1.0000
  S   S395      1.0  0.83298  0.66979  0.96353  1.0000
  S   S396      1.0  0.83853  0.69245  0.87769  1.0000
  Fe  Fe202     1.0  0.85915  0.64144  0.92337  1.0000
  S   S397      1.0  0.84751  0.63439  0.97224  1.0000
  S   S398      1.0  0.87829  0.62584  0.90828  1.0000
  Fe  Fe203     1.0  0.82054  0.63869  0.95737  1.0000
  S   S399      1.0  0.75287  0.71897  0.88062  1.0000
  Fe  Fe204     1.0  0.86105  0.66598  0.97469  1.0000
  C   C978      1.0  0.95199  0.53791  0.77529  1.0000
  S   S400      1.0  0.83075  0.64265  0.90828  1.0000
  S   S401      1.0  0.87381  0.67294  0.92628  1.0000
  Fe  Fe205     1.0  0.77248  0.74553  0.89875  1.0000
  H   H1560     1.0  0.78660  0.64998  0.92159  1.0000
  C   C979      1.0  0.84780  0.56726  0.75686  1.0000
  S   S402      1.0  0.94934  0.55771  0.78909  1.0000
  H   H1561     1.0  0.78117  0.67139  0.67632  1.0000
  C   C980      1.0  0.77169  0.66491  0.96375  1.0000
  H   H1562     1.0  0.87885  0.58735  0.71842  1.0000
  H   H1563     1.0  0.92661  0.53082  0.74938  1.0000
  H   H1564     1.0  0.76265  0.69228  0.93297  1.0000
  S   S403      1.0  0.76753  0.72717  0.69265  1.0000
  S   S404      1.0  0.75369  0.74058  0.94166  1.0000
  C   C981      1.0  0.85197  0.55271  0.71265  1.0000
  H   H1565     1.0  0.96141  0.54645  0.69143  1.0000
  H   H1566     1.0  0.98645  0.57821  0.81169  1.0000
  C   C982      1.0  0.76958  0.61192  0.95702  1.0000
  C   C983      1.0  0.77258  0.60746  0.92805  1.0000
  C   C984      1.0  0.75634  0.59808  0.91186  1.0000
  H   H1567     1.0  0.70283  0.65017  0.98137  1.0000
  H   H1568     1.0  0.86255  0.59965  0.71847  1.0000
  C   C985      1.0  0.75292  0.65629  0.92043  1.0000
  H   H1569     1.0  0.78739  0.61078  0.91844  1.0000
  H   H1570     1.0  0.75874  0.59422  0.88976  1.0000
  C   C986      1.0  0.76606  0.73275  0.75249  1.0000
  H   H1571     1.0  0.86187  0.56717  0.76510  1.0000
  C   C987      1.0  0.82867  0.70913  0.88693  1.0000
  C   C988      1.0  0.81651  0.71390  0.86700  1.0000
  H   H1572     1.0  0.82957  0.73925  0.93906  1.0000
  C   C989      1.0  0.81355  0.73675  0.89914  1.0000
  C   C990      1.0  0.82577  0.73207  0.91907  1.0000
  C   C991      1.0  0.83303  0.71799  0.91327  1.0000
  H   H1573     1.0  0.81317  0.70711  0.84656  1.0000
  H   H1574     1.0  0.81701  0.55568  0.72270  1.0000
  H   H1575     1.0  0.74032  0.65879  0.93118  1.0000
  H   H1576     1.0  0.84251  0.71445  0.92863  1.0000
  H   H1577     1.0  0.82653  0.58123  0.72137  1.0000
  H   H1578     1.0  0.99217  0.61547  0.77347  1.0000
  C   C992      1.0  0.93879  0.52706  0.75600  1.0000
  H   H1579     1.0  0.94021  0.65007  0.94900  1.0000
  H   H1580     1.0  0.92784  0.62810  0.97343  1.0000
  C   C993      1.0  0.88550  0.61318  0.81064  1.0000
  C   C994      1.0  0.89684  0.60925  0.83279  1.0000
  C   C995      1.0  0.89449  0.61325  0.86258  1.0000
  C   C996      1.0  0.88093  0.62135  0.87042  1.0000
  C   C997      1.0  0.86972  0.62542  0.84819  1.0000
  C   C998      1.0  0.87193  0.62126  0.81849  1.0000
  H   H1581     1.0  0.90728  0.60299  0.82707  1.0000
  H   H1582     1.0  0.90319  0.61001  0.87963  1.0000
  H   H1583     1.0  0.85926  0.63166  0.85393  1.0000
  H   H1584     1.0  0.86312  0.62438  0.80151  1.0000
  H   H1585     1.0  0.71340  0.75084  0.97762  1.0000
  C   C999      1.0  0.77477  0.68896  0.92248  1.0000
  H   H1586     1.0  0.71932  0.59533  0.96227  1.0000
  S   S405      1.0  0.78940  0.62257  0.97895  1.0000
  H   H1587     1.0  0.78591  0.67394  0.97209  1.0000
  H   H1588     1.0  0.75255  0.65895  0.89553  1.0000
  H   H1589     1.0  0.84006  0.53883  0.72153  1.0000
  H   H1590     1.0  0.83571  0.55395  0.76740  1.0000
  H   H1591     1.0  0.86614  0.55225  0.71982  1.0000
  H   H1592     1.0  0.92695  0.67586  0.94766  1.0000
  C   C1000     1.0  0.80870  0.72744  0.87333  1.0000
  C   C1001     1.0  0.75028  0.60749  0.96926  1.0000
  H   H1593     1.0  0.77526  0.69249  0.89760  1.0000
  H   H1594     1.0  0.74444  0.75558  0.67106  1.0000
  H   H1595     1.0  0.78899  0.66801  0.89081  1.0000
  H   H1596     1.0  0.78143  0.73474  0.75135  1.0000
  C   C1002     1.0  0.94084  0.51077  0.74654  1.0000
  H   H1597     1.0  0.86593  0.58869  0.68564  1.0000
  C   C1003     1.0  0.96752  0.53277  0.78424  1.0000
  H   H1598     1.0  0.85301  0.55378  0.68750  1.0000
  H   H1599     1.0  0.76945  0.64978  0.97075  1.0000
  C   C1004     1.0  0.71230  0.54713  0.96679  1.0000
  H   H1600     1.0  0.75029  0.64093  0.92612  1.0000
  H   H1601     1.0  0.67416  0.62343  0.96690  1.0000
  H   H1602     1.0  0.70502  0.55704  0.95942  1.0000
  H   H1603     1.0  0.88651  0.62856  0.97099  1.0000
  H   H1604     1.0  0.99512  0.65825  0.78646  1.0000
  N   N99       1.0  0.77189  0.66878  0.93061  1.0000
  C   C1005     1.0  0.78819  0.66505  0.91587  1.0000
  C   C1006     1.0  0.75696  0.73470  0.77964  1.0000
  H   H1605     1.0  0.70519  0.53395  0.95584  1.0000
  S   S406      1.0  0.80455  0.75438  0.90644  1.0000
  H   H1606     1.0  0.79936  0.73105  0.85779  1.0000
  H   H1607     1.0  0.97105  0.64363  0.74961  1.0000
  N   N100      1.0  0.84844  0.56897  0.72348  1.0000
  N   N101      1.0  0.91528  0.64920  0.97672  1.0000
  H   H1608     1.0  0.76530  0.73816  0.79923  1.0000
  H   H1609     1.0  0.75970  0.66781  0.97556  1.0000
  C   C1007     1.0  0.98660  0.64743  0.74404  1.0000
  Fe  Fe206     1.0  0.73901  0.75772  0.91659  1.0000
  C   C1008     1.0  0.75537  0.72830  0.72692  1.0000
  C   C1009     1.0  0.91261  0.66448  0.95667  1.0000
  H   H1610     1.0  0.98255  0.51375  0.77977  1.0000
  H   H1611     1.0  0.82818  0.71344  0.67374  1.0000
  H   H1612     1.0  0.90444  0.65873  0.93697  1.0000
  H   H1613     1.0  0.93906  0.72759  0.99719  1.0000
  C   C1010     1.0  0.89582  0.63503  0.98926  1.0000
  H   H1614     1.0  0.74789  0.61105  0.99158  1.0000
  H   H1615     1.0  0.67022  0.65935  0.88920  1.0000
  H   H1616     1.0  0.77355  0.69120  0.67548  1.0000
  H   H1617     1.0  0.82962  0.57044  0.68845  1.0000
  H   H1618     1.0  0.92147  0.51635  0.68568  1.0000
  C   C1011     1.0  0.96064  0.53596  0.67526  1.0000
  H   H1619     1.0  0.97980  0.59219  0.76256  1.0000
  H   H1620     1.0  0.95757  0.52195  0.68882  1.0000
  C   C1012     1.0  0.99448  0.60394  0.76238  1.0000
  S   S407      1.0  0.66613  0.58131  0.88891  1.0000
  H   H1621     1.0  0.94167  0.66862  0.99308  1.0000
  H   H1622     1.0  0.71283  0.51587  0.99936  1.0000
  S   S408      1.0  0.66310  0.54522  0.93715  1.0000
  S   S409      1.0  0.89688  0.55880  0.66710  1.0000
  H   H1623     1.0  0.76256  0.97890  0.31284  1.0000
  C   C1013     1.0  0.70183  0.77854  0.02493  1.0000
  H   H1624     1.0  0.67263  0.84719  0.25509  1.0000
  S   S410      1.0  0.72439  0.94223  0.07957  1.0000
  H   H1625     1.0  0.68010  0.98968  0.26173  1.0000
  S   S411      1.0  0.72365  0.96729  0.15270  1.0000
  Fe  Fe207     1.0  0.69032  0.83425  0.11201  1.0000
  S   S412      1.0  0.68806  0.82992  0.06294  1.0000
  S   S413      1.0  0.71205  0.85808  0.13412  1.0000
  H   H1626     1.0  0.69661  0.86374  0.19373  1.0000
  S   S414      1.0  0.68698  0.77569  0.05856  1.0000
  S   S415      1.0  0.68529  0.80364  0.12695  1.0000
  H   H1627     1.0  0.69136  0.94830  0.09990  1.0000
  C   C1014     1.0  0.68028  0.85629  0.19490  1.0000
  C   C1015     1.0  0.67649  0.99233  0.11926  1.0000
  H   H1628     1.0  0.67522  0.95345  0.23295  1.0000
  C   C1016     1.0  0.71492  0.88141  0.11949  1.0000
  C   C1017     1.0  0.72514  0.89689  0.13515  1.0000
  C   C1018     1.0  0.76588  0.98044  0.26406  1.0000
  H   H1629     1.0  0.80223  0.00068  0.14907  1.0000
  S   S416      1.0  0.76900  0.98167  0.20223  1.0000
  H   H1630     1.0  0.70486  0.90595  0.05884  1.0000
  H   H1631     1.0  0.72383  0.97721  0.26237  1.0000
  H   H1632     1.0  0.73118  0.89443  0.15615  1.0000
  H   H1633     1.0  0.67470  0.82437  0.25672  1.0000
  C   C1019     1.0  0.71036  0.90347  0.08033  1.0000
  C   C1020     1.0  0.66379  0.91328  0.10175  1.0000
  C   C1021     1.0  0.70246  0.76217  0.01369  1.0000
  S   S417      1.0  0.76676  0.98496  0.11480  1.0000
  C   C1022     1.0  0.70726  0.88473  0.09229  1.0000
  H   H1634     1.0  0.71904  0.99648  0.20087  1.0000
  H   H1635     1.0  0.69938  0.87291  0.08004  1.0000
  Fe  Fe208     1.0  0.72025  0.99420  0.13444  1.0000
  C   C1023     1.0  0.72788  0.91564  0.12349  1.0000
  C   C1024     1.0  0.68489  0.00006  0.08995  1.0000
  C   C1025     1.0  0.72073  0.91898  0.09580  1.0000
  C   C1026     1.0  0.76198  0.98663  0.29147  1.0000
  C   C1027     1.0  0.67942  0.83868  0.24331  1.0000
  C   C1028     1.0  0.71215  0.79643  0.00851  1.0000
  H   H1636     1.0  0.67308  0.94456  0.03797  1.0000
  C   C1029     1.0  0.71288  0.96937  0.24695  1.0000
  H   H1637     1.0  0.68805  0.93235  0.05253  1.0000
  C   C1030     1.0  0.71101  0.99803  0.22145  1.0000
  H   H1638     1.0  0.67907  0.82429  0.17372  1.0000
  H   H1639     1.0  0.67893  0.91345  0.10329  1.0000
  H   H1640     1.0  0.69570  0.84578  0.24375  1.0000
  H   H1641     1.0  0.72127  0.96802  0.22657  1.0000
  N   N102      1.0  0.66414  0.93064  0.08341  1.0000
  H   H1642     1.0  0.67428  0.97489  0.21349  1.0000
  C   C1031     1.0  0.67334  0.99598  0.06530  1.0000
  S   S418      1.0  0.73035  0.99362  0.08655  1.0000
  C   C1032     1.0  0.67266  0.93163  0.05244  1.0000
  H   H1643     1.0  0.70463  0.95478  0.25878  1.0000
  H   H1644     1.0  0.69106  0.96521  0.19929  1.0000
  H   H1645     1.0  0.68144  0.96832  0.28074  1.0000
  N   N103      1.0  0.67368  0.83704  0.21199  1.0000
  H   H1646     1.0  0.71203  0.80916  0.01719  1.0000
  Fe  Fe209     1.0  0.75423  0.98681  0.16057  1.0000
  N   N104      1.0  0.69959  0.97929  0.23895  1.0000
  H   H1647     1.0  0.69939  0.83237  0.19642  1.0000
  Fe  Fe210     1.0  0.67967  0.79869  0.07873  1.0000
  S   S419      1.0  0.69138  0.99542  0.14968  1.0000
  Fe  Fe211     1.0  0.73571  0.96776  0.10570  1.0000
  H   H1648     1.0  0.73596  0.92752  0.13549  1.0000
  H   H1649     1.0  0.67365  0.86540  0.20526  1.0000
  C   C1033     1.0  0.68301  0.82562  0.19737  1.0000
  H   H1650     1.0  0.70138  0.99090  0.28134  1.0000
  H   H1651     1.0  0.67623  0.85554  0.17110  1.0000
  C   C1034     1.0  0.68433  0.96764  0.22047  1.0000
  C   C1035     1.0  0.67621  0.94773  0.09721  1.0000
  H   H1652     1.0  0.67770  0.96105  0.08293  1.0000
  H   H1653     1.0  0.76950  0.96792  0.26449  1.0000
  C   C1036     1.0  0.76475  0.99015  0.23620  1.0000
  H   H1654     1.0  0.70129  0.00547  0.21364  1.0000
  H   H1655     1.0  0.66969  0.94809  0.11993  1.0000
  H   H1656     1.0  0.67813  0.81086  0.20920  1.0000
  C   C1037     1.0  0.69017  0.98216  0.26691  1.0000
  C   C1038     1.0  0.75734  0.00283  0.29109  1.0000
  H   H1657     1.0  0.66399  0.91890  0.04142  1.0000
  H   H1658     1.0  0.67999  0.00176  0.04262  1.0000
  C   C1039     1.0  0.76030  0.00643  0.23586  1.0000
  H   H1659     1.0  0.98911  0.77698  0.24743  1.0000
  H   H1660     1.0  0.67390  0.80068  0.02133  1.0000
  H   H1661     1.0  0.72202  0.00760  0.23509  1.0000
  H   H1662     1.0  0.66538  0.81819  0.00441  1.0000
  H   H1663     1.0  0.70031  0.00923  0.08624  1.0000
  H   H1664     1.0  0.96083  0.75983  0.28390  1.0000
  H   H1665     1.0  0.66552  0.76947  0.00093  1.0000
  Fe  Fe212     1.0  0.68306  0.82737  0.58440  1.0000
  S   S420      1.0  0.67720  0.82002  0.53714  1.0000
  S   S421      1.0  0.69784  0.81341  0.61692  1.0000
  Fe  Fe213     1.0  0.68318  0.85133  0.52569  1.0000
  S   S422      1.0  0.69504  0.86855  0.47985  1.0000
  S   S423      1.0  0.69174  0.85908  0.57192  1.0000
  C   C1040     1.0  0.66442  0.99171  0.44012  1.0000
  C   C1041     1.0  0.71474  0.89107  0.47274  1.0000
  C   C1042     1.0  0.71653  0.90208  0.44486  1.0000
  H   H1666     1.0  0.75583  0.77194  0.63756  1.0000
  S   S424      1.0  0.68625  0.96967  0.44276  1.0000
  C   C1043     1.0  0.72826  0.89840  0.49408  1.0000
  H   H1667     1.0  0.70629  0.89643  0.42810  1.0000
  H   H1668     1.0  0.66767  0.94085  0.49645  1.0000
  C   C1044     1.0  0.71876  0.77165  0.61079  1.0000
  H   H1669     1.0  0.67437  0.92339  0.45582  1.0000
  H   H1670     1.0  0.78029  0.80445  0.64330  1.0000
  H   H1671     1.0  0.67176  0.93477  0.53489  1.0000
  H   H1672     1.0  0.72715  0.88996  0.51551  1.0000
  S   S425      1.0  0.73184  0.96787  0.39450  1.0000
  C   C1045     1.0  0.70855  0.79856  0.60241  1.0000
  C   C1046     1.0  0.71039  0.78382  0.62182  1.0000
  C   C1047     1.0  0.72568  0.77441  0.58037  1.0000
  H   H1673     1.0  0.70501  0.78161  0.64535  1.0000
  N   N105      1.0  0.67962  0.91916  0.50260  1.0000
  C   C1048     1.0  0.72391  0.78923  0.56103  1.0000
  H   H1674     1.0  0.71409  0.81265  0.55686  1.0000
  H   H1675     1.0  0.73244  0.92880  0.41706  1.0000
  H   H1676     1.0  0.69515  0.98954  0.38299  1.0000
  S   S426      1.0  0.74025  0.98559  0.46023  1.0000
  Fe  Fe214     1.0  0.74986  0.99791  0.37311  1.0000
  C   C1049     1.0  0.71526  0.80120  0.57194  1.0000
  C   C1050     1.0  0.67709  0.98544  0.42421  1.0000
  H   H1677     1.0  0.68767  0.89563  0.51799  1.0000
  H   H1678     1.0  0.68322  0.90828  0.54748  1.0000
  C   C1051     1.0  0.74355  0.91657  0.48730  1.0000
  H   H1679     1.0  0.75417  0.92208  0.50362  1.0000
  H   H1680     1.0  0.70186  0.94507  0.48009  1.0000
  H   H1681     1.0  0.77019  0.76265  0.66104  1.0000
  C   C1052     1.0  0.73129  0.92047  0.43858  1.0000
  H   H1682     1.0  0.74481  0.79656  0.65452  1.0000
  Fe  Fe215     1.0  0.71827  0.98147  0.42591  1.0000
  H   H1683     1.0  0.71010  0.92617  0.48947  1.0000
  S   S427      1.0  0.76377  0.95078  0.45185  1.0000
  C   C1053     1.0  0.70024  0.93299  0.49755  1.0000
  S   S428      1.0  0.77467  0.00284  0.40389  1.0000
  H   H1684     1.0  0.67133  0.90419  0.65772  1.0000
  H   H1685     1.0  0.68173  0.90377  0.46559  1.0000
  H   H1686     1.0  0.67796  0.00652  0.49405  1.0000
  Fe  Fe216     1.0  0.75512  0.97364  0.42776  1.0000
  C   C1054     1.0  0.74495  0.92777  0.45968  1.0000
  H   H1687     1.0  0.72926  0.79148  0.53747  1.0000
  H   H1688     1.0  0.70590  0.93904  0.51861  1.0000
  C   C1055     1.0  0.67831  0.90322  0.52546  1.0000
  C   C1056     1.0  0.75796  0.76786  0.66146  1.0000
  C   C1057     1.0  0.66703  0.92882  0.51337  1.0000
  C   C1058     1.0  0.67292  0.91165  0.47389  1.0000
  H   H1689     1.0  0.67815  0.77147  0.57013  1.0000
  H   H1690     1.0  0.69114  0.89591  0.66002  1.0000
  H   H1691     1.0  0.70715  0.99826  0.49222  1.0000
  C   C1059     1.0  0.68561  0.99459  0.39556  1.0000
  H   H1692     1.0  0.71348  0.00886  0.52673  1.0000
  H   H1693     1.0  0.71977  0.76016  0.62581  1.0000
  S   S429      1.0  0.73616  0.75944  0.56546  1.0000
  H   H1694     1.0  0.66505  0.75969  0.52285  1.0000
  H   H1695     1.0  0.66296  0.89244  0.52975  1.0000
  C   C1060     1.0  0.71311  0.76358  0.98610  1.0000
  C   C1061     1.0  0.67984  0.96485  0.74324  1.0000
  C   C1062     1.0  0.78667  0.81585  0.91615  1.0000
  H   H1696     1.0  0.74836  0.80282  0.69227  1.0000
  C   C1063     1.0  0.70028  0.97434  0.73949  1.0000
  H   H1697     1.0  0.70963  0.96627  0.73947  1.0000
  C   C1064     1.0  0.74602  0.79103  0.67811  1.0000
  H   H1698     1.0  0.80146  0.79332  0.88903  1.0000
  C   C1065     1.0  0.72320  0.78141  0.96948  1.0000
  S   S430      1.0  0.73632  0.78371  0.93437  1.0000
  H   H1699     1.0  0.66717  0.00371  0.73938  1.0000
  H   H1700     1.0  0.67444  0.86961  0.71973  1.0000
  H   H1701     1.0  0.77700  0.81802  0.93404  1.0000
  H   H1702     1.0  0.68472  0.81353  0.98515  1.0000
  C   C1066     1.0  0.67674  0.89433  0.67118  1.0000
  N   N106      1.0  0.76216  0.78396  0.67962  1.0000
  C   C1067     1.0  0.66779  0.97538  0.74324  1.0000
  S   S431      1.0  0.75938  0.76451  0.87444  1.0000
  H   H1703     1.0  0.77506  0.77107  0.71323  1.0000
  C   C1068     1.0  0.70878  0.99427  0.73594  1.0000
  C   C1069     1.0  0.78623  0.78762  0.94602  1.0000
  H   H1704     1.0  0.69967  0.88559  0.71054  1.0000
  N   N107      1.0  0.67842  0.89832  0.70295  1.0000
  H   H1705     1.0  0.73061  0.81170  0.96811  1.0000
  H   H1706     1.0  0.67770  0.78273  0.96563  1.0000
  C   C1070     1.0  0.69692  0.00490  0.73609  1.0000
  H   H1707     1.0  0.82064  0.81630  0.89097  1.0000
  C   C1071     1.0  0.81098  0.80274  0.90462  1.0000
  C   C1072     1.0  0.81218  0.81801  0.94995  1.0000
  C   C1073     1.0  0.67636  0.99549  0.73967  1.0000
  H   H1708     1.0  0.77578  0.77881  0.93102  1.0000
  C   C1074     1.0  0.76370  0.77742  0.71140  1.0000
  N   N108      1.0  0.79905  0.80610  0.92918  1.0000
  H   H1709     1.0  0.72464  0.00151  0.73314  1.0000
  H   H1710     1.0  0.74953  0.76623  0.72165  1.0000
  C   C1075     1.0  0.72272  0.79784  0.98079  1.0000
  H   H1711     1.0  0.76761  0.78930  0.72569  1.0000
  S   S432      1.0  0.67000  0.93981  0.74760  1.0000
  H   H1712     1.0  0.80358  0.82080  0.96868  1.0000
  H   H1713     1.0  0.82052  0.79542  0.91370  1.0000
  H   H1714     1.0  0.79483  0.77926  0.95503  1.0000
  H   H1715     1.0  0.73154  0.77947  0.68618  1.0000
  C   C1076     1.0  0.68506  0.88456  0.72011  1.0000
  H   H1716     1.0  0.79574  0.83000  0.90355  1.0000
  H   H1717     1.0  0.68642  0.88717  0.74423  1.0000
  H   H1718     1.0  0.77666  0.80717  0.90025  1.0000
  C   C1077     1.0  0.69284  0.91795  0.70412  1.0000
  H   H1719     1.0  0.77717  0.78943  0.96515  1.0000
  C   C1078     1.0  0.67060  0.80672  0.99951  1.0000
  H   H1720     1.0  0.82221  0.83204  0.93795  1.0000
  H   H1721     1.0  0.70752  0.92018  0.69325  1.0000
  H   H1722     1.0  0.69487  0.92122  0.72787  1.0000
  C   C1079     1.0  0.66325  0.77672  0.97932  1.0000
  H   H1723     1.0  0.66625  0.87951  0.66958  1.0000
  H   H1724     1.0  0.68782  0.92875  0.69255  1.0000
  H   H1725     1.0  0.82149  0.81084  0.96036  1.0000
  H   H1726     1.0  0.78445  0.81198  0.68031  1.0000
  H   H1727     1.0  0.66557  0.80670  0.94025  1.0000
  H   H1728     1.0  0.79340  0.79460  0.66856  1.0000
  C   C1080     1.0  0.78092  0.79946  0.66743  1.0000
