data_image0
_chemical_formula_structural       FeHSFeS2FeSHS3H3CH2CH2C6H6SCHNSC2FeHNH5CHC3H3CHCH3C3H2C2SHCHCH4FeH4FeS2FeS2HFeHSC2HFeHC2H2CHSCH2CSHC2HCSCH4SHNC2HFe2NH2C2H3CH3SHSHC2H2C2H7CNCNH3CH3C2H2CH4C2HCHC2HSCH2C2H2CH4CSHSCH2CHC2HSNH4CFe2CH2CHCH3SH2SHC2H3CNH3CHFeCSFeCSHCH2SCHC3H6CHSH2C5H2C2H2SH5FeS2H2CFeS2FeHSFeHFeS3C2HCNHCHC2H2C6H5SHFe2H2C2H2SNC2H4C3H3SHCH2SHCSNC2HFeCH5SFeHSHFeS2CHSH4CHFeHCH3CH3C7H4CHCNC2H3SC2H2CSHC2H3C2H3CSC2FeNH2SNHCH2S2CH3NFeSCSFe2CHCHCHSH3CSC3FeH2CHNH2CH2CH2CH3CH3FeH2C4H5CHSH2SHS2H2CSH2C2HFeH2C2H3C2HNHCHC2HFeHCHCH4C2HSCSHSCH4C2H5NCSCH2C2H2SH2CHCHCHFeH2CHC2HNHSFeSFeSFe2SHSH3SC5FeHSCSCSC2H2CHFeC2HCH8CH2CH4CH2CH2CHCH4CHS2H2FeS2FeHSHCFeHS2NH3SHCHC2FeSHC8H5C4SCH3C3H2C3H2C2H2SHCNH2CFe2SFeHSHC2HS2CSH2FeSHCH3CSC6H5NH4CH2CSHSNFeNCHCH2SC2H2CHCHC2HFeH2C2H4SHCHC2H3CHCH2CHSHNH3CHC2FeSCFeS2FeCSHFeHCH4C6H3SNH7CSCHFeSH2CH2SH3C3NH4CHCHC3NH4FeCHCH3C2H2C3SHCH4CHSH2SNH8SC2H2C2HCHS2HC2HCSCNSH2C2H2FeCFeHSH3FeCH3C3FeH3C2HNCH2SCHCHCSHCH2SH2FeH2FeH2NSHFeSHSC2HCFeCH2SH2FeHSCHCH3SH3SCFeHCH2SHFeSNFeSFeSHSH6CH4C8H4C3NS2CH2SCHC3H3C2HC2H7SH2CH2CH3FeSFeCSFeHSCHCHS2HSHSHCHNH2NHSC6H4CH2C2H4C2H2SCHCSH3CFeH4CH8CHCHC2HCH3NH2NH6FeSCHC2FeH3C3SC2HFeSNCFeHSH2SCHCH2CHC7SH3SHCH3SC2HCHCH3SNCHFeHC2FeH3CSC2H4NSCFe2H2C2H3SH2CFeSC4H4CHSCNH2CH2CHCSCH3SHCH2SHC2HCH4CHC3SNSCH2CH3SH3CH2CH2CHC2HSHSCH3CSHSCH3CHCFeNSH2CFeHSC2HCFeHFeH2FeCSC3HSC6HS2H3SH5NCH3CH4FeH4CHCH6SHFeSC2SHFeHSH7S2HCHC3FeSHFeHC6H4CNH3NH2C2H4NSCHCHSFeCHC2HSHCHSCH4FeC4FeHS2CH
_chemical_formula_sum              "Fe96 H768 S192 C480 N48"
_cell_length_a       29.0363
_cell_length_b       51.1616
_cell_length_c       41.5873
_cell_angle_alpha    89.8948
_cell_angle_beta     89.8484
_cell_angle_gamma    90.0588

_space_group_name_H-M_alt    "P 1"
_space_group_IT_number       1

loop_
  _space_group_symop_operation_xyz
  'x, y, z'

loop_
  _atom_site_type_symbol
  _atom_site_label
  _atom_site_symmetry_multiplicity
  _atom_site_fract_x
  _atom_site_fract_y
  _atom_site_fract_z
  _atom_site_occupancy
  Fe  Fe1       1.0  0.19770  0.32326  0.12444  1.0000
  H   H1        1.0  0.13773  0.30939  0.54174  1.0000
  S   S1        1.0  0.12901  0.31520  0.10189  1.0000
  Fe  Fe2       1.0  0.29683  0.30425  0.12782  1.0000
  S   S2        1.0  0.31975  0.33875  0.15673  1.0000
  S   S3        1.0  0.34248  0.27178  0.10997  1.0000
  Fe  Fe3       1.0  0.25392  0.33278  0.18413  1.0000
  S   S4        1.0  0.25002  0.33214  0.23808  1.0000
  H   H2        1.0  0.43960  0.36518  0.06439  1.0000
  S   S5        1.0  0.51031  0.24289  0.19925  1.0000
  S   S6        1.0  0.23434  0.29608  0.15797  1.0000
  S   S7        1.0  0.25842  0.32824  0.09171  1.0000
  H   H3        1.0  0.39324  0.35177  0.48436  1.0000
  H   H4        1.0  0.26309  0.27533  0.22788  1.0000
  H   H5        1.0  0.33092  0.30172  0.21059  1.0000
  C   C1        1.0  0.36092  0.25600  0.26592  1.0000
  H   H6        1.0  0.12530  0.38111  0.08087  1.0000
  H   H7        1.0  0.38733  0.29346  0.22501  1.0000
  C   C2        1.0  0.28096  0.35730  0.25688  1.0000
  H   H8        1.0  0.12712  0.31534  0.17172  1.0000
  H   H9        1.0  0.37635  0.24715  0.20402  1.0000
  C   C3        1.0  0.39170  0.26474  0.13287  1.0000
  C   C4        1.0  0.41357  0.24049  0.12932  1.0000
  C   C5        1.0  0.45120  0.23385  0.14888  1.0000
  C   C6        1.0  0.46709  0.25156  0.17189  1.0000
  C   C7        1.0  0.44636  0.27617  0.17455  1.0000
  C   C8        1.0  0.40868  0.28275  0.15513  1.0000
  H   H10       1.0  0.40073  0.22656  0.11196  1.0000
  H   H11       1.0  0.46721  0.21484  0.14669  1.0000
  H   H12       1.0  0.45924  0.29003  0.19198  1.0000
  H   H13       1.0  0.39276  0.30166  0.15756  1.0000
  H   H14       1.0  0.42694  0.34347  0.53855  1.0000
  H   H15       1.0  0.34499  0.30686  0.25189  1.0000
  S   S8        1.0  0.26953  0.36541  0.43902  1.0000
  C   C9        1.0  0.28450  0.26767  0.24799  1.0000
  H   H16       1.0  0.27096  0.24803  0.25455  1.0000
  N   N1        1.0  0.37833  0.37383  0.52722  1.0000
  S   S9        1.0  0.21168  0.35950  0.15312  1.0000
  C   C10       1.0  0.33939  0.24962  0.21044  1.0000
  C   C11       1.0  0.39646  0.35349  0.54910  1.0000
  Fe  Fe4       1.0  0.27583  0.36224  0.12316  1.0000
  H   H17       1.0  0.39829  0.25504  0.25971  1.0000
  N   N2        1.0  0.33372  0.26663  0.23889  1.0000
  H   H18       1.0  0.26207  0.34481  0.30466  1.0000
  H   H19       1.0  0.32515  0.22974  0.21478  1.0000
  H   H20       1.0  0.35744  0.26841  0.28776  1.0000
  H   H21       1.0  0.34966  0.23585  0.27235  1.0000
  H   H22       1.0  0.32166  0.25787  0.18894  1.0000
  C   C12       1.0  0.28125  0.35889  0.29051  1.0000
  H   H23       1.0  0.27872  0.28094  0.26884  1.0000
  C   C13       1.0  0.35009  0.29329  0.23125  1.0000
  C   C14       1.0  0.06646  0.38013  0.13080  1.0000
  C   C15       1.0  0.21485  0.38110  0.53972  1.0000
  H   H24       1.0  0.21339  0.33924  0.54487  1.0000
  H   H25       1.0  0.11314  0.35585  0.54653  1.0000
  H   H26       1.0  0.37001  0.33828  0.55445  1.0000
  C   C16       1.0  0.08405  0.31172  0.12981  1.0000
  H   H27       1.0  0.30537  0.37459  0.21274  1.0000
  C   C17       1.0  0.30630  0.37868  0.30597  1.0000
  H   H28       1.0  0.24045  0.33080  0.48926  1.0000
  H   H29       1.0  0.38052  0.37260  0.07286  1.0000
  H   H30       1.0  0.36410  0.32623  0.08294  1.0000
  C   C18       1.0  0.54149  0.19378  0.51647  1.0000
  C   C19       1.0  0.23522  0.35066  0.49740  1.0000
  C   C20       1.0  0.22033  0.35542  0.52894  1.0000
  H   H31       1.0  0.33620  0.34697  0.50035  1.0000
  H   H32       1.0  0.42282  0.31788  0.07473  1.0000
  C   C21       1.0  0.30569  0.37558  0.23870  1.0000
  C   C22       1.0  0.36397  0.36169  0.49660  1.0000
  S   S10       1.0  0.53575  0.16593  0.19658  1.0000
  H   H33       1.0  0.53147  0.13678  0.25901  1.0000
  C   C23       1.0  0.09224  0.31354  0.16288  1.0000
  H   H34       1.0  0.09334  0.36467  0.13086  1.0000
  C   C24       1.0  0.24498  0.37158  0.47674  1.0000
  H   H35       1.0  0.52755  0.21104  0.52957  1.0000
  H   H36       1.0  0.31069  0.37229  0.54822  1.0000
  H   H37       1.0  0.55142  0.20034  0.49186  1.0000
  H   H38       1.0  0.30641  0.37978  0.33195  1.0000
  Fe  Fe5       1.0  0.55380  0.20796  0.18644  1.0000
  H   H39       1.0  0.51296  0.17935  0.51394  1.0000
  H   H40       1.0  0.35039  0.37654  0.47948  1.0000
  H   H41       1.0  0.44180  0.20788  0.78984  1.0000
  H   H42       1.0  0.24478  0.24326  0.66887  1.0000
  Fe  Fe6       1.0  0.21367  0.30032  0.63408  1.0000
  S   S11       1.0  0.17512  0.33692  0.64582  1.0000
  S   S12       1.0  0.17433  0.26414  0.62225  1.0000
  Fe  Fe7       1.0  0.30669  0.32557  0.64143  1.0000
  S   S13       1.0  0.27693  0.36490  0.65339  1.0000
  S   S14       1.0  0.38186  0.31677  0.63423  1.0000
  H   H43       1.0  0.32173  0.24220  0.59709  1.0000
  Fe  Fe8       1.0  0.22671  0.35641  0.61384  1.0000
  H   H44       1.0  0.52101  0.35828  0.77739  1.0000
  S   S15       1.0  0.26110  0.31923  0.59871  1.0000
  C   C25       1.0  0.08490  0.25516  0.64001  1.0000
  C   C26       1.0  0.38989  0.26485  0.70765  1.0000
  H   H45       1.0  0.33120  0.26102  0.63281  1.0000
  Fe  Fe9       1.0  0.52552  0.14763  0.66105  1.0000
  H   H46       1.0  0.23040  0.21759  0.61981  1.0000
  C   C27       1.0  0.40094  0.29176  0.66003  1.0000
  C   C28       1.0  0.43713  0.27545  0.65042  1.0000
  H   H47       1.0  0.16657  0.28422  0.68625  1.0000
  H   H48       1.0  0.35199  0.30005  0.69758  1.0000
  C   C29       1.0  0.44911  0.25360  0.66909  1.0000
  H   H49       1.0  0.45518  0.27932  0.62811  1.0000
  S   S16       1.0  0.20437  0.35521  0.73323  1.0000
  C   C30       1.0  0.37827  0.28682  0.68914  1.0000
  H   H50       1.0  0.25561  0.18939  0.63844  1.0000
  H   H51       1.0  0.47658  0.24090  0.66120  1.0000
  C   C31       1.0  0.12798  0.26478  0.64910  1.0000
  S   S17       1.0  0.56473  0.21052  0.70417  1.0000
  H   H52       1.0  0.27454  0.25885  0.61604  1.0000
  C   C32       1.0  0.26356  0.20721  0.62405  1.0000
  C   C33       1.0  0.13322  0.27714  0.67880  1.0000
  H   H53       1.0  0.33220  0.32647  0.01273  1.0000
  C   C34       1.0  0.30656  0.24756  0.62075  1.0000
  S   S18       1.0  0.26156  0.30327  0.67576  1.0000
  C   C35       1.0  0.42474  0.24793  0.69735  1.0000
  H   H54       1.0  0.35579  0.20292  0.62291  1.0000
  H   H55       1.0  0.36651  0.22200  0.65812  1.0000
  H   H56       1.0  0.33483  0.19213  0.66146  1.0000
  H   H57       1.0  0.46448  0.37226  0.77925  1.0000
  S   S19       1.0  0.50230  0.18724  0.64481  1.0000
  H   H58       1.0  0.11715  0.35450  0.58941  1.0000
  N   N3        1.0  0.29708  0.22420  0.64070  1.0000
  C   C36       1.0  0.27777  0.23244  0.67201  1.0000
  C   C37       1.0  0.34036  0.20964  0.64598  1.0000
  H   H59       1.0  0.30197  0.24556  0.68504  1.0000
  Fe  Fe10      1.0  0.49306  0.19581  0.69713  1.0000
  Fe  Fe11      1.0  0.22779  0.34204  0.68440  1.0000
  N   N4        1.0  0.07868  0.32293  0.56828  1.0000
  H   H60       1.0  0.09964  0.29040  0.72173  1.0000
  H   H61       1.0  0.46247  0.14213  0.82623  1.0000
  C   C38       1.0  0.09513  0.28075  0.69891  1.0000
  C   C39       1.0  0.40481  0.36672  0.05341  1.0000
  H   H62       1.0  0.45238  0.18308  0.85721  1.0000
  H   H63       1.0  0.44843  0.17801  0.76810  1.0000
  H   H64       1.0  0.41435  0.17851  0.80414  1.0000
  C   C40       1.0  0.48303  0.19116  0.84447  1.0000
  H   H65       1.0  0.10932  0.33181  0.76145  1.0000
  H   H66       1.0  0.27064  0.21537  0.68788  1.0000
  H   H67       1.0  0.10919  0.34566  0.70578  1.0000
  S   S20       1.0  0.43441  0.21861  0.71836  1.0000
  H   H68       1.0  0.53338  0.18321  0.77138  1.0000
  S   S21       1.0  0.50872  0.15489  0.71307  1.0000
  H   H69       1.0  0.34447  0.36038  0.00493  1.0000
  C   C41       1.0  0.33220  0.37278  0.79328  1.0000
  C   C42       1.0  0.09384  0.35053  0.56880  1.0000
  H   H70       1.0  0.37711  0.30209  0.05319  1.0000
  H   H71       1.0  0.52388  0.14583  0.82811  1.0000
  C   C43       1.0  0.42405  0.33448  0.01325  1.0000
  C   C44       1.0  0.44620  0.18637  0.79277  1.0000
  H   H72       1.0  0.21527  0.37834  0.79606  1.0000
  H   H73       1.0  0.41417  0.31577  0.00148  1.0000
  H   H74       1.0  0.56079  0.18678  0.80952  1.0000
  H   H75       1.0  0.52603  0.21288  0.79342  1.0000
  H   H76       1.0  0.27682  0.20077  0.60022  1.0000
  H   H77       1.0  0.14438  0.30899  0.58454  1.0000
  H   H78       1.0  0.53179  0.36824  0.83529  1.0000
  C   C45       1.0  0.49265  0.15135  0.81416  1.0000
  N   N5        1.0  0.39054  0.34181  0.03846  1.0000
  C   C46       1.0  0.29714  0.35529  0.74487  1.0000
  N   N6        1.0  0.48763  0.18004  0.81184  1.0000
  H   H79       1.0  0.49597  0.14231  0.78993  1.0000
  H   H80       1.0  0.37145  0.26083  0.72976  1.0000
  H   H81       1.0  0.30086  0.34607  0.72166  1.0000
  C   C47       1.0  0.52873  0.19128  0.79595  1.0000
  H   H82       1.0  0.40711  0.36190  0.57264  1.0000
  H   H83       1.0  0.08086  0.24522  0.61724  1.0000
  H   H84       1.0  0.45920  0.33190  0.02340  1.0000
  C   C48       1.0  0.25340  0.36171  0.75659  1.0000
  C   C49       1.0  0.33640  0.36071  0.76323  1.0000
  H   H85       1.0  0.37010  0.35567  0.75399  1.0000
  H   H86       1.0  0.51383  0.18666  0.85941  1.0000
  C   C50       1.0  0.34451  0.34495  0.02388  1.0000
  H   H87       1.0  0.53911  0.15840  0.56488  1.0000
  H   H88       1.0  0.47920  0.21281  0.84357  1.0000
  H   H89       1.0  0.31857  0.35072  0.04220  1.0000
  H   H90       1.0  0.07749  0.31852  0.61980  1.0000
  C   C51       1.0  0.50155  0.37691  0.77517  1.0000
  C   C52       1.0  0.07121  0.34874  0.70703  1.0000
  H   H91       1.0  0.42621  0.34975  0.99414  1.0000
  C   C53       1.0  0.24903  0.37346  0.78685  1.0000
  H   H92       1.0  0.55198  0.19044  0.58013  1.0000
  C   C54       1.0  0.07125  0.33471  0.76250  1.0000
  C   C55       1.0  0.07750  0.38054  0.74953  1.0000
  H   H93       1.0  0.40562  0.38293  0.03550  1.0000
  S   S22       1.0  0.38234  0.37966  0.81530  1.0000
  C   C56       1.0  0.28844  0.37906  0.80516  1.0000
  H   H94       1.0  0.11586  0.37932  0.74900  1.0000
  H   H95       1.0  0.10936  0.28471  0.56561  1.0000
  C   C57       1.0  0.11927  0.30574  0.56481  1.0000
  C   C58       1.0  0.56621  0.17381  0.56608  1.0000
  H   H96       1.0  0.21633  0.38143  0.00475  1.0000
  H   H97       1.0  0.47545  0.38263  0.83701  1.0000
  C   C59       1.0  0.38867  0.32113  0.06333  1.0000
  H   H98       1.0  0.22965  0.37981  0.06363  1.0000
  H   H99       1.0  0.31431  0.46819  0.32255  1.0000
  H   H100      1.0  0.29157  0.48558  0.25406  1.0000
  H   H101      1.0  0.08353  0.62058  0.29821  1.0000
  C   C60       1.0  0.41448  0.39352  0.52066  1.0000
  S   S23       1.0  0.08241  0.59046  0.39169  1.0000
  H   H102      1.0  0.26045  0.43188  0.31029  1.0000
  S   S24       1.0  0.30448  0.39939  0.10244  1.0000
  C   C61       1.0  0.14425  0.51411  0.36742  1.0000
  H   H103      1.0  0.20824  0.43811  0.28887  1.0000
  H   H104      1.0  0.19613  0.49468  0.31275  1.0000
  C   C62       1.0  0.27639  0.46720  0.26371  1.0000
  H   H105      1.0  0.16255  0.55471  0.37200  1.0000
  C   C63       1.0  0.17230  0.53477  0.37734  1.0000
  C   C64       1.0  0.21474  0.49072  0.28986  1.0000
  H   H106      1.0  0.20758  0.57639  0.49309  1.0000
  S   S25       1.0  0.09339  0.52019  0.34610  1.0000
  N   N7        1.0  0.25234  0.47165  0.29461  1.0000
  H   H107      1.0  0.30052  0.50090  0.31055  1.0000
  H   H108      1.0  0.11717  0.41363  0.09593  1.0000
  H   H109      1.0  0.25273  0.45906  0.24524  1.0000
  H   H110      1.0  0.32298  0.40173  0.52631  1.0000
  C   C65       1.0  0.55624  0.41408  0.44225  1.0000
  Fe  Fe12      1.0  0.35130  0.42361  0.36003  1.0000
  Fe  Fe13      1.0  0.30811  0.40007  0.41955  1.0000
  C   C66       1.0  0.28532  0.48199  0.31847  1.0000
  H   H111      1.0  0.30510  0.45297  0.26652  1.0000
  H   H112      1.0  0.47976  0.42843  0.38300  1.0000
  C   C67       1.0  0.07847  0.62028  0.55038  1.0000
  H   H113      1.0  0.09313  0.54624  0.50747  1.0000
  C   C68       1.0  0.23291  0.44667  0.30637  1.0000
  H   H114      1.0  0.26861  0.48527  0.34220  1.0000
  H   H115      1.0  0.21444  0.44925  0.32963  1.0000
  H   H116      1.0  0.18889  0.48346  0.27228  1.0000
  S   S26       1.0  0.38076  0.45768  0.38695  1.0000
  H   H117      1.0  0.22809  0.50979  0.28088  1.0000
  H   H118      1.0  0.35030  0.40928  0.24000  1.0000
  S   S27       1.0  0.36181  0.42216  0.30654  1.0000
  H   H119      1.0  0.11671  0.57072  0.45801  1.0000
  C   C69       1.0  0.23749  0.39722  0.48707  1.0000
  C   C70       1.0  0.51207  0.42344  0.39435  1.0000
  H   H120      1.0  0.17210  0.56502  0.44050  1.0000
  H   H121      1.0  0.23570  0.54564  0.40068  1.0000
  H   H122      1.0  0.19084  0.55890  0.52881  1.0000
  C   C71       1.0  0.21369  0.52962  0.39346  1.0000
  N   N8        1.0  0.15997  0.54483  0.48515  1.0000
  H   H123      1.0  0.20815  0.46327  0.39577  1.0000
  H   H124      1.0  0.12834  0.54014  0.43878  1.0000
  H   H125      1.0  0.21731  0.42185  0.52668  1.0000
  C   C72       1.0  0.10026  0.39762  0.08225  1.0000
  H   H126      1.0  0.07762  0.62366  0.45708  1.0000
  Fe  Fe14      1.0  0.31193  0.45883  0.41158  1.0000
  C   C73       1.0  0.17832  0.56627  0.50521  1.0000
  S   S28       1.0  0.27878  0.49807  0.42033  1.0000
  Fe  Fe15      1.0  0.39974  0.42786  0.42413  1.0000
  C   C74       1.0  0.14363  0.55562  0.45425  1.0000
  S   S29       1.0  0.46581  0.42630  0.45215  1.0000
  H   H127      1.0  0.20872  0.62710  0.08191  1.0000
  C   C75       1.0  0.22704  0.50383  0.39982  1.0000
  H   H128      1.0  0.40156  0.40936  0.50461  1.0000
  H   H129      1.0  0.10578  0.51618  0.48729  1.0000
  S   S30       1.0  0.33368  0.43212  0.45159  1.0000
  C   C76       1.0  0.12116  0.53205  0.50209  1.0000
  H   H130      1.0  0.15145  0.58130  0.51019  1.0000
  C   C77       1.0  0.22211  0.40197  0.51851  1.0000
  C   C78       1.0  0.51437  0.42076  0.42781  1.0000
  C   C79       1.0  0.19664  0.52542  0.47899  1.0000
  H   H131      1.0  0.22657  0.53434  0.46621  1.0000
  H   H132      1.0  0.14996  0.61700  0.08749  1.0000
  H   H133      1.0  0.20982  0.51671  0.50170  1.0000
  H   H134      1.0  0.56246  0.49895  0.43905  1.0000
  H   H135      1.0  0.24362  0.41339  0.47088  1.0000
  H   H136      1.0  0.13230  0.52335  0.52534  1.0000
  C   C80       1.0  0.15757  0.48830  0.37373  1.0000
  H   H137      1.0  0.13580  0.47227  0.36621  1.0000
  S   S31       1.0  0.28076  0.42704  0.38162  1.0000
  H   H138      1.0  0.55008  0.42238  0.34968  1.0000
  H   H139      1.0  0.18403  0.50908  0.46366  1.0000
  C   C81       1.0  0.19874  0.48317  0.39016  1.0000
  C   C82       1.0  0.18135  0.61395  0.07248  1.0000
  C   C83       1.0  0.33136  0.39680  0.28777  1.0000
  C   C84       1.0  0.07822  0.62251  0.48307  1.0000
  C   C85       1.0  0.33826  0.38667  0.54243  1.0000
  H   H140      1.0  0.42686  0.40287  0.54316  1.0000
  H   H141      1.0  0.19293  0.59343  0.07618  1.0000
  C   C86       1.0  0.33098  0.39526  0.25414  1.0000
  C   C87       1.0  0.55187  0.41995  0.37550  1.0000
  H   H142      1.0  0.44480  0.38473  0.50829  1.0000
  H   H143      1.0  0.07928  0.39624  0.14631  1.0000
  S   S32       1.0  0.37611  0.39354  0.39517  1.0000
  H   H144      1.0  0.11026  0.62855  0.24223  1.0000
  H   H145      1.0  0.55801  0.41155  0.46805  1.0000
  H   H146      1.0  0.10275  0.60403  0.04062  1.0000
  H   H147      1.0  0.45387  0.41748  0.79828  1.0000
  H   H148      1.0  0.22649  0.59445  0.02096  1.0000
  Fe  Fe16      1.0  0.11195  0.61631  0.88407  1.0000
  S   S33       1.0  0.20169  0.38751  0.58003  1.0000
  S   S34       1.0  0.23178  0.57264  0.95579  1.0000
  H   H149      1.0  0.52463  0.40104  0.84946  1.0000
  H   H150      1.0  0.09432  0.40467  0.05728  1.0000
  C   C88       1.0  0.49136  0.42103  0.79441  1.0000
  Fe  Fe17      1.0  0.36385  0.46120  0.88246  1.0000
  S   S35       1.0  0.31271  0.42944  0.87282  1.0000
  S   S36       1.0  0.34787  0.50109  0.86288  1.0000
  Fe  Fe18      1.0  0.43171  0.42447  0.91442  1.0000
  H   H151      1.0  0.12176  0.47445  0.87342  1.0000
  S   S37       1.0  0.50212  0.41822  0.93597  1.0000
  Fe  Fe19      1.0  0.37355  0.40520  0.85880  1.0000
  H   H152      1.0  0.07907  0.61908  0.57630  1.0000
  Fe  Fe20      1.0  0.32884  0.41670  0.92318  1.0000
  S   S38       1.0  0.13437  0.62270  0.93505  1.0000
  S   S39       1.0  0.42365  0.43818  0.86364  1.0000
  S   S40       1.0  0.37585  0.45039  0.93410  1.0000
  C   C89       1.0  0.25347  0.39025  0.04823  1.0000
  C   C90       1.0  0.31534  0.41688  0.00806  1.0000
  H   H153      1.0  0.33942  0.42707  0.99269  1.0000
  C   C91       1.0  0.17953  0.50515  0.90620  1.0000
  N   N9        1.0  0.17193  0.61926  0.03819  1.0000
  H   H154      1.0  0.25195  0.47428  0.92131  1.0000
  C   C92       1.0  0.27714  0.40425  0.99479  1.0000
  H   H155      1.0  0.20138  0.46359  0.94252  1.0000
  C   C93       1.0  0.54645  0.42550  0.90856  1.0000
  C   C94       1.0  0.54163  0.44582  0.88626  1.0000
  H   H156      1.0  0.35207  0.42607  0.05162  1.0000
  H   H157      1.0  0.51068  0.45754  0.88609  1.0000
  C   C95       1.0  0.26811  0.55463  0.93051  1.0000
  C   C96       1.0  0.29377  0.53389  0.94314  1.0000
  C   C97       1.0  0.31893  0.51752  0.92256  1.0000
  C   C98       1.0  0.31922  0.52220  0.88941  1.0000
  C   C99       1.0  0.29477  0.54348  0.87695  1.0000
  C   C100      1.0  0.26897  0.55958  0.89744  1.0000
  H   H158      1.0  0.29316  0.53000  0.96872  1.0000
  H   H159      1.0  0.33819  0.50140  0.93239  1.0000
  H   H160      1.0  0.29515  0.54725  0.85134  1.0000
  H   H161      1.0  0.24985  0.57583  0.88763  1.0000
  H   H162      1.0  0.22064  0.45965  0.85406  1.0000
  S   S41       1.0  0.14994  0.57842  0.87827  1.0000
  H   H163      1.0  0.11878  0.60054  0.81538  1.0000
  Fe  Fe21      1.0  0.16607  0.58302  0.93068  1.0000
  Fe  Fe22      1.0  0.08413  0.56020  0.89568  1.0000
  H   H164      1.0  0.15021  0.44397  0.88222  1.0000
  H   H165      1.0  0.12549  0.46313  0.91411  1.0000
  C   C101      1.0  0.21301  0.47954  0.86347  1.0000
  C   C102      1.0  0.21794  0.46448  0.91839  1.0000
  H   H166      1.0  0.19226  0.49008  0.84510  1.0000
  H   H167      1.0  0.12692  0.60513  0.00116  1.0000
  S   S42       1.0  0.07323  0.62011  0.70485  1.0000
  N   N10       1.0  0.18878  0.47834  0.89476  1.0000
  C   C103      1.0  0.24591  0.39122  0.01496  1.0000
  C   C104      1.0  0.32240  0.41636  0.04141  1.0000
  H   H168      1.0  0.15817  0.51629  0.88873  1.0000
  H   H169      1.0  0.22487  0.44398  0.91083  1.0000
  H   H170      1.0  0.28492  0.38800  0.82853  1.0000
  H   H171      1.0  0.21201  0.51617  0.90955  1.0000
  C   C105      1.0  0.51231  0.38667  0.83143  1.0000
  C   C106      1.0  0.14464  0.46429  0.89092  1.0000
  C   C107      1.0  0.10616  0.61532  0.79904  1.0000
  H   H172      1.0  0.16094  0.50513  0.92963  1.0000
  H   H173      1.0  0.50236  0.43620  0.81199  1.0000
  H   H174      1.0  0.24655  0.48998  0.86554  1.0000
  S   S43       1.0  0.10342  0.56157  0.94761  1.0000
  H   H175      1.0  0.20824  0.61897  0.99306  1.0000
  C   C108      1.0  0.13535  0.60144  0.02681  1.0000
  H   H176      1.0  0.49547  0.42940  0.76987  1.0000
  H   H177      1.0  0.24278  0.62800  0.02700  1.0000
  S   S44       1.0  0.26822  0.40394  0.95311  1.0000
  H   H178      1.0  0.10445  0.58940  0.75815  1.0000
  C   C109      1.0  0.08307  0.62830  0.74515  1.0000
  S   S45       1.0  0.38569  0.38955  0.90837  1.0000
  N   N11       1.0  0.51818  0.39668  0.79830  1.0000
  C   C110      1.0  0.21425  0.61503  0.01908  1.0000
  C   C111      1.0  0.09821  0.60906  0.76667  1.0000
  H   H179      1.0  0.14585  0.58058  0.02872  1.0000
  Fe  Fe23      1.0  0.06985  0.60098  0.94778  1.0000
  C   C112      1.0  0.29199  0.40261  0.06143  1.0000
  H   H180      1.0  0.06728  0.39665  0.73302  1.0000
  H   H181      1.0  0.06717  0.38623  0.77433  1.0000
  H   H182      1.0  0.50491  0.38390  0.74993  1.0000
  H   H183      1.0  0.34785  0.39645  0.56534  1.0000
  H   H184      1.0  0.26003  0.85594  0.08749  1.0000
  S   S46       1.0  0.12266  0.66739  0.55680  1.0000
  Fe  Fe24      1.0  0.07768  0.76477  0.15841  1.0000
  H   H185      1.0  0.13472  0.72855  0.22318  1.0000
  S   S47       1.0  0.12041  0.73136  0.14032  1.0000
  H   H186      1.0  0.51601  0.80618  0.24551  1.0000
  Fe  Fe25      1.0  0.32646  0.84632  0.23980  1.0000
  S   S48       1.0  0.32526  0.85127  0.29339  1.0000
  S   S49       1.0  0.30940  0.80868  0.21464  1.0000
  C   C113      1.0  0.23369  0.75446  0.25276  1.0000
  H   H187      1.0  0.54113  0.83934  0.19106  1.0000
  S   S50       1.0  0.39608  0.86463  0.23362  1.0000
  H   H188      1.0  0.29977  0.87249  0.40811  1.0000
  H   H189      1.0  0.20824  0.85503  0.06433  1.0000
  H   H190      1.0  0.21791  0.84716  0.15252  1.0000
  H   H191      1.0  0.18257  0.69466  0.24835  1.0000
  C   C114      1.0  0.08912  0.66893  0.24158  1.0000
  H   H192      1.0  0.15393  0.75862  0.28548  1.0000
  Fe  Fe26      1.0  0.07704  0.70700  0.17374  1.0000
  H   H193      1.0  0.50369  0.84039  0.15679  1.0000
  C   C115      1.0  0.21150  0.70901  0.24887  1.0000
  H   H194      1.0  0.25727  0.75043  0.27322  1.0000
  H   H195      1.0  0.18332  0.74100  0.20149  1.0000
  H   H196      1.0  0.14999  0.76250  0.22648  1.0000
  C   C116      1.0  0.48887  0.83563  0.27736  1.0000
  H   H197      1.0  0.48059  0.84447  0.19659  1.0000
  H   H198      1.0  0.25455  0.75329  0.23028  1.0000
  H   H199      1.0  0.45416  0.82791  0.27684  1.0000
  C   C117      1.0  0.54389  0.86751  0.29664  1.0000
  C   C118      1.0  0.15934  0.80626  0.18322  1.0000
  C   C119      1.0  0.17329  0.82378  0.20707  1.0000
  C   C120      1.0  0.21945  0.82461  0.21678  1.0000
  C   C121      1.0  0.25186  0.80820  0.20226  1.0000
  C   C122      1.0  0.23794  0.79078  0.17823  1.0000
  C   C123      1.0  0.19170  0.78985  0.16866  1.0000
  H   H200      1.0  0.14827  0.83644  0.21848  1.0000
  H   H201      1.0  0.22971  0.83760  0.23594  1.0000
  H   H202      1.0  0.26303  0.77813  0.16691  1.0000
  H   H203      1.0  0.18124  0.77665  0.14978  1.0000
  C   C124      1.0  0.34358  0.88298  0.11655  1.0000
  H   H204      1.0  0.23131  0.70649  0.22612  1.0000
  C   C125      1.0  0.52387  0.82328  0.25978  1.0000
  N   N12       1.0  0.19435  0.73608  0.25220  1.0000
  C   C126      1.0  0.16424  0.74234  0.22466  1.0000
  C   C127      1.0  0.16781  0.73848  0.28244  1.0000
  H   H205      1.0  0.33464  0.86262  0.11342  1.0000
  H   H206      1.0  0.22192  0.77509  0.25509  1.0000
  H   H207      1.0  0.23444  0.70354  0.26918  1.0000
  S   S51       1.0  0.10132  0.80496  0.17219  1.0000
  C   C128      1.0  0.51039  0.84927  0.18072  1.0000
  C   C129      1.0  0.49886  0.85770  0.29587  1.0000
  H   H208      1.0  0.18956  0.73406  0.30377  1.0000
  H   H209      1.0  0.13809  0.72472  0.28294  1.0000
  C   C130      1.0  0.06891  0.68914  0.25923  1.0000
  S   S52       1.0  0.10868  0.67410  0.20205  1.0000
  H   H210      1.0  0.29137  0.87531  0.34907  1.0000
  C   C131      1.0  0.09455  0.64425  0.25577  1.0000
  C   C132      1.0  0.22098  0.86770  0.14405  1.0000
  H   H211      1.0  0.11686  0.65828  0.48874  1.0000
  H   H212      1.0  0.21676  0.83197  0.09658  1.0000
  H   H213      1.0  0.13272  0.87915  0.13044  1.0000
  C   C133      1.0  0.07939  0.63969  0.28740  1.0000
  C   C134      1.0  0.10037  0.64207  0.50098  1.0000
  H   H214      1.0  0.14359  0.84530  0.12237  1.0000
  H   H215      1.0  0.25826  0.87266  0.14400  1.0000
  H   H216      1.0  0.35379  0.87927  0.16762  1.0000
  C   C135      1.0  0.22222  0.85264  0.08907  1.0000
  S   S53       1.0  0.28766  0.88313  0.22877  1.0000
  C   C136      1.0  0.09961  0.64129  0.53468  1.0000
  C   C137      1.0  0.15040  0.86556  0.11360  1.0000
  Fe  Fe27      1.0  0.39122  0.87355  0.28618  1.0000
  N   N13       1.0  0.20037  0.87104  0.11182  1.0000
  H   H217      1.0  0.55647  0.88047  0.22192  1.0000
  H   H218      1.0  0.55383  0.87545  0.13318  1.0000
  S   S54       1.0  0.45478  0.87383  0.31674  1.0000
  N   N14       1.0  0.51758  0.87782  0.17825  1.0000
  H   H219      1.0  0.13372  0.86767  0.08962  1.0000
  C   C138      1.0  0.55846  0.88313  0.15798  1.0000
  H   H220      1.0  0.46963  0.88244  0.13912  1.0000
  H   H221      1.0  0.20407  0.88041  0.16226  1.0000
  S   S55       1.0  0.10026  0.75127  0.68173  1.0000
  S   S56       1.0  0.48439  0.84828  0.75946  1.0000
  C   C139      1.0  0.19213  0.70279  0.81112  1.0000
  H   H222      1.0  0.07724  0.67968  0.79685  1.0000
  H   H223      1.0  0.22623  0.76411  0.63149  1.0000
  H   H224      1.0  0.24776  0.82147  0.57750  1.0000
  N   N15       1.0  0.26523  0.79837  0.61905  1.0000
  Fe  Fe28      1.0  0.34183  0.85610  0.69047  1.0000
  S   S57       1.0  0.12533  0.67667  0.65222  1.0000
  C   C140      1.0  0.30731  0.78938  0.63565  1.0000
  S   S58       1.0  0.28184  0.84088  0.71881  1.0000
  Fe  Fe29      1.0  0.41109  0.84323  0.74277  1.0000
  Fe  Fe30      1.0  0.32860  0.80752  0.73113  1.0000
  C   C141      1.0  0.23678  0.77559  0.60996  1.0000
  H   H225      1.0  0.26290  0.72600  0.68844  1.0000
  C   C142      1.0  0.23696  0.74016  0.69520  1.0000
  H   H226      1.0  0.14409  0.79093  0.71914  1.0000
  C   C143      1.0  0.17001  0.77681  0.71223  1.0000
  H   H227      1.0  0.48674  0.81559  0.70223  1.0000
  S   S59       1.0  0.38658  0.82121  0.69956  1.0000
  H   H228      1.0  0.18336  0.66072  0.04259  1.0000
  H   H229      1.0  0.17628  0.85660  0.85888  1.0000
  H   H230      1.0  0.06659  0.65804  0.96321  1.0000
  C   C144      1.0  0.52047  0.82391  0.70597  1.0000
  S   S60       1.0  0.30625  0.76540  0.72673  1.0000
  C   C145      1.0  0.23901  0.86615  0.90500  1.0000
  C   C146      1.0  0.15780  0.75522  0.69343  1.0000
  C   C147      1.0  0.19140  0.73700  0.68470  1.0000
  Fe  Fe31      1.0  0.08843  0.67370  0.60488  1.0000
  H   H231      1.0  0.30167  0.82972  0.59584  1.0000
  H   H232      1.0  0.23733  0.84515  0.89825  1.0000
  C   C148      1.0  0.24912  0.76174  0.71403  1.0000
  H   H233      1.0  0.18236  0.72049  0.66987  1.0000
  N   N16       1.0  0.21019  0.69528  0.77917  1.0000
  H   H234      1.0  0.14259  0.69465  0.75815  1.0000
  H   H235      1.0  0.23041  0.66025  0.75428  1.0000
  C   C149      1.0  0.23853  0.81544  0.64082  1.0000
  H   H236      1.0  0.18689  0.72429  0.81287  1.0000
  H   H237      1.0  0.29891  0.77846  0.65807  1.0000
  C   C150      1.0  0.21559  0.78003  0.72260  1.0000
  H   H238      1.0  0.22455  0.79644  0.73769  1.0000
  H   H239      1.0  0.55207  0.80208  0.66741  1.0000
  C   C151      1.0  0.52775  0.84152  0.73116  1.0000
  H   H240      1.0  0.25146  0.73012  0.77447  1.0000
  H   H241      1.0  0.20744  0.82356  0.62884  1.0000
  H   H242      1.0  0.32831  0.77628  0.62015  1.0000
  C   C152      1.0  0.17717  0.70333  0.75407  1.0000
  H   H243      1.0  0.26918  0.70363  0.74933  1.0000
  H   H244      1.0  0.15839  0.69324  0.81617  1.0000
  H   H245      1.0  0.25585  0.76214  0.59369  1.0000
  Fe  Fe32      1.0  0.31536  0.86106  0.76064  1.0000
  H   H246      1.0  0.20472  0.78176  0.59745  1.0000
  H   H247      1.0  0.32955  0.80620  0.64263  1.0000
  C   C153      1.0  0.55755  0.81612  0.68644  1.0000
  C   C154      1.0  0.56379  0.80485  0.84076  1.0000
  C   C155      1.0  0.25488  0.70843  0.77348  1.0000
  C   C156      1.0  0.21652  0.66662  0.77798  1.0000
  H   H248      1.0  0.15473  0.84554  0.91541  1.0000
  H   H249      1.0  0.24063  0.65975  0.79696  1.0000
  H   H250      1.0  0.17280  0.72494  0.75345  1.0000
  H   H251      1.0  0.21595  0.69680  0.83072  1.0000
  H   H252      1.0  0.25959  0.83222  0.64917  1.0000
  C   C157      1.0  0.27840  0.81314  0.58985  1.0000
  H   H253      1.0  0.28094  0.70266  0.79172  1.0000
  S   S61       1.0  0.35714  0.82625  0.77561  1.0000
  H   H254      1.0  0.22695  0.80470  0.66267  1.0000
  H   H255      1.0  0.18869  0.69691  0.72981  1.0000
  S   S62       1.0  0.33606  0.86952  0.63911  1.0000
  H   H256      1.0  0.53134  0.81471  0.83309  1.0000
  S   S63       1.0  0.37117  0.87952  0.73098  1.0000
  S   S64       1.0  0.11275  0.64987  0.84925  1.0000
  H   H257      1.0  0.12477  0.87619  0.91892  1.0000
  H   H258      1.0  0.55210  0.80551  0.77742  1.0000
  C   C158      1.0  0.15672  0.64663  0.03433  1.0000
  S   S65       1.0  0.07493  0.72038  0.05191  1.0000
  H   H259      1.0  0.16858  0.86793  0.94730  1.0000
  H   H260      1.0  0.18333  0.65614  0.78177  1.0000
  C   C159      1.0  0.07550  0.65373  0.75613  1.0000
  C   C160      1.0  0.06856  0.68591  0.00204  1.0000
  H   H261      1.0  0.55562  0.78384  0.84477  1.0000
  Fe  Fe33      1.0  0.08147  0.71222  0.66040  1.0000
  H   H262      1.0  0.08618  0.70069  0.98798  1.0000
  H   H263      1.0  0.25088  0.86736  0.93040  1.0000
  C   C161      1.0  0.15902  0.86658  0.92141  1.0000
  C   C162      1.0  0.08331  0.65997  0.78844  1.0000
  H   H264      1.0  0.12484  0.65053  0.04840  1.0000
  H   H265      1.0  0.29710  0.80058  0.57234  1.0000
  H   H266      1.0  0.29525  0.87689  0.57754  1.0000
  C   C163      1.0  0.28185  0.88158  0.62821  1.0000
  C   C164      1.0  0.17993  0.87731  0.86659  1.0000
  H   H267      1.0  0.14908  0.65123  0.00871  1.0000
  N   N17       1.0  0.19402  0.87921  0.90064  1.0000
  H   H268      1.0  0.26622  0.87537  0.88978  1.0000
  C   C165      1.0  0.09915  0.64088  0.80982  1.0000
  H   H269      1.0  0.37157  0.87630  0.81043  1.0000
  C   C166      1.0  0.27079  0.88326  0.59558  1.0000
  C   C167      1.0  0.47956  0.07521  0.07672  1.0000
  H   H270      1.0  0.32288  0.95347  0.33643  1.0000
  Fe  Fe34      1.0  0.35726  0.90192  0.22724  1.0000
  H   H271      1.0  0.43517  0.96305  0.37804  1.0000
  C   C168      1.0  0.32545  0.94841  0.40062  1.0000
  H   H272      1.0  0.36412  0.08537  0.07201  1.0000
  C   C169      1.0  0.24344  0.89867  0.41786  1.0000
  H   H273      1.0  0.50484  0.07135  0.09624  1.0000
  H   H274      1.0  0.37746  0.95572  0.12787  1.0000
  H   H275      1.0  0.08542  0.91752  0.36675  1.0000
  H   H276      1.0  0.44138  0.11704  0.10447  1.0000
  C   C170      1.0  0.36657  0.91865  0.15134  1.0000
  C   C171      1.0  0.35253  0.96305  0.34873  1.0000
  H   H277      1.0  0.30512  0.97607  0.55984  1.0000
  S   S66       1.0  0.35723  0.91239  0.27941  1.0000
  C   C172      1.0  0.20374  0.91554  0.37092  1.0000
  S   S67       1.0  0.25329  0.89867  0.45936  1.0000
  H   H278      1.0  0.31623  0.96841  0.40897  1.0000
  S   S68       1.0  0.38002  0.93056  0.18962  1.0000
  C   C173      1.0  0.36802  0.93542  0.12474  1.0000
  H   H279      1.0  0.33246  0.93635  0.42240  1.0000
  H   H280      1.0  0.38301  0.05244  0.11373  1.0000
  H   H281      1.0  0.48025  0.91171  0.16183  1.0000
  H   H282      1.0  0.44519  0.88637  0.17838  1.0000
  C   C174      1.0  0.20792  0.89816  0.10058  1.0000
  C   C175      1.0  0.37868  0.92179  0.37011  1.0000
  H   H283      1.0  0.51309  0.07895  0.52475  1.0000
  H   H284      1.0  0.34235  0.98357  0.35407  1.0000
  H   H285      1.0  0.29446  0.94008  0.38881  1.0000
  H   H286      1.0  0.41914  0.03585  0.08539  1.0000
  H   H287      1.0  0.55304  0.03679  0.30501  1.0000
  N   N18       1.0  0.36530  0.94885  0.37839  1.0000
  C   C176      1.0  0.35458  0.89238  0.14721  1.0000
  S   S69       1.0  0.23039  0.90582  0.30900  1.0000
  C   C177      1.0  0.41859  0.05173  0.10374  1.0000
  H   H288      1.0  0.21947  0.89385  0.56080  1.0000
  H   H289      1.0  0.17745  0.92789  0.36054  1.0000
  C   C178      1.0  0.40443  0.96219  0.39403  1.0000
  C   C179      1.0  0.35592  0.92616  0.09420  1.0000
  H   H290      1.0  0.18544  0.92486  0.41987  1.0000
  H   H291      1.0  0.39551  0.09989  0.12477  1.0000
  S   S70       1.0  0.51438  0.03334  0.39506  1.0000
  H   H292      1.0  0.41491  0.95201  0.41654  1.0000
  H   H293      1.0  0.39557  0.98266  0.40076  1.0000
  C   C180      1.0  0.23410  0.90191  0.35081  1.0000
  H   H294      1.0  0.35601  0.93936  0.07387  1.0000
  C   C181      1.0  0.27277  0.88439  0.39779  1.0000
  H   H295      1.0  0.19289  0.90142  0.07629  1.0000
  C   C182      1.0  0.34319  0.90000  0.09016  1.0000
  H   H296      1.0  0.38701  0.91014  0.39196  1.0000
  Fe  Fe35      1.0  0.16161  0.93717  0.54848  1.0000
  H   H297      1.0  0.38165  0.96363  0.33128  1.0000
  H   H298      1.0  0.24533  0.90281  0.09875  1.0000
  C   C183      1.0  0.52621  0.11644  0.33716  1.0000
  H   H299      1.0  0.45478  0.09336  0.13457  1.0000
  C   C184      1.0  0.51134  0.12313  0.30616  1.0000
  C   C185      1.0  0.20840  0.91394  0.40446  1.0000
  H   H300      1.0  0.40943  0.92134  0.35403  1.0000
  N   N19       1.0  0.43221  0.07712  0.08955  1.0000
  H   H301      1.0  0.35053  0.91147  0.35728  1.0000
  S   S71       1.0  0.49150  0.07411  0.45425  1.0000
  Fe  Fe36      1.0  0.49554  0.03051  0.44714  1.0000
  S   S72       1.0  0.44958  0.99644  0.45866  1.0000
  Fe  Fe37      1.0  0.21156  0.98201  0.51555  1.0000
  S   S73       1.0  0.23457  0.94278  0.53264  1.0000
  Fe  Fe38      1.0  0.12372  0.96078  0.48753  1.0000
  Fe  Fe39      1.0  0.21007  0.92828  0.48502  1.0000
  S   S74       1.0  0.14019  0.97802  0.53576  1.0000
  H   H302      1.0  0.37098  0.96418  0.46746  1.0000
  S   S75       1.0  0.54624  0.12685  0.11463  1.0000
  H   H303      1.0  0.41148  0.04305  0.48873  1.0000
  H   H304      1.0  0.33524  0.05080  0.51450  1.0000
  H   H305      1.0  0.29447  0.97237  0.49111  1.0000
  S   S76       1.0  0.19353  0.96816  0.46610  1.0000
  C   C186      1.0  0.39606  0.00315  0.47620  1.0000
  C   C187      1.0  0.36310  0.98322  0.47725  1.0000
  C   C188      1.0  0.31983  0.98779  0.49091  1.0000
  C   C189      1.0  0.30979  0.01207  0.50458  1.0000
  C   C190      1.0  0.38598  0.02764  0.48936  1.0000
  Fe  Fe40      1.0  0.51755  0.07658  0.40318  1.0000
  H   H306      1.0  0.47559  0.12041  0.29968  1.0000
  S   S77       1.0  0.13860  0.91939  0.50208  1.0000
  C   C191      1.0  0.43068  0.09771  0.11445  1.0000
  S   S78       1.0  0.25675  0.01689  0.52390  1.0000
  C   C192      1.0  0.34292  0.03200  0.50390  1.0000
  S   S79       1.0  0.48717  0.10227  0.36457  1.0000
  C   C193      1.0  0.53067  0.08786  0.54482  1.0000
  C   C194      1.0  0.54289  0.13252  0.28316  1.0000
  H   H307      1.0  0.08595  0.89378  0.39865  1.0000
  H   H308      1.0  0.44223  0.04587  0.12350  1.0000
  C   C195      1.0  0.52499  0.88875  0.21071  1.0000
  H   H309      1.0  0.19225  0.91262  0.11728  1.0000
  Fe  Fe41      1.0  0.29134  0.88967  0.28211  1.0000
  C   C196      1.0  0.07151  0.91297  0.39110  1.0000
  C   C197      1.0  0.26811  0.88604  0.36433  1.0000
  H   H310      1.0  0.55141  0.88493  0.31035  1.0000
  C   C198      1.0  0.47653  0.89009  0.16368  1.0000
  H   H311      1.0  0.52908  0.91037  0.20997  1.0000
  H   H312      1.0  0.08535  0.92803  0.40790  1.0000
  H   H313      1.0  0.36523  0.98361  0.56152  1.0000
  H   H314      1.0  0.49025  0.09374  0.06473  1.0000
  H   H315      1.0  0.56555  0.90446  0.15613  1.0000
  H   H316      1.0  0.49556  0.88431  0.22709  1.0000
  H   H317      1.0  0.56530  0.06602  0.32711  1.0000
  H   H318      1.0  0.32403  0.92856  0.56342  1.0000
  C   C199      1.0  0.31181  0.89797  0.82570  1.0000
  H   H319      1.0  0.30266  0.93673  0.63503  1.0000
  H   H320      1.0  0.42489  0.97834  0.87850  1.0000
  C   C200      1.0  0.37924  0.96360  0.62101  1.0000
  H   H321      1.0  0.25821  0.88831  0.67668  1.0000
  H   H322      1.0  0.28814  0.97075  0.63136  1.0000
  H   H323      1.0  0.38405  0.93663  0.56552  1.0000
  H   H324      1.0  0.16491  0.91759  0.90714  1.0000
  C   C201      1.0  0.19694  0.90244  0.60898  1.0000
  H   H325      1.0  0.44431  0.97709  0.04076  1.0000
  H   H326      1.0  0.18318  0.90710  0.65961  1.0000
  C   C202      1.0  0.08749  0.90402  0.99843  1.0000
  H   H327      1.0  0.14649  0.88732  0.86231  1.0000
  H   H328      1.0  0.20590  0.88648  0.85031  1.0000
  C   C203      1.0  0.19814  0.90697  0.90978  1.0000
  H   H329      1.0  0.46400  0.99985  0.85774  1.0000
  C   C204      1.0  0.13351  0.90294  0.00845  1.0000
  H   H330      1.0  0.32577  0.99819  0.58960  1.0000
  H   H331      1.0  0.41190  0.96724  0.60763  1.0000
  H   H332      1.0  0.47755  0.98663  0.95862  1.0000
  H   H333      1.0  0.40962  0.10284  0.05179  1.0000
  C   C205      1.0  0.10636  0.94056  0.96352  1.0000
  H   H334      1.0  0.42087  0.89217  0.85482  1.0000
  S   S80       1.0  0.14682  0.91857  0.59644  1.0000
  S   S81       1.0  0.19213  0.96133  0.95663  1.0000
  H   H335      1.0  0.20898  0.90893  0.93522  1.0000
  H   H336      1.0  0.48286  0.05920  0.05886  1.0000
  Fe  Fe42      1.0  0.34802  0.97802  0.00395  1.0000
  S   S82       1.0  0.38945  0.94114  0.00016  1.0000
  S   S83       1.0  0.37749  0.01578  0.02232  1.0000
  Fe  Fe43      1.0  0.26395  0.95376  0.97367  1.0000
  H   H337      1.0  0.26891  0.94788  0.60167  1.0000
  S   S84       1.0  0.32398  0.88875  0.05277  1.0000
  H   H338      1.0  0.49006  0.95294  0.90007  1.0000
  C   C206      1.0  0.16585  0.92083  0.99617  1.0000
  Fe  Fe44      1.0  0.35874  0.93781  0.95095  1.0000
  H   H339      1.0  0.52642  0.02221  0.88767  1.0000
  S   S85       1.0  0.28544  0.95868  0.02496  1.0000
  S   S86       1.0  0.32306  0.97649  0.95300  1.0000
  N   N20       1.0  0.47915  0.99401  0.90783  1.0000
  H   H340      1.0  0.38546  0.94713  0.63804  1.0000
  H   H341      1.0  0.30836  0.93800  0.89118  1.0000
  H   H342      1.0  0.43107  0.00662  0.94417  1.0000
  S   S87       1.0  0.40197  0.92549  0.90878  1.0000
  H   H343      1.0  0.53533  0.96914  0.92169  1.0000
  C   C207      1.0  0.29835  0.95306  0.61756  1.0000
  H   H344      1.0  0.40058  0.06869  0.04406  1.0000
  C   C208      1.0  0.20729  0.90005  0.64174  1.0000
  C   C209      1.0  0.15211  0.93975  0.97379  1.0000
  Fe  Fe45      1.0  0.32460  0.92149  0.01683  1.0000
  S   S88       1.0  0.29746  0.91470  0.96718  1.0000
  H   H345      1.0  0.43135  0.97215  0.93690  1.0000
  C   C210      1.0  0.53203  0.01125  0.00597  1.0000
  C   C211      1.0  0.50936  0.99115  0.02252  1.0000
  C   C212      1.0  0.46189  0.99281  0.02833  1.0000
  C   C213      1.0  0.43722  0.01463  0.01780  1.0000
  C   C214      1.0  0.46013  0.03514  0.00229  1.0000
  C   C215      1.0  0.50753  0.03343  0.99640  1.0000
  C   C216      1.0  0.07419  0.92271  0.97578  1.0000
  C   C217      1.0  0.35764  0.88978  0.82790  1.0000
  H   H346      1.0  0.44105  0.05197  0.99391  1.0000
  H   H347      1.0  0.52472  0.04907  0.98394  1.0000
  H   H348      1.0  0.52816  0.97396  0.03003  1.0000
  H   H349      1.0  0.20131  0.92001  0.00401  1.0000
  H   H350      1.0  0.25989  0.92327  0.84537  1.0000
  C   C218      1.0  0.50995  0.97154  0.90187  1.0000
  C   C219      1.0  0.38558  0.89880  0.85304  1.0000
  C   C220      1.0  0.50693  0.01819  0.91029  1.0000
  C   C221      1.0  0.36756  0.91569  0.87632  1.0000
  S   S89       1.0  0.49721  0.11328  0.63396  1.0000
  C   C222      1.0  0.44603  0.99645  0.88106  1.0000
  H   H351      1.0  0.54388  0.08391  0.79120  1.0000
  H   H352      1.0  0.22419  0.91745  0.89508  1.0000
  H   H353      1.0  0.52960  0.97401  0.87905  1.0000
  C   C223      1.0  0.29456  0.91595  0.84801  1.0000
  C   C224      1.0  0.45367  0.98975  0.93819  1.0000
  C   C225      1.0  0.35233  0.93384  0.58022  1.0000
  H   H354      1.0  0.48495  0.03555  0.91515  1.0000
  H   H355      1.0  0.53249  0.01680  0.93014  1.0000
  C   C226      1.0  0.32209  0.92445  0.87367  1.0000
  C   C227      1.0  0.33413  0.97981  0.57657  1.0000
  C   C228      1.0  0.22814  0.89323  0.58604  1.0000
  H   H356      1.0  0.14404  0.88836  0.02576  1.0000
  H   H357      1.0  0.37175  0.98135  0.63556  1.0000
  C   C229      1.0  0.52867  0.10520  0.59926  1.0000
  C   C230      1.0  0.50645  0.09313  0.57335  1.0000
  H   H358      1.0  0.42184  0.01299  0.88503  1.0000
  H   H359      1.0  0.47023  0.08828  0.57514  1.0000
  S   S90       1.0  0.27509  0.88499  0.79623  1.0000
  H   H360      1.0  0.35801  0.91671  0.59633  1.0000
  C   C231      1.0  0.24977  0.88951  0.65139  1.0000
  N   N21       1.0  0.34099  0.95759  0.59883  1.0000
  H   H361      1.0  0.09577  0.95502  0.94602  1.0000
  H   H362      1.0  0.06750  0.88566  0.58646  1.0000
  C   C232      1.0  0.40024  0.08386  0.06321  1.0000
  Fe  Fe46      1.0  0.91121  0.34188  0.17623  1.0000
  Fe  Fe47      1.0  0.57020  0.15820  0.14895  1.0000
  S   S91       1.0  0.96305  0.31572  0.19956  1.0000
  Fe  Fe48      1.0  0.81127  0.34796  0.15783  1.0000
  H   H363      1.0  0.64784  0.19426  0.55057  1.0000
  S   S92       1.0  0.74080  0.33140  0.16685  1.0000
  H   H364      1.0  0.01677  0.33197  0.54227  1.0000
  C   C233      1.0  0.80989  0.35237  0.51035  1.0000
  C   C234      1.0  0.85041  0.36714  0.50857  1.0000
  H   H365      1.0  0.03245  0.30768  0.09304  1.0000
  S   S93       1.0  0.87236  0.33127  0.13162  1.0000
  S   S94       1.0  0.84927  0.35509  0.20359  1.0000
  C   C235      1.0  0.87619  0.28534  0.24684  1.0000
  S   S95       1.0  0.64025  0.15235  0.17015  1.0000
  H   H366      1.0  0.88650  0.23408  0.23472  1.0000
  H   H367      1.0  0.87586  0.30633  0.23974  1.0000
  Fe  Fe49      1.0  0.64954  0.19533  0.16220  1.0000
  S   S96       1.0  0.71697  0.21030  0.14236  1.0000
  H   H368      1.0  0.83011  0.22892  0.21804  1.0000
  C   C236      1.0  0.84655  0.32314  0.54854  1.0000
  H   H369      1.0  0.03519  0.37171  0.14249  1.0000
  H   H370      1.0  0.79774  0.29884  0.21556  1.0000
  H   H371      1.0  0.06048  0.35126  0.07609  1.0000
  C   C237      1.0  0.86836  0.27172  0.19163  1.0000
  S   S97       1.0  0.63113  0.14293  0.26197  1.0000
  C   C238      1.0  0.73352  0.29813  0.15786  1.0000
  C   C239      1.0  0.76824  0.28387  0.14248  1.0000
  C   C240      1.0  0.76276  0.25692  0.13736  1.0000
  C   C241      1.0  0.72250  0.24421  0.14752  1.0000
  C   C242      1.0  0.68746  0.25858  0.16232  1.0000
  C   C243      1.0  0.69302  0.28548  0.16753  1.0000
  H   H372      1.0  0.79923  0.29356  0.13451  1.0000
  H   H373      1.0  0.78969  0.24592  0.12554  1.0000
  H   H374      1.0  0.65595  0.24904  0.16977  1.0000
  H   H375      1.0  0.66587  0.29642  0.17924  1.0000
  H   H376      1.0  0.78137  0.16743  0.11996  1.0000
  N   N22       1.0  0.74134  0.14597  0.08545  1.0000
  H   H377      1.0  0.77869  0.26605  0.20830  1.0000
  H   H378      1.0  0.96695  0.30942  0.13107  1.0000
  H   H379      1.0  0.69719  0.34697  0.23852  1.0000
  H   H380      1.0  0.86706  0.29230  0.18309  1.0000
  C   C244      1.0  0.03886  0.30948  0.11855  1.0000
  H   H381      1.0  0.84918  0.25955  0.17402  1.0000
  H   H382      1.0  0.91932  0.37223  0.52686  1.0000
  C   C245      1.0  0.80052  0.27831  0.22431  1.0000
  S   S98       1.0  0.62263  0.20600  0.21083  1.0000
  H   H383      1.0  0.91306  0.27927  0.24705  1.0000
  S   S99       1.0  0.93051  0.38216  0.16003  1.0000
  N   N23       1.0  0.84887  0.26924  0.22435  1.0000
  Fe  Fe50      1.0  0.60717  0.16339  0.21693  1.0000
  N   N24       1.0  0.58109  0.18227  0.53366  1.0000
  C   C246      1.0  0.59149  0.15209  0.06549  1.0000
  H   H384      1.0  0.86285  0.28393  0.27188  1.0000
  C   C247      1.0  0.85049  0.24157  0.23455  1.0000
  H   H385      1.0  0.78501  0.27741  0.24877  1.0000
  H   H386      1.0  0.90524  0.26572  0.19088  1.0000
  S   S100      1.0  0.75905  0.36287  0.49173  1.0000
  C   C248      1.0  0.00176  0.31048  0.14006  1.0000
  C   C249      1.0  0.00977  0.31266  0.17307  1.0000
  H   H387      1.0  0.62788  0.15000  0.52794  1.0000
  H   H388      1.0  0.77715  0.31856  0.53124  1.0000
  C   C250      1.0  0.61810  0.20199  0.53662  1.0000
  H   H389      1.0  0.83606  0.23896  0.25918  1.0000
  C   C251      1.0  0.88862  0.36024  0.52742  1.0000
  H   H390      1.0  0.60577  0.21976  0.54947  1.0000
  C   C252      1.0  0.59840  0.15949  0.51549  1.0000
  C   C253      1.0  0.71663  0.16960  0.07447  1.0000
  H   H391      1.0  0.61027  0.16508  0.49097  1.0000
  Fe  Fe51      1.0  0.88653  0.37287  0.11732  1.0000
  H   H392      1.0  0.63116  0.20833  0.51267  1.0000
  H   H393      1.0  0.79689  0.37909  0.27804  1.0000
  C   C254      1.0  0.75830  0.15007  0.11853  1.0000
  C   C255      1.0  0.76711  0.36570  0.27443  1.0000
  H   H394      1.0  0.67891  0.35057  0.27976  1.0000
  H   H395      1.0  0.73858  0.18739  0.07626  1.0000
  H   H396      1.0  0.58305  0.17007  0.07773  1.0000
  H   H397      1.0  0.72929  0.15372  0.13548  1.0000
  S   S101      1.0  0.58204  0.20056  0.13692  1.0000
  H   H398      1.0  0.68532  0.17334  0.08934  1.0000
  C   C256      1.0  0.80829  0.33017  0.53003  1.0000
  H   H399      1.0  0.81994  0.36797  0.06833  1.0000
  C   C257      1.0  0.04725  0.31883  0.54083  1.0000
  C   C258      1.0  0.88629  0.33855  0.54795  1.0000
  H   H400      1.0  0.03392  0.29842  0.54023  1.0000
  H   H401      1.0  0.76042  0.35577  0.29783  1.0000
  H   H402      1.0  0.06470  0.32284  0.51747  1.0000
  C   C259      1.0  0.03601  0.36782  0.07896  1.0000
  H   H403      1.0  0.77791  0.35061  0.25674  1.0000
  C   C260      1.0  0.68800  0.36151  0.25745  1.0000
  H   H404      1.0  0.00430  0.36012  0.09081  1.0000
  H   H405      1.0  0.91635  0.37776  0.30046  1.0000
  C   C261      1.0  0.05504  0.31365  0.18457  1.0000
  H   H406      1.0  0.65636  0.37179  0.24922  1.0000
  S   S102      1.0  0.75786  0.37823  0.40024  1.0000
  H   H407      1.0  0.74816  0.37990  0.21361  1.0000
  N   N25       1.0  0.72613  0.38012  0.26312  1.0000
  H   H408      1.0  0.78987  0.38135  0.56248  1.0000
  H   H409      1.0  0.06133  0.31544  0.21011  1.0000
  H   H410      1.0  0.57114  0.14435  0.51254  1.0000
  C   C262      1.0  0.58935  0.13540  0.29121  1.0000
  H   H411      1.0  0.84519  0.30578  0.56328  1.0000
  C   C263      1.0  0.78066  0.14093  0.06368  1.0000
  C   C264      1.0  0.75544  0.35434  0.61264  1.0000
  Fe  Fe52      1.0  0.93973  0.28709  0.68111  1.0000
  S   S103      1.0  0.92091  0.32787  0.66650  1.0000
  C   C265      1.0  0.74239  0.18894  0.75858  1.0000
  Fe  Fe53      1.0  0.85761  0.26312  0.64787  1.0000
  S   S104      1.0  0.83179  0.30173  0.62988  1.0000
  S   S105      1.0  0.82438  0.22411  0.63863  1.0000
  Fe  Fe54      1.0  0.90573  0.31027  0.61845  1.0000
  C   C266      1.0  0.89306  0.35540  0.96454  1.0000
  S   S106      1.0  0.93041  0.27033  0.63178  1.0000
  H   H412      1.0  0.87895  0.34169  0.88518  1.0000
  Fe  Fe55      1.0  0.58178  0.16892  0.71616  1.0000
  H   H413      1.0  0.76064  0.18377  0.62136  1.0000
  C   C267      1.0  0.76852  0.22513  0.72575  1.0000
  H   H414      1.0  0.75826  0.34363  0.63592  1.0000
  H   H415      1.0  0.87245  0.35296  0.98701  1.0000
  H   H416      1.0  0.01335  0.25195  0.65284  1.0000
  H   H417      1.0  0.77598  0.18814  0.77135  1.0000
  C   C268      1.0  0.76513  0.22514  0.63058  1.0000
  C   C269      1.0  0.74054  0.24853  0.63317  1.0000
  C   C270      1.0  0.69277  0.24873  0.62843  1.0000
  C   C271      1.0  0.66931  0.22542  0.62208  1.0000
  C   C272      1.0  0.69372  0.20196  0.61959  1.0000
  C   C273      1.0  0.74171  0.20190  0.62341  1.0000
  H   H418      1.0  0.75810  0.26641  0.63925  1.0000
  H   H419      1.0  0.67383  0.26687  0.63045  1.0000
  H   H420      1.0  0.74634  0.23925  0.73894  1.0000
  S   S107      1.0  0.79982  0.34380  0.70273  1.0000
  N   N26       1.0  0.05632  0.35544  0.74002  1.0000
  H   H421      1.0  0.84445  0.30714  0.91993  1.0000
  H   H422      1.0  0.70561  0.16772  0.04898  1.0000
  H   H423      1.0  0.05458  0.31567  0.75676  1.0000
  H   H424      1.0  0.06239  0.36448  0.68963  1.0000
  H   H425      1.0  0.02419  0.32968  0.60244  1.0000
  H   H426      1.0  0.99301  0.36283  0.76554  1.0000
  H   H427      1.0  0.67568  0.18391  0.61463  1.0000
  C   C274      1.0  0.82995  0.37449  0.61973  1.0000
  S   S108      1.0  0.93112  0.33241  0.57514  1.0000
  C   C275      1.0  0.82325  0.35687  0.93325  1.0000
  H   H428      1.0  0.80305  0.22504  0.73730  1.0000
  Fe  Fe56      1.0  0.84900  0.31603  0.67920  1.0000
  S   S109      1.0  0.86877  0.27672  0.69853  1.0000
  H   H429      1.0  0.92701  0.34587  0.96843  1.0000
  H   H430      1.0  0.90095  0.37094  0.90291  1.0000
  C   C276      1.0  0.89624  0.34956  0.90701  1.0000
  H   H431      1.0  0.76924  0.34135  0.59343  1.0000
  H   H432      1.0  0.02588  0.37442  0.05448  1.0000
  S   S110      1.0  0.00297  0.28218  0.71162  1.0000
  H   H433      1.0  0.83523  0.36449  0.64321  1.0000
  H   H434      1.0  0.80121  0.35318  0.95475  1.0000
  H   H435      1.0  0.98867  0.33889  0.73419  1.0000
  C   C277      1.0  0.05131  0.27294  0.68888  1.0000
  C   C278      1.0  0.00553  0.35768  0.74102  1.0000
  C   C279      1.0  0.05436  0.31661  0.59863  1.0000
  N   N27       1.0  0.74783  0.19870  0.72531  1.0000
  H   H436      1.0  0.93107  0.34062  0.90841  1.0000
  H   H437      1.0  0.67732  0.21170  0.72393  1.0000
  H   H438      1.0  0.70446  0.20893  0.68545  1.0000
  H   H439      1.0  0.71868  0.20155  0.77278  1.0000
  C   C280      1.0  0.82587  0.38045  0.04770  1.0000
  H   H440      1.0  0.80442  0.34968  0.91172  1.0000
  C   C281      1.0  0.61216  0.13798  0.78569  1.0000
  H   H441      1.0  0.89671  0.30586  0.94297  1.0000
  C   C282      1.0  0.87933  0.35458  0.78143  1.0000
  C   C283      1.0  0.85372  0.37267  0.79929  1.0000
  C   C284      1.0  0.61661  0.15289  0.03663  1.0000
  N   N28       1.0  0.86890  0.34442  0.93639  1.0000
  H   H442      1.0  0.89954  0.37671  0.96141  1.0000
  H   H443      1.0  0.81309  0.17966  0.71807  1.0000
  H   H444      1.0  0.76367  0.16063  0.70639  1.0000
  H   H445      1.0  0.59548  0.16571  0.58016  1.0000
  Fe  Fe57      1.0  0.57572  0.19861  0.65302  1.0000
  C   C285      1.0  0.70221  0.19989  0.70967  1.0000
  H   H446      1.0  0.72741  0.16886  0.75892  1.0000
  C   C286      1.0  0.77817  0.18077  0.70720  1.0000
  H   H447      1.0  0.68701  0.18006  0.70675  1.0000
  H   H448      1.0  0.82651  0.37842  0.93074  1.0000
  H   H449      1.0  0.84255  0.31151  0.96281  1.0000
  C   C287      1.0  0.86291  0.31594  0.94071  1.0000
  C   C288      1.0  0.04650  0.25940  0.65987  1.0000
  H   H450      1.0  0.88266  0.33155  0.73808  1.0000
  H   H451      1.0  0.84518  0.36176  0.60086  1.0000
  C   C289      1.0  0.82080  0.35476  0.73986  1.0000
  C   C290      1.0  0.81164  0.38177  0.78745  1.0000
  C   C291      1.0  0.63036  0.13767  0.81685  1.0000
  S   S111      1.0  0.60943  0.22575  0.61788  1.0000
  H   H452      1.0  0.65434  0.15270  0.82420  1.0000
  C   C292      1.0  0.86292  0.34563  0.75169  1.0000
  H   H453      1.0  0.05435  0.33050  0.69854  1.0000
  H   H454      1.0  0.91168  0.34736  0.79068  1.0000
  H   H455      1.0  0.78284  0.18739  0.68195  1.0000
  H   H456      1.0  0.77340  0.23290  0.70091  1.0000
  C   C293      1.0  0.79521  0.37282  0.75774  1.0000
  H   H457      1.0  0.75708  0.37571  0.02924  1.0000
  S   S112      1.0  0.60039  0.15836  0.66533  1.0000
  H   H458      1.0  0.62778  0.17148  0.02692  1.0000
  H   H459      1.0  0.04103  0.29619  0.59857  1.0000
  S   S113      1.0  0.62749  0.16353  0.75936  1.0000
  N   N29       1.0  0.78059  0.37946  0.61365  1.0000
  H   H460      1.0  0.71817  0.35727  0.60768  1.0000
  H   H461      1.0  0.99290  0.37294  0.72412  1.0000
  H   H462      1.0  0.76875  0.13778  0.03848  1.0000
  H   H463      1.0  0.06403  0.36409  0.57089  1.0000
  H   H464      1.0  0.06202  0.33954  0.78777  1.0000
  H   H465      1.0  0.76262  0.37988  0.74868  1.0000
  H   H466      1.0  0.80509  0.15770  0.06337  1.0000
  H   H467      1.0  0.68574  0.52015  0.43980  1.0000
  S   S114      1.0  0.85331  0.43022  0.21276  1.0000
  C   C294      1.0  0.58505  0.48975  0.42062  1.0000
  C   C295      1.0  0.88984  0.40121  0.26160  1.0000
  H   H468      1.0  0.57869  0.49970  0.39724  1.0000
  H   H469      1.0  0.89566  0.48483  0.38708  1.0000
  C   C296      1.0  0.83968  0.42749  0.30902  1.0000
  C   C297      1.0  0.79789  0.50913  0.39019  1.0000
  H   H470      1.0  0.82076  0.43793  0.32712  1.0000
  C   C298      1.0  0.73730  0.39384  0.23275  1.0000
  H   H471      1.0  0.95229  0.43399  0.33744  1.0000
  S   S115      1.0  0.02423  0.57850  0.47772  1.0000
  S   S116      1.0  0.76459  0.44021  0.37978  1.0000
  H   H472      1.0  0.69968  0.47922  0.41090  1.0000
  C   C299      1.0  0.83653  0.43538  0.27685  1.0000
  C   C300      1.0  0.86106  0.42198  0.25311  1.0000
  H   H473      1.0  0.97901  0.48689  0.39573  1.0000
  C   C301      1.0  0.86817  0.40660  0.31756  1.0000
  S   S117      1.0  0.88655  0.56090  0.35056  1.0000
  C   C302      1.0  0.64869  0.51870  0.43284  1.0000
  N   N30       1.0  0.94689  0.47421  0.35195  1.0000
  S   S118      1.0  0.64427  0.41111  0.36649  1.0000
  H   H474      1.0  0.92695  0.45523  0.30804  1.0000
  H   H475      1.0  0.81443  0.45155  0.27027  1.0000
  C   C303      1.0  0.82119  0.52526  0.36821  1.0000
  C   C304      1.0  0.85703  0.54146  0.37862  1.0000
  H   H476      1.0  0.77008  0.49687  0.38195  1.0000
  H   H477      1.0  0.81161  0.52510  0.34308  1.0000
  Fe  Fe58      1.0  0.95642  0.57317  0.36791  1.0000
  C   C305      1.0  0.59389  0.41351  0.39001  1.0000
  Fe  Fe59      1.0  0.86428  0.39450  0.18289  1.0000
  H   H478      1.0  0.92088  0.50273  0.31844  1.0000
  S   S119      1.0  0.01113  0.58032  0.33088  1.0000
  H   H479      1.0  0.98017  0.63032  0.55598  1.0000
  H   H480      1.0  0.03857  0.42820  0.11280  1.0000
  H   H481      1.0  0.89685  0.55426  0.41932  1.0000
  Fe  Fe60      1.0  0.70968  0.41217  0.39558  1.0000
  C   C306      1.0  0.98380  0.47223  0.37625  1.0000
  H   H482      1.0  0.94265  0.51593  0.35507  1.0000
  H   H483      1.0  0.03946  0.58474  0.54489  1.0000
  H   H484      1.0  0.98216  0.50434  0.32522  1.0000
  C   C307      1.0  0.94828  0.50039  0.33691  1.0000
  C   C308      1.0  0.86934  0.54167  0.41112  1.0000
  C   C309      1.0  0.90166  0.47024  0.36768  1.0000
  Fe  Fe61      1.0  0.03156  0.61388  0.36248  1.0000
  H   H485      1.0  0.87295  0.47226  0.35020  1.0000
  H   H486      1.0  0.89895  0.45043  0.37870  1.0000
  H   H487      1.0  0.70717  0.40488  0.22340  1.0000
  C   C310      1.0  0.66243  0.47826  0.40490  1.0000
  C   C311      1.0  0.02425  0.41150  0.09896  1.0000
  H   H488      1.0  0.62976  0.45681  0.45961  1.0000
  N   N31       1.0  0.05674  0.38929  0.09776  1.0000
  C   C312      1.0  0.80975  0.50955  0.42277  1.0000
  H   H489      1.0  0.65317  0.45731  0.40247  1.0000
  H   H490      1.0  0.62820  0.52911  0.45147  1.0000
  S   S120      1.0  0.99978  0.54659  0.39775  1.0000
  C   C313      1.0  0.95388  0.45406  0.32700  1.0000
  H   H491      1.0  0.70338  0.38963  0.31109  1.0000
  C   C314      1.0  0.05654  0.60069  0.53254  1.0000
  H   H492      1.0  0.91948  0.62601  0.54987  1.0000
  C   C315      1.0  0.64078  0.47765  0.46095  1.0000
  S   S121      1.0  0.97276  0.60858  0.39726  1.0000
  H   H493      1.0  0.98792  0.45629  0.31495  1.0000
  C   C316      1.0  0.89382  0.39374  0.29389  1.0000
  H   H494      1.0  0.98426  0.45252  0.38765  1.0000
  H   H495      1.0  0.65777  0.48749  0.38090  1.0000
  S   S122      1.0  0.87351  0.39685  0.35770  1.0000
  H   H496      1.0  0.64460  0.52942  0.40971  1.0000
  H   H497      1.0  0.62725  0.40399  0.43462  1.0000
  Fe  Fe62      1.0  0.02177  0.58262  0.42389  1.0000
  H   H498      1.0  0.99114  0.40571  0.11052  1.0000
  H   H499      1.0  0.85444  0.52641  0.45845  1.0000
  Fe  Fe63      1.0  0.81353  0.40735  0.38930  1.0000
  H   H500      1.0  0.01837  0.47584  0.36537  1.0000
  H   H501      1.0  0.76592  0.40807  0.23602  1.0000
  N   N32       1.0  0.63416  0.49112  0.42983  1.0000
  S   S123      1.0  0.71396  0.42356  0.44750  1.0000
  H   H502      1.0  0.57343  0.46909  0.41790  1.0000
  Fe  Fe64      1.0  0.77282  0.44883  0.43209  1.0000
  S   S124      1.0  0.78011  0.48979  0.45053  1.0000
  H   H503      1.0  0.62035  0.48700  0.48044  1.0000
  S   S125      1.0  0.82642  0.41815  0.44073  1.0000
  C   C317      1.0  0.84524  0.52599  0.43325  1.0000
  C   C318      1.0  0.59570  0.41015  0.42336  1.0000
  H   H504      1.0  0.85177  0.38442  0.49369  1.0000
  C   C319      1.0  0.71219  0.39934  0.28784  1.0000
  Fe  Fe65      1.0  0.76657  0.39170  0.45122  1.0000
  C   C320      1.0  0.05558  0.60206  0.49895  1.0000
  H   H505      1.0  0.90940  0.39105  0.24331  1.0000
  H   H506      1.0  0.74029  0.41359  0.29280  1.0000
  S   S126      1.0  0.82136  0.38867  0.13898  1.0000
  H   H507      1.0  0.67768  0.47795  0.46836  1.0000
  H   H508      1.0  0.01550  0.41863  0.07440  1.0000
  Fe  Fe66      1.0  0.05620  0.55622  0.36313  1.0000
  H   H509      1.0  0.68131  0.41064  0.28028  1.0000
  S   S127      1.0  0.91453  0.38518  0.06922  1.0000
  C   C321      1.0  0.86919  0.39174  0.04271  1.0000
  H   H510      1.0  0.59108  0.39510  0.92619  1.0000
  C   C322      1.0  0.79798  0.40059  0.99851  1.0000
  H   H511      1.0  0.95156  0.62083  0.80926  1.0000
  H   H512      1.0  0.65514  0.40592  0.88891  1.0000
  H   H513      1.0  0.00323  0.61418  0.83149  1.0000
  S   S128      1.0  0.05980  0.52287  0.87273  1.0000
  H   H514      1.0  0.62020  0.45634  0.03223  1.0000
  H   H515      1.0  0.65832  0.41949  0.95973  1.0000
  H   H516      1.0  0.70149  0.45361  0.01304  1.0000
  S   S129      1.0  0.02601  0.61110  0.99053  1.0000
  C   C323      1.0  0.61102  0.46531  0.00869  1.0000
  Fe  Fe67      1.0  0.82615  0.41235  0.85947  1.0000
  H   H517      1.0  0.00428  0.61402  0.78839  1.0000
  C   C324      1.0  0.77537  0.39312  0.58252  1.0000
  H   H518      1.0  0.00751  0.54356  0.81304  1.0000
  H   H519      1.0  0.93846  0.55252  0.77903  1.0000
  S   S130      1.0  0.80034  0.44962  0.83714  1.0000
  H   H520      1.0  0.90912  0.58530  0.83688  1.0000
  Fe  Fe68      1.0  0.77635  0.42132  0.92255  1.0000
  S   S131      1.0  0.74663  0.45921  0.90593  1.0000
  N   N33       1.0  0.97188  0.58037  0.80979  1.0000
  Fe  Fe69      1.0  0.73266  0.43834  0.85985  1.0000
  S   S132      1.0  0.66265  0.44412  0.83791  1.0000
  Fe  Fe70      1.0  0.81666  0.46709  0.88528  1.0000
  S   S133      1.0  0.84619  0.50701  0.89426  1.0000
  H   H521      1.0  0.03762  0.56850  0.79082  1.0000
  S   S134      1.0  0.84800  0.43075  0.90592  1.0000
  H   H522      1.0  0.64976  0.41712  0.00223  1.0000
  H   H523      1.0  0.64927  0.46076  0.93157  1.0000
  H   H524      1.0  0.90996  0.41687  0.01226  1.0000
  H   H525      1.0  0.69452  0.48432  0.99228  1.0000
  H   H526      1.0  0.78001  0.41490  0.64137  1.0000
  H   H527      1.0  0.93320  0.55303  0.83863  1.0000
  C   C325      1.0  0.98318  0.60857  0.80976  1.0000
  H   H528      1.0  0.59136  0.46377  0.94603  1.0000
  H   H529      1.0  0.60096  0.42112  0.97604  1.0000
  H   H530      1.0  0.61332  0.48692  0.01134  1.0000
  H   H531      1.0  0.63198  0.48971  0.95260  1.0000
  C   C326      1.0  0.62796  0.46809  0.95194  1.0000
  C   C327      1.0  0.79034  0.38483  0.02556  1.0000
  C   C328      1.0  0.00117  0.51713  0.88057  1.0000
  C   C329      1.0  0.97852  0.49610  0.86590  1.0000
  C   C330      1.0  0.93103  0.49232  0.87072  1.0000
  C   C331      1.0  0.90609  0.50985  0.88981  1.0000
  C   C332      1.0  0.92892  0.53068  0.90468  1.0000
  C   C333      1.0  0.97645  0.53411  0.90043  1.0000
  H   H532      1.0  0.99755  0.48286  0.85059  1.0000
  H   H533      1.0  0.91349  0.47622  0.85915  1.0000
  H   H534      1.0  0.90978  0.54412  0.91969  1.0000
  H   H535      1.0  0.99377  0.55001  0.91244  1.0000
  C   C334      1.0  0.57741  0.45145  0.86456  1.0000
  C   C335      1.0  0.94749  0.57368  0.77975  1.0000
  C   C336      1.0  0.87666  0.40782  0.01593  1.0000
  N   N34       1.0  0.64156  0.45586  0.98273  1.0000
  S   S135      1.0  0.75401  0.40422  0.97001  1.0000
  S   S136      1.0  0.75711  0.39952  0.87788  1.0000
  C   C337      1.0  0.63735  0.42715  0.98011  1.0000
  H   H536      1.0  0.71367  0.45586  0.97111  1.0000
  H   H537      1.0  0.91493  0.58498  0.77734  1.0000
  S   S137      1.0  0.04440  0.59781  0.89710  1.0000
  C   C338      1.0  0.84095  0.41239  0.99397  1.0000
  H   H538      1.0  0.76499  0.38602  0.66355  1.0000
  C   C339      1.0  0.76162  0.39586  0.63974  1.0000
  C   C340      1.0  0.62366  0.41717  0.88821  1.0000
  C   C341      1.0  0.01478  0.56493  0.81189  1.0000
  H   H539      1.0  0.84673  0.42516  0.97369  1.0000
  H   H540      1.0  0.03474  0.56991  0.83384  1.0000
  H   H541      1.0  0.95931  0.57914  0.86076  1.0000
  C   C342      1.0  0.94206  0.57423  0.83769  1.0000
  C   C343      1.0  0.61858  0.43725  0.86564  1.0000
  H   H542      1.0  0.96912  0.57806  0.75820  1.0000
  C   C344      1.0  0.68980  0.46281  0.99019  1.0000
  C   C345      1.0  0.58744  0.41112  0.90937  1.0000
  H   H543      1.0  0.85023  0.39293  0.62010  1.0000
  H   H544      1.0  0.72440  0.39997  0.63596  1.0000
  H   H545      1.0  0.57337  0.40931  0.76725  1.0000
  H   H546      1.0  0.79361  0.41225  0.58235  1.0000
  H   H547      1.0  0.57432  0.46036  0.00368  1.0000
  H   H548      1.0  0.79167  0.39569  0.80117  1.0000
  H   H549      1.0  0.57350  0.46715  0.84729  1.0000
  S   S138      1.0  0.87455  0.38362  0.83647  1.0000
  H   H550      1.0  0.73853  0.39670  0.57667  1.0000
  H   H551      1.0  0.58076  0.41749  0.80870  1.0000
  C   C346      1.0  0.56746  0.40216  0.79220  1.0000
  H   H552      1.0  0.00571  0.63278  0.05220  1.0000
  H   H553      1.0  0.58907  0.38446  0.79586  1.0000
  C   C347      1.0  0.95579  0.65022  0.49842  1.0000
  H   H554      1.0  0.69893  0.85873  0.40601  1.0000
  H   H555      1.0  0.95622  0.66540  0.47922  1.0000
  H   H556      1.0  0.06478  0.70825  0.24864  1.0000
  Fe  Fe71      1.0  0.98866  0.73425  0.15470  1.0000
  S   S139      1.0  0.91159  0.73568  0.15741  1.0000
  Fe  Fe72      1.0  0.77741  0.84953  0.22990  1.0000
  C   C348      1.0  0.94617  0.69883  0.24221  1.0000
  S   S140      1.0  0.84887  0.83402  0.23754  1.0000
  Fe  Fe73      1.0  0.67338  0.84480  0.23102  1.0000
  H   H557      1.0  0.77637  0.81828  0.08822  1.0000
  S   S141      1.0  0.61107  0.81919  0.23558  1.0000
  C   C349      1.0  0.61388  0.86570  0.38024  1.0000
  H   H558      1.0  0.58985  0.86607  0.35942  1.0000
  C   C350      1.0  0.57872  0.85543  0.27853  1.0000
  H   H559      1.0  0.69781  0.83388  0.55891  1.0000
  S   S142      1.0  0.72600  0.83831  0.19221  1.0000
  S   S143      1.0  0.72548  0.85148  0.26981  1.0000
  H   H560      1.0  0.91698  0.71294  0.24307  1.0000
  S   S144      1.0  0.84531  0.83768  0.53165  1.0000
  H   H561      1.0  0.86484  0.75549  0.08973  1.0000
  S   S145      1.0  0.03883  0.74091  0.19480  1.0000
  H   H562      1.0  0.04000  0.70057  0.30494  1.0000
  C   C351      1.0  0.90943  0.67454  0.19974  1.0000
  H   H563      1.0  0.98735  0.65259  0.25438  1.0000
  N   N35       1.0  0.93078  0.67261  0.23190  1.0000
  H   H564      1.0  0.96217  0.69822  0.26651  1.0000
  H   H565      1.0  0.01551  0.87280  0.37561  1.0000
  N   N36       1.0  0.94733  0.66174  0.53047  1.0000
  H   H566      1.0  0.92953  0.83168  0.12368  1.0000
  S   S146      1.0  0.02308  0.69799  0.13690  1.0000
  C   C352      1.0  0.89349  0.76304  0.17935  1.0000
  C   C353      1.0  0.92587  0.77850  0.19523  1.0000
  C   C354      1.0  0.91151  0.79982  0.21369  1.0000
  C   C355      1.0  0.86481  0.80633  0.21552  1.0000
  C   C356      1.0  0.83231  0.79126  0.19906  1.0000
  C   C357      1.0  0.84665  0.76944  0.18117  1.0000
  H   H567      1.0  0.96204  0.77404  0.19356  1.0000
  H   H568      1.0  0.93676  0.81145  0.22638  1.0000
  H   H569      1.0  0.79615  0.79613  0.20054  1.0000
  H   H570      1.0  0.82143  0.75754  0.16886  1.0000
  C   C358      1.0  0.77533  0.83939  0.08670  1.0000
  H   H571      1.0  0.88410  0.82378  0.15142  1.0000
  H   H572      1.0  0.89665  0.65524  0.19129  1.0000
  C   C359      1.0  0.93120  0.86599  0.17221  1.0000
  C   C360      1.0  0.74692  0.85361  0.10771  1.0000
  H   H573      1.0  0.72561  0.84337  0.12489  1.0000
  H   H574      1.0  0.71338  0.87890  0.34033  1.0000
  H   H575      1.0  0.99758  0.66212  0.21338  1.0000
  H   H576      1.0  0.91199  0.66067  0.27980  1.0000
  C   C361      1.0  0.56870  0.83332  0.26008  1.0000
  C   C362      1.0  0.90248  0.67539  0.53044  1.0000
  H   H577      1.0  0.75151  0.85117  0.55781  1.0000
  H   H578      1.0  0.88532  0.88302  0.10005  1.0000
  S   S147      1.0  0.02430  0.76091  0.12020  1.0000
  C   C363      1.0  0.67963  0.86931  0.34488  1.0000
  H   H579      1.0  0.88447  0.64253  0.24833  1.0000
  C   C364      1.0  0.94663  0.64077  0.55499  1.0000
  S   S148      1.0  0.79013  0.87755  0.46078  1.0000
  H   H580      1.0  0.02486  0.67538  0.07676  1.0000
  H   H581      1.0  0.93343  0.78240  0.09854  1.0000
  H   H582      1.0  0.92107  0.85287  0.19241  1.0000
  C   C365      1.0  0.89680  0.66235  0.25528  1.0000
  Fe  Fe74      1.0  0.83005  0.87547  0.50674  1.0000
  H   H583      1.0  0.98955  0.64008  0.49756  1.0000
  H   H584      1.0  0.82531  0.87234  0.13888  1.0000
  H   H585      1.0  0.97207  0.70699  0.22524  1.0000
  H   H586      1.0  0.96058  0.63489  0.22231  1.0000
  C   C366      1.0  0.98441  0.68055  0.53806  1.0000
  H   H587      1.0  0.83921  0.85832  0.17695  1.0000
  H   H588      1.0  0.96609  0.85993  0.16396  1.0000
  H   H589      1.0  0.86616  0.67535  0.25707  1.0000
  H   H590      1.0  0.01868  0.67085  0.53886  1.0000
  H   H591      1.0  0.62153  0.84484  0.38564  1.0000
  H   H592      1.0  0.68634  0.84804  0.34793  1.0000
  H   H593      1.0  0.93445  0.68192  0.18150  1.0000
  H   H594      1.0  0.98651  0.69647  0.51987  1.0000
  C   C367      1.0  0.74605  0.88095  0.10627  1.0000
  H   H595      1.0  0.87035  0.83669  0.11252  1.0000
  C   C368      1.0  0.89529  0.83805  0.13274  1.0000
  H   H596      1.0  0.61307  0.86350  0.27822  1.0000
  C   C369      1.0  0.85144  0.87227  0.15825  1.0000
  C   C370      1.0  0.93493  0.78671  0.07229  1.0000
  H   H597      1.0  0.65871  0.87194  0.32280  1.0000
  C   C371      1.0  0.97078  0.65479  0.23040  1.0000
  H   H598      1.0  0.87981  0.68838  0.19974  1.0000
  H   H599      1.0  0.87373  0.66176  0.52481  1.0000
  H   H600      1.0  0.94155  0.73506  0.08458  1.0000
  N   N37       1.0  0.89726  0.86488  0.14581  1.0000
  H   H601      1.0  0.90190  0.69149  0.51241  1.0000
  H   H602      1.0  0.89494  0.68422  0.55435  1.0000
  N   N38       1.0  0.65643  0.88059  0.37328  1.0000
  H   H603      1.0  0.97161  0.79022  0.06564  1.0000
  H   H604      1.0  0.02797  0.86981  0.55955  1.0000
  H   H605      1.0  0.94502  0.87814  0.10959  1.0000
  H   H606      1.0  0.69876  0.86825  0.54963  1.0000
  H   H607      1.0  0.91595  0.80528  0.06802  1.0000
  H   H608      1.0  0.58990  0.87371  0.16807  1.0000
  Fe  Fe75      1.0  0.71882  0.88140  0.18399  1.0000
  S   S149      1.0  0.04167  0.65531  0.34507  1.0000
  C   C372      1.0  0.05493  0.68478  0.29112  1.0000
  H   H609      1.0  0.97879  0.68982  0.56193  1.0000
  C   C373      1.0  0.05987  0.66003  0.30520  1.0000
  C   C374      1.0  0.68774  0.87915  0.40118  1.0000
  Fe  Fe76      1.0  0.06299  0.72519  0.10503  1.0000
  H   H610      1.0  0.92905  0.63549  0.49208  1.0000
  H   H611      1.0  0.59519  0.87397  0.40132  1.0000
  H   H612      1.0  0.85859  0.88253  0.33386  1.0000
  C   C375      1.0  0.91083  0.88324  0.12000  1.0000
  C   C376      1.0  0.80258  0.85250  0.06402  1.0000
  C   C377      1.0  0.86682  0.76071  0.06370  1.0000
  S   S150      1.0  0.03084  0.64870  0.62355  1.0000
  C   C378      1.0  0.03407  0.67177  0.05212  1.0000
  C   C379      1.0  0.85630  0.84228  0.57259  1.0000
  H   H613      1.0  0.85827  0.80772  0.64242  1.0000
  Fe  Fe77      1.0  0.99527  0.68648  0.63400  1.0000
  S   S151      1.0  0.92246  0.69454  0.61904  1.0000
  N   N39       1.0  0.60044  0.80814  0.81634  1.0000
  C   C380      1.0  0.83899  0.72342  0.70465  1.0000
  Fe  Fe78      1.0  0.71289  0.81382  0.70076  1.0000
  H   H614      1.0  0.76989  0.88335  0.60059  1.0000
  S   S152      1.0  0.64905  0.81379  0.67035  1.0000
  H   H615      1.0  0.97885  0.74366  0.05164  1.0000
  H   H616      1.0  0.84290  0.72759  0.62294  1.0000
  S   S153      1.0  0.77897  0.79736  0.68172  1.0000
  C   C381      1.0  0.60203  0.82546  0.69260  1.0000
  H   H617      1.0  0.61087  0.79993  0.76607  1.0000
  C   C382      1.0  0.85984  0.82438  0.62656  1.0000
  H   H618      1.0  0.79889  0.74438  0.66965  1.0000
  H   H619      1.0  0.95991  0.73782  0.69551  1.0000
  C   C383      1.0  0.96625  0.75292  0.67672  1.0000
  H   H620      1.0  0.02434  0.78398  0.70917  1.0000
  C   C384      1.0  0.88806  0.70379  0.65176  1.0000
  C   C385      1.0  0.89869  0.69532  0.68284  1.0000
  C   C386      1.0  0.58509  0.79666  0.78556  1.0000
  C   C387      1.0  0.60901  0.84357  0.71721  1.0000
  C   C388      1.0  0.82709  0.73104  0.67345  1.0000
  C   C389      1.0  0.85158  0.72121  0.64700  1.0000
  C   C390      1.0  0.87411  0.70510  0.70926  1.0000
  S   S154      1.0  0.74507  0.85014  0.72075  1.0000
  H   H621      1.0  0.98091  0.80489  0.72639  1.0000
  H   H622      1.0  0.88410  0.77563  0.68016  1.0000
  H   H623      1.0  0.90133  0.75613  0.00377  1.0000
  S   S155      1.0  0.81239  0.73760  0.73825  1.0000
  H   H624      1.0  0.65565  0.86505  0.63416  1.0000
  C   C391      1.0  0.66040  0.86052  0.60815  1.0000
  H   H625      1.0  0.93986  0.64877  0.57944  1.0000
  H   H626      1.0  0.57725  0.86626  0.75468  1.0000
  H   H627      1.0  0.94291  0.79460  0.64185  1.0000
  S   S156      1.0  0.86793  0.85432  0.68074  1.0000
  C   C392      1.0  0.64282  0.79485  0.82721  1.0000
  C   C393      1.0  0.85570  0.82074  0.59332  1.0000
  H   H628      1.0  0.94402  0.74811  0.65578  1.0000
  C   C394      1.0  0.90822  0.78094  0.69980  1.0000
  H   H629      1.0  0.98223  0.77068  0.73628  1.0000
  C   C395      1.0  0.85969  0.86971  0.83631  1.0000
  H   H630      1.0  0.72961  0.84229  0.64491  1.0000
  H   H631      1.0  0.89925  0.80102  0.70788  1.0000
  H   H632      1.0  0.92586  0.68125  0.68657  1.0000
  S   S157      1.0  0.04992  0.71127  0.61141  1.0000
  N   N40       1.0  0.95667  0.77942  0.68903  1.0000
  C   C396      1.0  0.86540  0.84951  0.63910  1.0000
  H   H633      1.0  0.92840  0.72429  0.04458  1.0000
  Fe  Fe79      1.0  0.81190  0.83165  0.70581  1.0000
  H   H634      1.0  0.00263  0.75096  0.66865  1.0000
  C   C397      1.0  0.96478  0.79876  0.66318  1.0000
  C   C398      1.0  0.98742  0.78504  0.71644  1.0000
  Fe  Fe80      1.0  0.78495  0.77806  0.72987  1.0000
  H   H635      1.0  0.64305  0.85122  0.72176  1.0000
  H   H636      1.0  0.82306  0.85817  0.79365  1.0000
  H   H637      1.0  0.63565  0.83965  0.79232  1.0000
  C   C399      1.0  0.94210  0.74098  0.05878  1.0000
  S   S158      1.0  0.93640  0.85486  0.97437  1.0000
  C   C400      1.0  0.86339  0.86738  0.58499  1.0000
  C   C401      1.0  0.86810  0.87097  0.61826  1.0000
  H   H638      1.0  0.88295  0.69887  0.73335  1.0000
  H   H639      1.0  0.06353  0.66860  0.73978  1.0000
  H   H640      1.0  0.57798  0.84717  0.80549  1.0000
  H   H641      1.0  0.71481  0.81875  0.61479  1.0000
  N   N41       1.0  0.91500  0.76507  0.05338  1.0000
  S   S159      1.0  0.73358  0.84078  0.81521  1.0000
  C   C402      1.0  0.78126  0.85333  0.83608  1.0000
  Fe  Fe81      1.0  0.75309  0.82639  0.76586  1.0000
  Fe  Fe82      1.0  0.06435  0.65456  0.67167  1.0000
  H   H642      1.0  0.95201  0.77557  0.01037  1.0000
  H   H643      1.0  0.64243  0.84160  0.60384  1.0000
  C   C403      1.0  0.05743  0.69082  0.03427  1.0000
  C   C404      1.0  0.60991  0.83630  0.81183  1.0000
  H   H644      1.0  0.89075  0.87484  0.82332  1.0000
  H   H645      1.0  0.63706  0.77360  0.83124  1.0000
  H   H646      1.0  0.62434  0.84529  0.83399  1.0000
  S   S160      1.0  0.82307  0.81120  0.75284  1.0000
  H   H647      1.0  0.85043  0.80129  0.58375  1.0000
  H   H648      1.0  0.57942  0.77523  0.78766  1.0000
  C   C405      1.0  0.05784  0.66170  0.98807  1.0000
  Fe  Fe83      1.0  0.87930  0.86406  0.00896  1.0000
  S   S161      1.0  0.71560  0.79131  0.74692  1.0000
  C   C406      1.0  0.73171  0.83803  0.61872  1.0000
  C   C407      1.0  0.57179  0.85192  0.73603  1.0000
  C   C408      1.0  0.85798  0.87246  0.86979  1.0000
  C   C409      1.0  0.03579  0.64238  0.00629  1.0000
  H   H649      1.0  0.65616  0.80348  0.84993  1.0000
  H   H650      1.0  0.64245  0.87590  0.59399  1.0000
  H   H651      1.0  0.74808  0.85137  0.88244  1.0000
  H   H652      1.0  0.85051  0.74457  0.04991  1.0000
  C   C410      1.0  0.82148  0.86011  0.81950  1.0000
  H   H653      1.0  0.95645  0.81896  0.67136  1.0000
  S   S162      1.0  0.84116  0.83501  0.03961  1.0000
  C   C411      1.0  0.91612  0.77199  0.01884  1.0000
  N   N42       1.0  0.70976  0.85888  0.59955  1.0000
  H   H654      1.0  0.81603  0.86812  0.91225  1.0000
  H   H655      1.0  0.00136  0.79850  0.65507  1.0000
  C   C412      1.0  0.80057  0.87978  0.06200  1.0000
  H   H656      1.0  0.67089  0.79686  0.80913  1.0000
  H   H657      1.0  0.90118  0.76731  0.72018  1.0000
  C   C413      1.0  0.77918  0.85653  0.86954  1.0000
  H   H658      1.0  0.89593  0.79010  0.01395  1.0000
  C   C414      1.0  0.02315  0.64763  0.03813  1.0000
  S   S163      1.0  0.02338  0.69036  0.68380  1.0000
  C   C415      1.0  0.81762  0.86597  0.88643  1.0000
  H   H659      1.0  0.57413  0.81345  0.86422  1.0000
  H   H660      1.0  0.76864  0.83588  0.61246  1.0000
  H   H661      1.0  0.84550  0.77859  0.06001  1.0000
  S   S164      1.0  0.04726  0.88177  0.01431  1.0000
  H   H662      1.0  0.96592  0.87617  0.60050  1.0000
  C   C416      1.0  0.71459  0.85281  0.56495  1.0000
  H   H663      1.0  0.94255  0.92357  0.55901  1.0000
  H   H664      1.0  0.67804  0.12712  0.09945  1.0000
  S   S165      1.0  0.71772  0.92437  0.29382  1.0000
  H   H665      1.0  0.64800  0.03629  0.51049  1.0000
  C   C417      1.0  0.57681  0.12814  0.07812  1.0000
  C   C418      1.0  0.70974  0.12331  0.08501  1.0000
  H   H666      1.0  0.01512  0.88694  0.43208  1.0000
  C   C419      1.0  0.79825  0.90167  0.31493  1.0000
  H   H667      1.0  0.98747  0.91928  0.52986  1.0000
  H   H668      1.0  0.91275  0.90370  0.12896  1.0000
  H   H669      1.0  0.61730  0.01168  0.28001  1.0000
  H   H670      1.0  0.80017  0.94255  0.39338  1.0000
  C   C420      1.0  0.64732  0.97998  0.41009  1.0000
  H   H671      1.0  0.74048  0.95075  0.35180  1.0000
  C   C421      1.0  0.83278  0.89741  0.33796  1.0000
  C   C422      1.0  0.76591  0.93569  0.34825  1.0000
  C   C423      1.0  0.83292  0.91170  0.36667  1.0000
  S   S166      1.0  0.87434  0.90511  0.39634  1.0000
  N   N43       1.0  0.62404  0.04895  0.30343  1.0000
  S   S167      1.0  0.71504  0.89929  0.13459  1.0000
  C   C424      1.0  0.76444  0.92068  0.32027  1.0000
  H   H672      1.0  0.72634  0.10545  0.09486  1.0000
  H   H673      1.0  0.68690  0.03174  0.54342  1.0000
  C   C425      1.0  0.97119  0.91041  0.55158  1.0000
  H   H674      1.0  0.04349  0.98104  0.52518  1.0000
  H   H675      1.0  0.62149  0.91006  0.34553  1.0000
  H   H676      1.0  0.72964  0.93542  0.42797  1.0000
  S   S168      1.0  0.56833  0.02728  0.46426  1.0000
  H   H677      1.0  0.06119  0.89752  0.54623  1.0000
  H   H678      1.0  0.96487  0.93951  0.38252  1.0000
  H   H679      1.0  0.67190  0.02358  0.45518  1.0000
  C   C426      1.0  0.00343  0.89267  0.36876  1.0000
  H   H680      1.0  0.65101  0.06711  0.26056  1.0000
  H   H681      1.0  0.70963  0.97492  0.48988  1.0000
  C   C427      1.0  0.57730  0.09441  0.54231  1.0000
  H   H682      1.0  0.60362  0.08391  0.27861  1.0000
  H   H683      1.0  0.62692  0.91738  0.38768  1.0000
  C   C428      1.0  0.79956  0.93097  0.37169  1.0000
  H   H684      1.0  0.78010  0.00155  0.49437  1.0000
  C   C429      1.0  0.65734  0.06250  0.32447  1.0000
  C   C430      1.0  0.61210  0.97070  0.43014  1.0000
  H   H685      1.0  0.67543  0.02364  0.28294  1.0000
  S   S169      1.0  0.66249  0.88722  0.22016  1.0000
  H   H686      1.0  0.01533  0.89659  0.34374  1.0000
  S   S170      1.0  0.77479  0.89232  0.21846  1.0000
  C   C431      1.0  0.75965  0.01606  0.50837  1.0000
  H   H687      1.0  0.71685  0.97442  0.39399  1.0000
  H   H688      1.0  0.67078  0.88653  0.42336  1.0000
  H   H689      1.0  0.72696  0.00877  0.44850  1.0000
  C   C432      1.0  0.64453  0.90819  0.36676  1.0000
  S   S171      1.0  0.80444  0.94173  0.46545  1.0000
  H   H690      1.0  0.65397  0.98953  0.49518  1.0000
  S   S172      1.0  0.64091  0.00910  0.38857  1.0000
  C   C433      1.0  0.61781  0.06416  0.27350  1.0000
  H   H691      1.0  0.01692  0.92101  0.44190  1.0000
  H   H692      1.0  0.80004  0.12317  0.07110  1.0000
  H   H693      1.0  0.69128  0.06506  0.31239  1.0000
  C   C434      1.0  0.00323  0.93866  0.38133  1.0000
  H   H694      1.0  0.57868  0.97998  0.43001  1.0000
  C   C435      1.0  0.68951  0.96706  0.40918  1.0000
  Fe  Fe84      1.0  0.84288  0.90724  0.44573  1.0000
  N   N44       1.0  0.02054  0.91273  0.39132  1.0000
  S   S173      1.0  0.06093  0.96873  0.45787  1.0000
  H   H695      1.0  0.77270  0.91508  0.08225  1.0000
  H   H696      1.0  0.79768  0.89008  0.29323  1.0000
  C   C436      1.0  0.66384  0.93787  0.45149  1.0000
  Fe  Fe85      1.0  0.58668  0.03309  0.41261  1.0000
  H   H697      1.0  0.96547  0.90716  0.42540  1.0000
  S   S174      1.0  0.88641  0.90179  0.48962  1.0000
  C   C437      1.0  0.69735  0.94563  0.42930  1.0000
  C   C438      1.0  0.77253  0.89396  0.08313  1.0000
  H   H698      1.0  0.58273  0.03492  0.34270  1.0000
  C   C439      1.0  0.69046  0.99022  0.50337  1.0000
  Fe  Fe86      1.0  0.71937  0.89356  0.25565  1.0000
  H   H699      1.0  0.71941  0.89108  0.39716  1.0000
  Fe  Fe87      1.0  0.75478  0.91148  0.48394  1.0000
  H   H700      1.0  0.97081  0.98082  0.55696  1.0000
  H   H701      1.0  0.59404  0.94348  0.46783  1.0000
  Fe  Fe88      1.0  0.84301  0.93366  0.51078  1.0000
  C   C440      1.0  0.64168  0.02260  0.29562  1.0000
  S   S175      1.0  0.87871  0.96471  0.53905  1.0000
  C   C441      1.0  0.97009  0.97698  0.53141  1.0000
  C   C442      1.0  0.57932  0.04656  0.32025  1.0000
  C   C443      1.0  0.70821  0.02320  0.46367  1.0000
  H   H702      1.0  0.64687  0.01069  0.31781  1.0000
  S   S176      1.0  0.78975  0.90686  0.53153  1.0000
  C   C444      1.0  0.92841  0.97085  0.51640  1.0000
  C   C445      1.0  0.92740  0.96652  0.48328  1.0000
  C   C446      1.0  0.01120  0.97694  0.51349  1.0000
  C   C447      1.0  0.01019  0.97168  0.48046  1.0000
  C   C448      1.0  0.62050  0.94974  0.45112  1.0000
  C   C449      1.0  0.96801  0.96737  0.46529  1.0000
  H   H703      1.0  0.67577  0.92002  0.36145  1.0000
  S   S177      1.0  0.60757  0.09014  0.50613  1.0000
  S   S178      1.0  0.59237  0.07647  0.41630  1.0000
  H   H704      1.0  0.96659  0.96391  0.43973  1.0000
  H   H705      1.0  0.64476  0.08220  0.33137  1.0000
  H   H706      1.0  0.77616  0.03551  0.50493  1.0000
  S   S179      1.0  0.67793  0.91533  0.48158  1.0000
  H   H707      1.0  0.89533  0.96222  0.47139  1.0000
  H   H708      1.0  0.85177  0.89214  0.16908  1.0000
  H   H709      1.0  0.69095  0.98455  0.52920  1.0000
  H   H710      1.0  0.76306  0.01071  0.53423  1.0000
  H   H711      1.0  0.69860  0.05606  0.51321  1.0000
  N   N45       1.0  0.71088  0.01636  0.49817  1.0000
  C   C450      1.0  0.68512  0.03592  0.51719  1.0000
  H   H712      1.0  0.66320  0.05144  0.34715  1.0000
  H   H713      1.0  0.72313  0.04285  0.45877  1.0000
  H   H714      1.0  0.95546  0.89147  0.54433  1.0000
  C   C451      1.0  0.00380  0.90666  0.42411  1.0000
  H   H715      1.0  0.01375  0.94345  0.35627  1.0000
  H   H716      1.0  0.01702  0.95443  0.39704  1.0000
  H   H717      1.0  0.59342  0.05437  0.25681  1.0000
  H   H718      1.0  0.77761  0.13281  0.12757  1.0000
  Fe  Fe89      1.0  0.56678  0.07086  0.46679  1.0000
  H   H719      1.0  0.73288  0.95631  0.07149  1.0000
  H   H720      1.0  0.58383  0.11600  0.36951  1.0000
  H   H721      1.0  0.93393  0.88605  0.18232  1.0000
  H   H722      1.0  0.57700  0.08633  0.07160  1.0000
  C   C452      1.0  0.57236  0.12021  0.34544  1.0000
  H   H723      1.0  0.63961  0.13220  0.32896  1.0000
  C   C453      1.0  0.60381  0.12965  0.32253  1.0000
  H   H724      1.0  0.96501  0.89217  0.36840  1.0000
  H   H725      1.0  0.63880  0.97353  0.04587  1.0000
  H   H726      1.0  0.71706  0.90031  0.59234  1.0000
  H   H727      1.0  0.67641  0.97283  0.97876  1.0000
  H   H728      1.0  0.03916  0.92351  0.96763  1.0000
  H   H729      1.0  0.75822  0.93806  0.00442  1.0000
  S   S180      1.0  0.91958  0.89441  0.03533  1.0000
  H   H730      1.0  0.76694  0.97391  0.04261  1.0000
  Fe  Fe90      1.0  0.70540  0.04834  0.92462  1.0000
  S   S181      1.0  0.76844  0.02675  0.90807  1.0000
  C   C454      1.0  0.58608  0.09867  0.82967  1.0000
  C   C455      1.0  0.70007  0.97922  0.99825  1.0000
  S   S182      1.0  0.68324  0.08819  0.90804  1.0000
  H   H731      1.0  0.71734  0.98909  0.06033  1.0000
  Fe  Fe91      1.0  0.88752  0.92213  0.00031  1.0000
  H   H732      1.0  0.05010  0.93060  0.60653  1.0000
  S   S183      1.0  0.85877  0.95999  0.01865  1.0000
  H   H733      1.0  0.65497  0.94079  0.05720  1.0000
  H   H734      1.0  0.94089  0.94008  0.89506  1.0000
  H   H735      1.0  0.92394  0.99864  0.88266  1.0000
  H   H736      1.0  0.82432  0.95542  0.86369  1.0000
  H   H737      1.0  0.87232  0.89044  0.62794  1.0000
  H   H738      1.0  0.94347  0.93058  0.85379  1.0000
  H   H739      1.0  0.85600  0.93741  0.89363  1.0000
  S   S184      1.0  0.94568  0.91896  0.96517  1.0000
  S   S185      1.0  0.66491  0.13058  0.98722  1.0000
  H   H740      1.0  0.59323  0.11974  0.61707  1.0000
  C   C456      1.0  0.94026  0.94781  0.87000  1.0000
  H   H741      1.0  0.89948  0.95561  0.81274  1.0000
  C   C457      1.0  0.89763  0.97212  0.83013  1.0000
  C   C458      1.0  0.89449  0.98497  0.88593  1.0000
  C   C459      1.0  0.59985  0.10573  0.56855  1.0000
  Fe  Fe92      1.0  0.65893  0.09326  0.95909  1.0000
  S   S186      1.0  0.68807  0.05519  0.97646  1.0000
  H   H742      1.0  0.72957  0.88919  0.63249  1.0000
  Fe  Fe93      1.0  0.61414  0.06946  0.90044  1.0000
  H   H743      1.0  0.68761  0.99856  0.00683  1.0000
  C   C460      1.0  0.79208  0.00828  0.93937  1.0000
  C   C461      1.0  0.80187  0.01972  0.96910  1.0000
  C   C462      1.0  0.82270  0.00484  0.99343  1.0000
  C   C463      1.0  0.83386  0.97859  0.98795  1.0000
  C   C464      1.0  0.82340  0.96708  0.95840  1.0000
  C   C465      1.0  0.80210  0.98188  0.93429  1.0000
  H   H744      1.0  0.79419  0.04015  0.97309  1.0000
  H   H745      1.0  0.83064  0.01374  0.01634  1.0000
  H   H746      1.0  0.83130  0.94674  0.95422  1.0000
  H   H747      1.0  0.79296  0.97288  0.91173  1.0000
  C   C466      1.0  0.73102  0.97027  0.05097  1.0000
  N   N46       1.0  0.70200  0.95994  0.02473  1.0000
  H   H748      1.0  0.72255  0.91995  0.03177  1.0000
  H   H749      1.0  0.92760  0.98518  0.82545  1.0000
  H   H750      1.0  0.97137  0.96023  0.86668  1.0000
  N   N47       1.0  0.00489  0.90689  0.57780  1.0000
  H   H751      1.0  0.86578  0.98342  0.82471  1.0000
  H   H752      1.0  0.63609  0.11049  0.56687  1.0000
  C   C467      1.0  0.61724  0.11814  0.83880  1.0000
  C   C468      1.0  0.65492  0.95513  0.03700  1.0000
  H   H753      1.0  0.86222  0.99639  0.88221  1.0000
  H   H754      1.0  0.62124  0.08776  0.02079  1.0000
  H   H755      1.0  0.89490  0.97841  0.91149  1.0000
  H   H756      1.0  0.85877  0.92785  0.85234  1.0000
  N   N48       1.0  0.89743  0.96252  0.86367  1.0000
  S   S187      1.0  0.63825  0.02909  0.91308  1.0000
  C   C469      1.0  0.61234  0.10577  0.03285  1.0000
  H   H757      1.0  0.70200  0.92738  0.99207  1.0000
  C   C470      1.0  0.85731  0.94512  0.86857  1.0000
  H   H758      1.0  0.63076  0.11840  0.86295  1.0000
  S   S188      1.0  0.59003  0.00734  0.99551  1.0000
  Fe  Fe94      1.0  0.61891  0.03898  0.96365  1.0000
  C   C471      1.0  0.72199  0.93523  0.01270  1.0000
  H   H759      1.0  0.73443  0.98231  0.98726  1.0000
  C   C472      1.0  0.58713  0.10499  0.06166  1.0000
  C   C473      1.0  0.62772  0.12972  0.02055  1.0000
  H   H760      1.0  0.99794  0.94656  0.59416  1.0000
  S   S189      1.0  0.58803  0.07764  0.95018  1.0000
  H   H761      1.0  0.63203  0.94740  0.01779  1.0000
  C   C474      1.0  0.02497  0.93248  0.58647  1.0000
  H   H762      1.0  0.82125  0.89015  0.04460  1.0000
  S   S190      1.0  0.84327  0.89222  0.97607  1.0000
  C   C475      1.0  0.58107  0.11851  0.77644  1.0000
  H   H763      1.0  0.04389  0.94137  0.56582  1.0000
  H   H764      1.0  0.95320  0.90846  0.61484  1.0000
  H   H765      1.0  0.69868  0.11870  0.06010  1.0000
  H   H766      1.0  0.00583  0.89270  0.62650  1.0000
  Fe  Fe95      1.0  0.97392  0.88798  0.99800  1.0000
  C   C476      1.0  0.98145  0.89553  0.60617  1.0000
  C   C477      1.0  0.57555  0.11117  0.59692  1.0000
  C   C478      1.0  0.73251  0.88409  0.60654  1.0000
  C   C479      1.0  0.04192  0.88912  0.56701  1.0000
  Fe  Fe96      1.0  0.90448  0.88622  0.94380  1.0000
  H   H767      1.0  0.86470  0.88405  0.56903  1.0000
  S   S191      1.0  0.90642  0.88497  0.88977  1.0000
  S   S192      1.0  0.56806  0.07449  0.85721  1.0000
  C   C480      1.0  0.56791  0.09896  0.79845  1.0000
  H   H768      1.0  0.56736  0.11836  0.75230  1.0000
