data_image0
_chemical_formula_structural       H4FeHCHCNHCH4SC4NHCHCH3SCSCH3C2HCH2SFeH3CH2C2HC2HCSFeSCFeSHFeC2HC2H3CH2C2SH4NH4CSHCHC2HCHCH6S2C3SHFeSHFeS2FeSFeS4H2FeSHNH3SC6H5SC4HNH3CHCHCNC3HNHCHCHCHCNH3CH9CH6C2H3CH8C2NSHC2HCH4CHCFeS2FeS2FeSFeS3NHCH2C8H3C5H2C2HC3H4C3H3CH3CH2C2H2SH3CHCFeH3CHC2H4C2H5C3H2C2H4CHCH4CSCHSH2FeSHCSCHCHSH6NC4H2CFeH2CHSHCH2NH4FeH2S2CH2CH2CFeS2FeCHSC2FeH5CH2FeC5SHFeH3SHCSCSC2H2CH4SCHCHSHSH3SCH2C2HC2HCSC2NHCHCHFeH2FeHC2HCH2SCFeNSCNH2FeH2FeCH3SCHSC2H3FeSNFeS2FeHFeS3CSH2CSH3C6H6C3H8C2H3SH3CHSHCH3C4FeC4H4CH4C5H3CNHCHCH10FeSCFeS2FeSFeS3HSC4H2C2H2NC6H4CH7NCNH3CNC2H2CH10CH2SFeSH3C3H2C3H2CSH2SHCFeH3CHCH2SH3FeCSHC2H2SHNFeHSHSC7H7NC3H2C2H4CHNHCH5CHSHCH3CFeSH5CH2SHSNH2CS2HSCH6CHCHCFeCH2CH2FeSFeSCH2CH2C2H3CH2CHC2SC2H4SC2HC2H2C2HC2HFeSCNHCHCNH3FeHSH5SH2SH2NHS2H3NFeHFeHCH5C6H4SCHC2H2CHC3HC2H10FeSCFeS2FeSFeS4HCFe2SFeSHSH3FeS2H4CSH4C2HFeH7CH6C6H7CH4C6H5SH2NH3NCHNHNH2SCH2C2H3NH2CH2CHSCHC6H5C5SCHCH2FeH2SCFe2H5NCSCSHC3H2C3HCH3CH3SCH3CH4C4H4CNH2C2HCH7NH3C2FeSHFeS2FeSFeS3NHFeS2HCH3NHFeS2FeSCS2H3C3HC2H4FeH3C6H4C6H9C3H2CHC4H4NHFeH2CHFeS3HS2H2FeH3SH2CSH2C5H2C6H5CHCSFeH4C2H2CH2C2SNH5CS2FeSFeSH2FeS2FeS2Fe2S3CSH2C6H6C7H4NC3SHSHCH3CH2FeNC4H12C2H2SHSHSH2C2FeHC2SNHNCH5SC6H4CHFeHCHSH5CHCHSFeHC2SCH3SHSCHCHC2HC2SCH2CHSFeS2C6H4C6H3N2SCHC2HSH4C2HCHNC4H12SHSHS2CFeHCH3S2C2FeSHS2HFeC2FeCFeCH3Fe2C2HCHS2CH2NFe2HSHCH4SH3CSH2CHCHSH4CNHFeCHCHFeH2CH2C2H4CH3C2HFeSFeS2FeSHS2HS2FeSFeSC2H2NHC2HC3NH2C6H5C2H2C4H5C2SH2C3FeH2CHCH4NSH7CH2C2HCH3CFeH2SC2H3CH2CSH4CH2C2HCHSHFeSFeHFeS2FeS2FeSFeS3CNC2H3NC6H4CHC4HCHC5H2CHC5H7CH8CFeC2H2C3HCH2FeHSHCNS2HCNH5CH4CH2NCHSH4CH3SHCH5C2H5C2H4CHCNHC2HCH3SCH3SH2C6H2SC2HC2H3CHC3HFeH4C3NCH2CH4CHCH2CH6NH2FeSHFeS2FeSFeHFeSHFeS2FeS2FeSFeHS3H2NCFeC2H2C6H4FeC6H4C6HC3HFeCH6CHSH3NC4H14FeHNSHSHC2HS2CHCHNSHCH5SHSHCHSHCH2FeCHCSCSH5SCFeHFeSH2FeHFeSHFeS2FeS2FeSFeS3C4H2C6H4C2HNC2HC5H2C3H3CSCHC2H4CH4SC2SHCNH3CH5CH4C2HCH2C2H2CHCSH5C2H2CNHCH3CH4SC2H2CHCHCHNCH7CHNHFeS2FeS2FeSFeS3FeSC2HCSH4C6H4C4HCH2CH2CHCH7SNHCNH3C2H3CH2C3HCHCH3CH3CNC4H11CH4CH2CH2SH2C3HCHCSH4CHC2HCSHCNHSFeS2FeS2FeHFeS3FeS2FeS2FeSFeS3HFeSH2SFe2S2FeHS2C6H4C6SH3C6H5CH2CH8NHCHCHCH4SHSH2CH6NC4H9C3H3C2H2FeC2HCFeC3H4C3HCSFeC2H2CSH3NH2CSH2CNCH2SC4H2CH2NCHSHC2NCH2CNH2FeHNSHCHC2HCHSH2CHSCHSH3CHFeH2C2HCH4CHFeCSFeSFeSFeH2SC2FeHCHCHSH3C2SH3FeC3H2C2FeH4SHSH5CHCH2CH5CH2CNHFeS2FeS2FeHFeS4C2HNCH2C6H3SC6H4SHCH2CHSHSFeCH5CH6CHC2H2CFeH3NC2H4CH4CHCHCH5S2CFeSHSNCFeSHC6H4C4H4CHCHCNHSHCH4CH4CH2CHCH13CH3SH3FeHCH2FeHFeCH3C3FeSCSFeSFeS2FeSFeS2C6H4SC2H3C6H6CH2C2HC4H3NHCHSHCHC2H3CSNHSCH3NHC2H4CHNCH4CH4NH5SHC2H4CHCSHCSFeSFeHSHCFeSFeS2C2H2CHC4H4CSHCH3C7HCFeHSCH2SHSC2SH5CHCHCHNHSCHCHSC3FeHCHNHCH3C3HCNH2FeCSCH2SFeHCHCH4NSH5SHSH4FeHSH2SC3SCHFeSH2FeHSH2C6H9CH4SHCH3CSFeNSCH5SC2SC3H2FeH2S2HSFeS2FeS2FeSFeS3C6H4CH2CHC4H3FeH3C3FeNH2FeH2C2H2S2H2NC4H11CFeCH3C2NSC2H4FeH4NCH2CHCHCH2CHC2H4FeS2FeSHSHNC2H2C3HC4HFeCH2SH7CH3C2SCFeS2FeS2Fe3S3FeS2FeSCFeSFeS3C6H7C6H5C2HCH5NC5H3NCH3CHCHC3HCH3CH2NH5SH3SCH4CH3C2H3SCH2CH3C2H2CNHCH3CH2CSHC2HC2HNCH2CNH3SCH3CH3CH8SC3FeCSCHC2HS2HSCNCHCHSH2SH3FeHCH2CH4CH4C2SHFeS2FeSFeS2H2CHCH2CHC2HC2HC3H4CH4CHC2HCHNH3CH2N2H3FeS2H2CHCH5CHCHCHFeSFeS2FeCS2FeS2FeS2FeSFeHS2HCSCH4SC4H4C6H4C6H7C2HCH3CSC2H4SCHCH2C2HCSCHCHC5HC2H2C3H3NC4H10FeNH2SNCNH2CHCH5CH3NH2CH2CH4C2H6CFeSHFeSHFeSFeS3FeHSNH2C2H2S3FeC6H4SNC4H12CHCNC2H3S2HCHFeCHCHCHCH2SCHSC3SH4C2SCH2FeHC6H2C2H5CH4CNH2SCFeCH2CH7C2H2C3H2CH4NCHC2H2CNCHCHCHCSHC3H3CH3CHNH7CHC2H5FeSFeS2Fe2HS2FeS2FeS2Fe2S3C6H6CSH2SCH2CH6CHCNHCFeSCFeSHFeSFeS2HFeS2FeHFeSHS2HSH3SHNC6H4CH6CH2CHSFeH2CH3CHSCH2C4H6CNCSNCHC4H2CH2CSHC6H2SH10C2HCHCHCFeHFeS2FeS3CHCH2C6H4SNH4C2HCH2C2SH4CNHSCHCHC2H3CH3NCHSHCH3CSNFe2S2FeHFeS2FeSFeH2FeHCHSFeCSHCSHFeHFeS2C2H5CSHC6H3CH3SCHCHFeH6CH4C3HFeSFeHFeS2FeS2HS2FeSCH2CHC6H6C2HC6H3CH3C2H2C2FeNH2C5H4SHC2HCHC2SH5C2SCS2Fe2C2S2CHSCH5CHC2FeN2HCHCNHC2SC3NHSCHCH4SH9CH5CH5CH2CH12CH4FeS2H2FeSFeCSHS2H4C6H4NCSC2H2SHSCH3NSHCHCH3NHCH2CFe2NH2SHCSHSFeSH5FeS2CFeH2SFeSH2SHFeSFeS2H3FeSC6H4C4HCH4C6H2CH3CH5SH3SH2NCH2CH3CH2C2NH4C5SH3FeH5CHCSCHSH2C2H2CHCH2CHFeHCH2CHSH5SHCSC2SH2C2H2NHCH7
_chemical_formula_sum              "H2304 Fe288 C1440 N144 S576"
_cell_length_a       76.7484
_cell_length_b       76.3685
_cell_length_c       62.5577
_cell_angle_alpha    82.1234
_cell_angle_beta     82.0787
_cell_angle_gamma    104.015

_space_group_name_H-M_alt    "P 1"
_space_group_IT_number       1

loop_
  _space_group_symop_operation_xyz
  'x, y, z'

loop_
  _atom_site_type_symbol
  _atom_site_label
  _atom_site_symmetry_multiplicity
  _atom_site_fract_x
  _atom_site_fract_y
  _atom_site_fract_z
  _atom_site_occupancy
  H   H1        1.0  0.06748  0.28827  0.05130  1.0000
  H   H2        1.0  0.01144  0.28549  0.04621  1.0000
  H   H3        1.0  0.09652  0.27386  0.02688  1.0000
  H   H4        1.0  0.19967  0.27410  0.07714  1.0000
  Fe  Fe1       1.0  0.08011  0.30474  0.08485  1.0000
  H   H5        1.0  0.19851  0.28309  0.10228  1.0000
  C   C1        1.0  0.20654  0.28510  0.08548  1.0000
  H   H6        1.0  0.03886  0.29759  0.06208  1.0000
  C   C2        1.0  0.07050  0.29132  0.03310  1.0000
  N   N1        1.0  0.22575  0.28510  0.08602  1.0000
  H   H7        1.0  0.04871  0.24936  0.02410  1.0000
  C   C3        1.0  0.18243  0.32350  0.10436  1.0000
  H   H8        1.0  0.99909  0.27933  0.01329  1.0000
  H   H9        1.0  0.07948  0.26136  0.05008  1.0000
  H   H10       1.0  0.02438  0.24838  0.11031  1.0000
  H   H11       1.0  0.22062  0.25589  0.08822  1.0000
  S   S1        1.0  0.10616  0.30059  0.06728  1.0000
  C   C4        1.0  0.05037  0.26225  0.03091  1.0000
  C   C5        1.0  0.22655  0.26698  0.09703  1.0000
  C   C6        1.0  0.02145  0.25670  0.09651  1.0000
  C   C7        1.0  0.01399  0.27743  0.06040  1.0000
  N   N2        1.0  0.06909  0.27438  0.02382  1.0000
  H   H12       1.0  0.08450  0.30063  0.02834  1.0000
  C   C8        1.0  0.02977  0.28426  0.06923  1.0000
  H   H13       1.0  0.99649  0.23664  0.09506  1.0000
  C   C9        1.0  0.03389  0.27367  0.08699  1.0000
  H   H14       1.0  0.04685  0.25835  0.04913  1.0000
  H   H15       1.0  0.06090  0.29899  0.02742  1.0000
  H   H16       1.0  0.23022  0.27871  0.05360  1.0000
  S   S2        1.0  0.14540  0.31553  0.10436  1.0000
  C   C10       1.0  0.00173  0.26022  0.06963  1.0000
  S   S3        1.0  0.05481  0.28030  0.09701  1.0000
  C   C11       1.0  0.00549  0.25005  0.08798  1.0000
  H   H17       1.0  0.21888  0.26355  0.11418  1.0000
  H   H18       1.0  0.08167  0.25206  0.02520  1.0000
  H   H19       1.0  0.20562  0.29835  0.07639  1.0000
  C   C12       1.0  0.98951  0.28815  0.01229  1.0000
  C   C13       1.0  0.08227  0.26495  0.03182  1.0000
  H   H20       1.0  0.04005  0.26910  0.02555  1.0000
  C   C14       1.0  0.07332  0.27913  0.99961  1.0000
  H   H21       1.0  0.17857  0.31899  0.12192  1.0000
  H   H22       1.0  0.22643  0.29702  0.11526  1.0000
  S   S4        1.0  0.09520  0.32049  0.10793  1.0000
  Fe  Fe2       1.0  0.12139  0.31898  0.08766  1.0000
  H   H23       1.0  0.99772  0.30261  0.00660  1.0000
  H   H24       1.0  0.08747  0.28808  0.99381  1.0000
  H   H25       1.0  0.23396  0.31320  0.09008  1.0000
  C   C15       1.0  0.23399  0.29930  0.09818  1.0000
  H   H26       1.0  0.06397  0.28678  0.99308  1.0000
  H   H27       1.0  0.07214  0.26669  0.99193  1.0000
  C   C16       1.0  0.16871  0.32325  0.09149  1.0000
  C   C17       1.0  0.23605  0.28910  0.06335  1.0000
  H   H28       1.0  0.23576  0.30278  0.05466  1.0000
  C   C18       1.0  0.05119  0.28925  0.81867  1.0000
  C   C19       1.0  0.00336  0.22363  0.86525  1.0000
  H   H29       1.0  0.03235  0.22692  0.86068  1.0000
  C   C20       1.0  0.02133  0.23246  0.86687  1.0000
  S   S5        1.0  0.08950  0.30310  0.85122  1.0000
  Fe  Fe3       1.0  0.10762  0.31158  0.87572  1.0000
  S   S6        1.0  0.08696  0.29245  0.90389  1.0000
  C   C21       1.0  0.98860  0.23018  0.87311  1.0000
  Fe  Fe4       1.0  0.06763  0.28649  0.87969  1.0000
  S   S7        1.0  0.05522  0.30955  0.88426  1.0000
  H   H30       1.0  0.02166  0.26905  0.80594  1.0000
  Fe  Fe5       1.0  0.07543  0.31660  0.90662  1.0000
  C   C22       1.0  0.02527  0.24839  0.87604  1.0000
  C   C23       1.0  0.19532  0.30942  0.87109  1.0000
  H   H31       1.0  0.02058  0.26256  0.83478  1.0000
  C   C24       1.0  0.16178  0.29870  0.87620  1.0000
  C   C25       1.0  0.17902  0.29515  0.87655  1.0000
  H   H32       1.0  0.14948  0.28750  0.88033  1.0000
  H   H33       1.0  0.17972  0.28117  0.88105  1.0000
  H   H34       1.0  0.06137  0.30230  0.81906  1.0000
  C   C26       1.0  0.01057  0.25518  0.88410  1.0000
  H   H35       1.0  0.01323  0.26727  0.89160  1.0000
  H   H36       1.0  0.00086  0.21142  0.85789  1.0000
  C   C27       1.0  0.01931  0.27360  0.82199  1.0000
  C   C28       1.0  0.03058  0.30551  0.80479  1.0000
  S   S8        1.0  0.21665  0.30392  0.87216  1.0000
  H   H37       1.0  0.20839  0.31324  0.96147  1.0000
  H   H38       1.0  0.05301  0.27860  0.83163  1.0000
  H   H39       1.0  0.18280  0.30438  0.94133  1.0000
  H   H40       1.0  0.19899  0.30385  0.91792  1.0000
  N   N3        1.0  0.03239  0.29129  0.82229  1.0000
  H   H41       1.0  0.01407  0.29726  0.84790  1.0000
  H   H42       1.0  0.03339  0.30179  0.78832  1.0000
  H   H43       1.0  0.03118  0.28722  0.85713  1.0000
  H   H44       1.0  0.01659  0.30750  0.80717  1.0000
  C   C29       1.0  0.02852  0.29686  0.84377  1.0000
  S   S9        1.0  0.04893  0.25901  0.87584  1.0000
  H   H45       1.0  0.00492  0.27442  0.82524  1.0000
  C   C30       1.0  0.16054  0.31663  0.87012  1.0000
  H   H46       1.0  0.03735  0.31071  0.84406  1.0000
  C   C31       1.0  0.99228  0.24607  0.88268  1.0000
  C   C32       1.0  0.10914  0.32365  0.96868  1.0000
  H   H47       1.0  0.05467  0.28512  0.80260  1.0000
  C   C33       1.0  0.19199  0.31292  0.92626  1.0000
  H   H48       1.0  0.18325  0.31758  0.91508  1.0000
  C   C34       1.0  0.09749  0.32244  0.95315  1.0000
  H   H49       1.0  0.99484  0.29799  0.96843  1.0000
  H   H50       1.0  0.99619  0.27479  0.97528  1.0000
  H   H51       1.0  0.12257  0.32157  0.96461  1.0000
  H   H52       1.0  0.04036  0.31900  0.80461  1.0000
  H   H53       1.0  0.10200  0.31954  0.93717  1.0000
  H   H54       1.0  0.22468  0.31330  0.93783  1.0000
  S   S10       1.0  0.13923  0.32206  0.86845  1.0000
  S   S11       1.0  0.06505  0.32318  0.93937  1.0000
  C   C35       1.0  0.21677  0.32178  0.94591  1.0000
  C   C36       1.0  0.98663  0.28368  0.97531  1.0000
  C   C37       1.0  0.08008  0.32502  0.95833  1.0000
  S   S12       1.0  0.10385  0.48883  0.16656  1.0000
  H   H55       1.0  0.03111  0.51634  0.18881  1.0000
  Fe  Fe6       1.0  0.09542  0.46083  0.18802  1.0000
  S   S13       1.0  0.07544  0.45682  0.21882  1.0000
  H   H56       1.0  0.05843  0.63936  0.24528  1.0000
  Fe  Fe7       1.0  0.09610  0.42068  0.19552  1.0000
  S   S14       1.0  0.07641  0.41411  0.22776  1.0000
  S   S15       1.0  0.10526  0.39683  0.18383  1.0000
  Fe  Fe8       1.0  0.06105  0.43073  0.20932  1.0000
  S   S16       1.0  0.03118  0.42550  0.20732  1.0000
  Fe  Fe9       1.0  0.09309  0.44100  0.23429  1.0000
  S   S17       1.0  0.09873  0.45114  0.26590  1.0000
  S   S18       1.0  0.07970  0.43586  0.17698  1.0000
  S   S19       1.0  0.11402  0.44635  0.20354  1.0000
  S   S20       1.0  0.12440  0.34480  0.06410  1.0000
  H   H57       1.0  0.08166  0.33323  0.01046  1.0000
  H   H58       1.0  0.99343  0.58871  0.17307  1.0000
  Fe  Fe10      1.0  0.09758  0.34547  0.08315  1.0000
  S   S21       1.0  0.09414  0.37245  0.09217  1.0000
  H   H59       1.0  0.13513  0.34958  0.11119  1.0000
  N   N4        1.0  0.14835  0.49533  0.22922  1.0000
  H   H60       1.0  0.01080  0.61009  0.16621  1.0000
  H   H61       1.0  0.03253  0.49967  0.22531  1.0000
  H   H62       1.0  0.01738  0.36727  0.17960  1.0000
  S   S22       1.0  0.22937  0.34175  0.05835  1.0000
  C   C38       1.0  0.10253  0.39051  0.15803  1.0000
  C   C39       1.0  0.09827  0.40209  0.14137  1.0000
  C   C40       1.0  0.09586  0.39641  0.12123  1.0000
  C   C41       1.0  0.09739  0.37902  0.11767  1.0000
  C   C42       1.0  0.10154  0.36741  0.13438  1.0000
  C   C43       1.0  0.10434  0.37324  0.15434  1.0000
  H   H63       1.0  0.09699  0.41548  0.14389  1.0000
  H   H64       1.0  0.09270  0.40551  0.10836  1.0000
  H   H65       1.0  0.10258  0.35393  0.13192  1.0000
  H   H66       1.0  0.10759  0.36417  0.16716  1.0000
  H   H67       1.0  0.16804  0.50716  0.24812  1.0000
  S   S23       1.0  0.11801  0.32750  0.00894  1.0000
  C   C44       1.0  0.00363  0.39774  0.20114  1.0000
  C   C45       1.0  0.01764  0.40275  0.21305  1.0000
  C   C46       1.0  0.01910  0.39033  0.23092  1.0000
  C   C47       1.0  0.00586  0.37338  0.23758  1.0000
  H   H68       1.0  0.04144  0.37603  0.14572  1.0000
  N   N5        1.0  0.04551  0.36715  0.17839  1.0000
  H   H69       1.0  0.02981  0.39417  0.24032  1.0000
  H   H70       1.0  0.00658  0.36407  0.25193  1.0000
  H   H71       1.0  0.00257  0.40723  0.18715  1.0000
  C   C48       1.0  0.19250  0.33516  0.05917  1.0000
  H   H72       1.0  0.04283  0.61049  0.15143  1.0000
  C   C49       1.0  0.17388  0.32925  0.06884  1.0000
  H   H73       1.0  0.99085  0.55136  0.23129  1.0000
  C   C50       1.0  0.05928  0.50164  0.19193  1.0000
  N   N6        1.0  0.16675  0.65615  0.14798  1.0000
  C   C51       1.0  0.12871  0.43960  0.27648  1.0000
  C   C52       1.0  0.11743  0.45126  0.27969  1.0000
  C   C53       1.0  0.12095  0.46348  0.29442  1.0000
  H   H74       1.0  0.16154  0.47398  0.22415  1.0000
  N   N7        1.0  0.01962  0.58688  0.15762  1.0000
  H   H75       1.0  0.01844  0.60490  0.12853  1.0000
  C   C54       1.0  0.15023  0.47657  0.23534  1.0000
  H   H76       1.0  0.05279  0.34178  0.18577  1.0000
  C   C55       1.0  0.14478  0.38557  0.09634  1.0000
  H   H77       1.0  0.00831  0.64391  0.00318  1.0000
  C   C56       1.0  0.05097  0.38605  0.18286  1.0000
  H   H78       1.0  0.13748  0.46606  0.23472  1.0000
  C   C57       1.0  0.16526  0.50883  0.23103  1.0000
  N   N8        1.0  0.15655  0.37470  0.10520  1.0000
  H   H79       1.0  0.15902  0.36090  0.07765  1.0000
  H   H80       1.0  0.17712  0.36197  0.09304  1.0000
  H   H81       1.0  0.13702  0.36097  0.13435  1.0000
  C   C58       1.0  0.02584  0.35898  0.18702  1.0000
  H   H82       1.0  0.00109  0.58353  0.13474  1.0000
  H   H83       1.0  0.04816  0.58952  0.14675  1.0000
  H   H84       1.0  0.19630  0.33952  0.04157  1.0000
  H   H85       1.0  0.03828  0.47808  0.22733  1.0000
  H   H86       1.0  0.01672  0.47990  0.22030  1.0000
  H   H87       1.0  0.12606  0.43002  0.26532  1.0000
  H   H88       1.0  0.09940  0.62519  0.25763  1.0000
  H   H89       1.0  0.13649  0.38990  0.10966  1.0000
  H   H90       1.0  0.15304  0.47415  0.25234  1.0000
  C   C59       1.0  0.14322  0.44004  0.28820  1.0000
  H   H91       1.0  0.13262  0.48781  0.20436  1.0000
  H   H92       1.0  0.01864  0.56411  0.18248  1.0000
  H   H93       1.0  0.04300  0.39485  0.17533  1.0000
  H   H94       1.0  0.15337  0.34878  0.12596  1.0000
  H   H95       1.0  0.02329  0.56016  0.15494  1.0000
  H   H96       1.0  0.17763  0.37776  0.12480  1.0000
  C   C60       1.0  0.14680  0.45238  0.30282  1.0000
  C   C61       1.0  0.16868  0.38565  0.11774  1.0000
  H   H97       1.0  0.15168  0.43075  0.28595  1.0000
  H   H98       1.0  0.15293  0.39819  0.08476  1.0000
  H   H99       1.0  0.16067  0.38969  0.13159  1.0000
  C   C62       1.0  0.14502  0.35781  0.11985  1.0000
  H   H100      1.0  0.16838  0.62956  0.16271  1.0000
  H   H101      1.0  0.17766  0.39844  0.10715  1.0000
  H   H102      1.0  0.10116  0.49195  0.21245  1.0000
  H   H103      1.0  0.06101  0.51469  0.19846  1.0000
  H   H104      1.0  0.13267  0.60528  0.29707  1.0000
  H   H105      1.0  0.15233  0.65758  0.12097  1.0000
  H   H106      1.0  0.11220  0.47244  0.29714  1.0000
  H   H107      1.0  0.04251  0.59333  0.17423  1.0000
  C   C63       1.0  0.20110  0.32963  0.09470  1.0000
  C   C64       1.0  0.16771  0.36975  0.08695  1.0000
  N   N9        1.0  0.03985  0.49166  0.19436  1.0000
  S   S24       1.0  0.00144  0.51825  0.22438  1.0000
  H   H108      1.0  0.04507  0.35352  0.15042  1.0000
  C   C65       1.0  0.03020  0.50330  0.18242  1.0000
  C   C66       1.0  0.16693  0.63699  0.14673  1.0000
  H   H109      1.0  0.06619  0.50506  0.17443  1.0000
  C   C67       1.0  0.03150  0.48709  0.21787  1.0000
  H   H110      1.0  0.15665  0.49665  0.19458  1.0000
  H   H111      1.0  0.06683  0.49322  0.20092  1.0000
  H   H112      1.0  0.11975  0.48803  0.24310  1.0000
  H   H113      1.0  0.03604  0.50688  0.16459  1.0000
  C   C68       1.0  0.14506  0.49807  0.20640  1.0000
  H   H114      1.0  0.01541  0.49630  0.18425  1.0000
  C   C69       1.0  0.13283  0.49784  0.24419  1.0000
  Fe  Fe11      1.0  0.11646  0.62279  0.21344  1.0000
  S   S25       1.0  0.12919  0.61008  0.18730  1.0000
  S   S26       1.0  0.13444  0.64488  0.22749  1.0000
  Fe  Fe12      1.0  0.07780  0.60375  0.20771  1.0000
  S   S27       1.0  0.08767  0.59002  0.18084  1.0000
  S   S28       1.0  0.04785  0.59998  0.21948  1.0000
  Fe  Fe13      1.0  0.10739  0.58423  0.20255  1.0000
  S   S29       1.0  0.11220  0.55701  0.21522  1.0000
  Fe  Fe14      1.0  0.10828  0.61740  0.16830  1.0000
  S   S30       1.0  0.11547  0.63088  0.13242  1.0000
  S   S31       1.0  0.09617  0.59651  0.23031  1.0000
  S   S32       1.0  0.09677  0.63151  0.19358  1.0000
  N   N10       1.0  0.08134  0.64234  0.26223  1.0000
  H   H115      1.0  0.14304  0.51192  0.20140  1.0000
  C   C70       1.0  0.14991  0.63252  0.29518  1.0000
  H   H116      1.0  0.17731  0.50726  0.22009  1.0000
  H   H117      1.0  0.13503  0.37755  0.08732  1.0000
  C   C71       1.0  0.09309  0.65771  0.24540  1.0000
  C   C72       1.0  0.01420  0.54075  0.22457  1.0000
  C   C73       1.0  0.00556  0.55458  0.22787  1.0000
  C   C74       1.0  0.01597  0.57261  0.22706  1.0000
  C   C75       1.0  0.03506  0.57700  0.22250  1.0000
  C   C76       1.0  0.04372  0.56312  0.21964  1.0000
  C   C77       1.0  0.03331  0.54502  0.22087  1.0000
  C   C78       1.0  0.06714  0.63116  0.25228  1.0000
  H   H118      1.0  0.00917  0.58320  0.22970  1.0000
  H   H119      1.0  0.05845  0.56627  0.21661  1.0000
  H   H120      1.0  0.04015  0.53440  0.21869  1.0000
  C   C79       1.0  0.10351  0.50545  0.20289  1.0000
  C   C80       1.0  0.10504  0.52066  0.21342  1.0000
  C   C81       1.0  0.10832  0.53833  0.20129  1.0000
  C   C82       1.0  0.10959  0.54070  0.17851  1.0000
  C   C83       1.0  0.10820  0.52542  0.16791  1.0000
  H   H121      1.0  0.10370  0.51878  0.23109  1.0000
  H   H122      1.0  0.11220  0.55432  0.16903  1.0000
  C   C84       1.0  0.05618  0.35601  0.18923  1.0000
  C   C85       1.0  0.15729  0.64981  0.28200  1.0000
  H   H123      1.0  0.17834  0.63635  0.13407  1.0000
  C   C86       1.0  0.14111  0.63955  0.25302  1.0000
  C   C87       1.0  0.13428  0.62208  0.26590  1.0000
  C   C88       1.0  0.13840  0.61870  0.28703  1.0000
  H   H124      1.0  0.15400  0.62923  0.14233  1.0000
  H   H125      1.0  0.15275  0.64991  0.18151  1.0000
  H   H126      1.0  0.12557  0.61124  0.25977  1.0000
  H   H127      1.0  0.06568  0.39269  0.17623  1.0000
  C   C89       1.0  0.20623  0.33531  0.07196  1.0000
  C   C90       1.0  0.04907  0.36754  0.15447  1.0000
  C   C91       1.0  0.99057  0.38075  0.20762  1.0000
  H   H128      1.0  0.06379  0.37339  0.14749  1.0000
  H   H129      1.0  0.13815  0.64838  0.16145  1.0000
  H   H130      1.0  0.21146  0.32984  0.10482  1.0000
  C   C92       1.0  0.01538  0.56695  0.16581  1.0000
  H   H131      1.0  0.04890  0.38624  0.20077  1.0000
  H   H132      1.0  0.07330  0.62535  0.23869  1.0000
  H   H133      1.0  0.17620  0.38210  0.07515  1.0000
  C   C93       1.0  0.03913  0.59543  0.15746  1.0000
  H   H134      1.0  0.13470  0.49552  0.26158  1.0000
  H   H135      1.0  0.10360  0.63878  0.27841  1.0000
  C   C94       1.0  0.01568  0.59001  0.13514  1.0000
  C   C95       1.0  0.03847  0.47458  0.18528  1.0000
  H   H136      1.0  0.10955  0.52731  0.15023  1.0000
  H   H137      1.0  0.16429  0.52314  0.22646  1.0000
  S   S33       1.0  0.08085  0.32999  0.06120  1.0000
  H   H138      1.0  0.02409  0.58409  0.12368  1.0000
  H   H139      1.0  0.00062  0.56014  0.16688  1.0000
  H   H140      1.0  0.07110  0.36207  0.18353  1.0000
  C   C96       1.0  0.08607  0.33007  0.99461  1.0000
  H   H141      1.0  0.05356  0.35518  0.20734  1.0000
  C   C97       1.0  0.15133  0.65625  0.16492  1.0000
  Fe  Fe15      1.0  0.10760  0.32673  0.04481  1.0000
  H   H142      1.0  0.04466  0.47748  0.16756  1.0000
  H   H143      1.0  0.01112  0.59333  0.18912  1.0000
  H   H144      1.0  0.04576  0.46557  0.19381  1.0000
  C   C98       1.0  0.10533  0.50778  0.18007  1.0000
  H   H145      1.0  0.02117  0.34484  0.18354  1.0000
  C   C99       1.0  0.09259  0.63080  0.27092  1.0000
  C   C100      1.0  0.01618  0.65113  0.98673  1.0000
  H   H146      1.0  0.02403  0.46648  0.18705  1.0000
  H   H147      1.0  0.13121  0.51196  0.24033  1.0000
  H   H148      1.0  0.02272  0.35806  0.20509  1.0000
  H   H149      1.0  0.08425  0.61895  0.28356  1.0000
  C   C101      1.0  0.00826  0.59513  0.17214  1.0000
  C   C102      1.0  0.13571  0.46425  0.30569  1.0000
  H   H150      1.0  0.06372  0.63838  0.29331  1.0000
  H   H151      1.0  0.09945  0.65265  0.23125  1.0000
  H   H152      1.0  0.05801  0.61933  0.26438  1.0000
  H   H153      1.0  0.99088  0.40561  0.24472  1.0000
  H   H154      1.0  0.16351  0.32914  0.05870  1.0000
  C   C103      1.0  0.07262  0.64965  0.28030  1.0000
  C   C104      1.0  0.10342  0.32731  0.98949  1.0000
  C   C105      1.0  0.15273  0.65335  0.26107  1.0000
  H   H155      1.0  0.11966  0.65231  0.08958  1.0000
  H   H156      1.0  0.99066  0.42741  0.25196  1.0000
  C   C106      1.0  0.11606  0.65420  0.12391  1.0000
  C   C107      1.0  0.99130  0.36874  0.22625  1.0000
  H   H157      1.0  0.02746  0.64466  0.98266  1.0000
  H   H158      1.0  0.08302  0.65816  0.28811  1.0000
  H   H159      1.0  0.06398  0.65840  0.27433  1.0000
  H   H160      1.0  0.06102  0.33104  0.98306  1.0000
  C   C108      1.0  0.13411  0.46038  0.62946  1.0000
  H   H161      1.0  0.15849  0.40236  0.41074  1.0000
  C   C109      1.0  0.18404  0.48766  0.47242  1.0000
  H   H162      1.0  0.14059  0.57267  0.39699  1.0000
  H   H163      1.0  0.18794  0.46397  0.45905  1.0000
  H   H164      1.0  0.18247  0.43911  0.38480  1.0000
  H   H165      1.0  0.17583  0.50550  0.41439  1.0000
  C   C110      1.0  0.22792  0.61745  0.55416  1.0000
  S   S34       1.0  0.16114  0.48462  0.36260  1.0000
  C   C111      1.0  0.08058  0.39500  0.64296  1.0000
  H   H166      1.0  0.14954  0.44488  0.36517  1.0000
  S   S35       1.0  0.23177  0.48523  0.55858  1.0000
  H   H167      1.0  0.17783  0.43482  0.35823  1.0000
  H   H168      1.0  0.18167  0.41705  0.37745  1.0000
  Fe  Fe16      1.0  0.18523  0.48377  0.37913  1.0000
  S   S36       1.0  0.15333  0.62789  0.32252  1.0000
  H   H169      1.0  0.15940  0.42452  0.41794  1.0000
  C   C112      1.0  0.14484  0.47602  0.61452  1.0000
  S   S37       1.0  0.19957  0.47279  0.35230  1.0000
  C   C113      1.0  0.18498  0.47711  0.45567  1.0000
  H   H170      1.0  0.13790  0.40965  0.41574  1.0000
  C   C114      1.0  0.17821  0.50049  0.43046  1.0000
  H   H171      1.0  0.15685  0.59182  0.33822  1.0000
  S   S38       1.0  0.18254  0.46964  0.41413  1.0000
  H   H172      1.0  0.18656  0.59709  0.50757  1.0000
  H   H173      1.0  0.13146  0.40399  0.37878  1.0000
  H   H174      1.0  0.15084  0.56121  0.37761  1.0000
  H   H175      1.0  0.13266  0.44696  0.62505  1.0000
  H   H176      1.0  0.09312  0.40663  0.64054  1.0000
  H   H177      1.0  0.16991  0.62698  0.60640  1.0000
  N   N11       1.0  0.15548  0.42251  0.38492  1.0000
  C   C115      1.0  0.14767  0.43841  0.38270  1.0000
  C   C116      1.0  0.17524  0.42863  0.37596  1.0000
  C   C117      1.0  0.14643  0.40886  0.37256  1.0000
  C   C118      1.0  0.15266  0.41434  0.40837  1.0000
  H   H178      1.0  0.13278  0.43439  0.38933  1.0000
  H   H179      1.0  0.15204  0.39669  0.37371  1.0000
  C   C119      1.0  0.14699  0.57411  0.37955  1.0000
  Fe  Fe17      1.0  0.17649  0.47573  0.33462  1.0000
  H   H180      1.0  0.15139  0.47462  0.59864  1.0000
  H   H181      1.0  0.14041  0.57912  0.61853  1.0000
  C   C120      1.0  0.18204  0.48347  0.43465  1.0000
  H   H182      1.0  0.18619  0.48259  0.48859  1.0000
  S   S39       1.0  0.21605  0.65722  0.37040  1.0000
  H   H183      1.0  0.14839  0.41485  0.35480  1.0000
  C   C121      1.0  0.17977  0.50448  0.46834  1.0000
  H   H184      1.0  0.15131  0.62084  0.64409  1.0000
  H   H185      1.0  0.13912  0.50851  0.64488  1.0000
  N   N12       1.0  0.19940  0.47994  0.62507  1.0000
  H   H186      1.0  0.21827  0.55884  0.34269  1.0000
  H   H187      1.0  0.22260  0.57738  0.48296  1.0000
  H   H188      1.0  0.21302  0.60371  0.46456  1.0000
  H   H189      1.0  0.14122  0.60654  0.36595  1.0000
  Fe  Fe18      1.0  0.21230  0.54262  0.54083  1.0000
  H   H190      1.0  0.20097  0.47859  0.59081  1.0000
  H   H191      1.0  0.13542  0.58428  0.32968  1.0000
  S   S40       1.0  0.14222  0.64662  0.58082  1.0000
  S   S41       1.0  0.18490  0.63549  0.55371  1.0000
  C   C122      1.0  0.12909  0.59456  0.36833  1.0000
  H   H192      1.0  0.17431  0.46581  0.64723  1.0000
  H   H193      1.0  0.10860  0.62896  0.61082  1.0000
  C   C123      1.0  0.22566  0.58637  0.54807  1.0000
  H   H194      1.0  0.21277  0.56504  0.57597  1.0000
  H   H195      1.0  0.20794  0.56218  0.46920  1.0000
  C   C124      1.0  0.14624  0.60636  0.64195  1.0000
  Fe  Fe19      1.0  0.20407  0.62959  0.36263  1.0000
  S   S42       1.0  0.17527  0.63073  0.37181  1.0000
  S   S43       1.0  0.21143  0.60428  0.37715  1.0000
  Fe  Fe20      1.0  0.17760  0.64282  0.33630  1.0000
  C   C125      1.0  0.21334  0.49774  0.62135  1.0000
  H   H196      1.0  0.22388  0.49921  0.60655  1.0000
  S   S44       1.0  0.18235  0.53527  0.54098  1.0000
  C   C126      1.0  0.14212  0.65588  0.64328  1.0000
  C   C127      1.0  0.14792  0.65538  0.62113  1.0000
  Fe  Fe21      1.0  0.17206  0.65671  0.56489  1.0000
  H   H197      1.0  0.15985  0.58539  0.37640  1.0000
  H   H198      1.0  0.18930  0.60298  0.46734  1.0000
  H   H199      1.0  0.15430  0.44905  0.39171  1.0000
  H   H200      1.0  0.19340  0.57799  0.52084  1.0000
  H   H201      1.0  0.18000  0.46511  0.60780  1.0000
  C   C128      1.0  0.11808  0.63629  0.61992  1.0000
  H   H202      1.0  0.19712  0.64423  0.41674  1.0000
  H   H203      1.0  0.17305  0.55668  0.50240  1.0000
  Fe  Fe22      1.0  0.17782  0.51296  0.34686  1.0000
  C   C129      1.0  0.18008  0.55544  0.35124  1.0000
  C   C130      1.0  0.18543  0.55277  0.37169  1.0000
  C   C131      1.0  0.19542  0.56777  0.37950  1.0000
  C   C132      1.0  0.19977  0.58542  0.36701  1.0000
  C   C133      1.0  0.19465  0.58795  0.34647  1.0000
  S   S45       1.0  0.22933  0.57155  0.52992  1.0000
  H   H204      1.0  0.18142  0.53926  0.38177  1.0000
  Fe  Fe23      1.0  0.19965  0.65637  0.52411  1.0000
  H   H205      1.0  0.17521  0.56086  0.47327  1.0000
  H   H206      1.0  0.18445  0.48959  0.60159  1.0000
  H   H207      1.0  0.23210  0.63201  0.54791  1.0000
  S   S46       1.0  0.17699  0.51761  0.48920  1.0000
  H   H208      1.0  0.19933  0.56576  0.39545  1.0000
  C   C134      1.0  0.19628  0.58846  0.50565  1.0000
  S   S47       1.0  0.21815  0.52279  0.51953  1.0000
  C   C135      1.0  0.23123  0.60527  0.54031  1.0000
  S   S48       1.0  0.16069  0.51346  0.60231  1.0000
  C   C136      1.0  0.14679  0.49343  0.62007  1.0000
  C   C137      1.0  0.18497  0.57297  0.33851  1.0000
  H   H209      1.0  0.17477  0.60823  0.59454  1.0000
  H   H210      1.0  0.23016  0.54677  0.32592  1.0000
  C   C138      1.0  0.11822  0.56208  0.36838  1.0000
  H   H211      1.0  0.16600  0.57558  0.48921  1.0000
  H   H212      1.0  0.17353  0.52378  0.44402  1.0000
  H   H213      1.0  0.10860  0.56445  0.35721  1.0000
  H   H214      1.0  0.20779  0.58675  0.60092  1.0000
  S   S49       1.0  0.20592  0.63976  0.32684  1.0000
  C   C139      1.0  0.11245  0.63626  0.64234  1.0000
  H   H215      1.0  0.19836  0.58846  0.45102  1.0000
  C   C140      1.0  0.17690  0.51084  0.44729  1.0000
  H   H216      1.0  0.08503  0.38242  0.64085  1.0000
  S   S50       1.0  0.21467  0.62635  0.59271  1.0000
  H   H217      1.0  0.19823  0.60145  0.33658  1.0000
  S   S51       1.0  0.20968  0.52383  0.57239  1.0000
  H   H218      1.0  0.12033  0.59826  0.35663  1.0000
  H   H219      1.0  0.13824  0.47372  0.31699  1.0000
  H   H220      1.0  0.07293  0.39789  0.62960  1.0000
  S   S52       1.0  0.19125  0.50435  0.31741  1.0000
  C   C141      1.0  0.16434  0.61223  0.60568  1.0000
  H   H221      1.0  0.21020  0.59756  0.50482  1.0000
  H   H222      1.0  0.20710  0.50943  0.61883  1.0000
  C   C142      1.0  0.14401  0.58053  0.34154  1.0000
  C   C143      1.0  0.23156  0.55983  0.33237  1.0000
  H   H223      1.0  0.22055  0.49928  0.63551  1.0000
  C   C144      1.0  0.13773  0.49508  0.64050  1.0000
  C   C145      1.0  0.21428  0.59193  0.58403  1.0000
  H   H224      1.0  0.20565  0.55768  0.49839  1.0000
  C   C146      1.0  0.19083  0.47821  0.60547  1.0000
  S   S53       1.0  0.20063  0.51300  0.36572  1.0000
  C   C147      1.0  0.20843  0.56884  0.48393  1.0000
  C   C148      1.0  0.21957  0.61086  0.57604  1.0000
  N   N13       1.0  0.19506  0.57986  0.48592  1.0000
  H   H225      1.0  0.17840  0.49020  0.64134  1.0000
  C   C149      1.0  0.19910  0.59436  0.46630  1.0000
  H   H226      1.0  0.18300  0.61760  0.63818  1.0000
  C   C150      1.0  0.17648  0.56778  0.48776  1.0000
  H   H227      1.0  0.14761  0.56789  0.33773  1.0000
  Fe  Fe24      1.0  0.21299  0.50310  0.55118  1.0000
  H   H228      1.0  0.12157  0.59295  0.38530  1.0000
  H   H229      1.0  0.18764  0.59861  0.62695  1.0000
  Fe  Fe25      1.0  0.21298  0.50215  0.33751  1.0000
  H   H230      1.0  0.12201  0.54928  0.36546  1.0000
  C   C151      1.0  0.13581  0.64596  0.60921  1.0000
  C   C152      1.0  0.17696  0.60297  0.63721  1.0000
  H   H231      1.0  0.11079  0.55953  0.38556  1.0000
  C   C153      1.0  0.18523  0.47895  0.64413  1.0000
  H   H232      1.0  0.23373  0.57107  0.31814  1.0000
  H   H233      1.0  0.18115  0.57502  0.32252  1.0000
  S   S54       1.0  0.18282  0.49216  0.55116  1.0000
  C   C154      1.0  0.19673  0.65262  0.46898  1.0000
  Fe  Fe26      1.0  0.18788  0.51418  0.52106  1.0000
  N   N14       1.0  0.13457  0.57783  0.36447  1.0000
  S   S55       1.0  0.16640  0.53724  0.34198  1.0000
  C   C155      1.0  0.15307  0.58127  0.62577  1.0000
  N   N15       1.0  0.16013  0.60070  0.62768  1.0000
  H   H234      1.0  0.15199  0.61109  0.59791  1.0000
  H   H235      1.0  0.13355  0.60535  0.63489  1.0000
  Fe  Fe27      1.0  0.17989  0.51423  0.57084  1.0000
  H   H236      1.0  0.16325  0.57660  0.61504  1.0000
  H   H237      1.0  0.22979  0.54665  0.37484  1.0000
  Fe  Fe28      1.0  0.20753  0.64798  0.57033  1.0000
  C   C156      1.0  0.21707  0.57965  0.56992  1.0000
  H   H238      1.0  0.23525  0.58008  0.36460  1.0000
  H   H239      1.0  0.21893  0.46543  0.61491  1.0000
  H   H240      1.0  0.14977  0.57211  0.64207  1.0000
  S   S56       1.0  0.16468  0.45203  0.31789  1.0000
  C   C157      1.0  0.20819  0.46489  0.62917  1.0000
  H   H241      1.0  0.20879  0.63541  0.45043  1.0000
  S   S57       1.0  0.20528  0.64572  0.49250  1.0000
  C   C158      1.0  0.19416  0.65024  0.43103  1.0000
  C   C159      1.0  0.20062  0.64512  0.45021  1.0000
  H   H242      1.0  0.19810  0.45125  0.63187  1.0000
  H   H243      1.0  0.21486  0.46573  0.64384  1.0000
  H   H244      1.0  0.00243  0.53040  0.72305  1.0000
  Fe  Fe29      1.0  0.09403  0.44295  0.70003  1.0000
  S   S58       1.0  0.09797  0.45971  0.72695  1.0000
  N   N16       1.0  0.06933  0.39283  0.66480  1.0000
  Fe  Fe30      1.0  0.05806  0.41755  0.72556  1.0000
  S   S59       1.0  0.05860  0.43218  0.75418  1.0000
  S   S60       1.0  0.03767  0.39045  0.72745  1.0000
  Fe  Fe31      1.0  0.06797  0.45805  0.72889  1.0000
  H   H245      1.0  0.18657  0.33248  0.95811  1.0000
  Fe  Fe32      1.0  0.08813  0.43253  0.75035  1.0000
  S   S61       1.0  0.09963  0.42407  0.78046  1.0000
  S   S62       1.0  0.06469  0.44314  0.70041  1.0000
  S   S63       1.0  0.08695  0.41617  0.72342  1.0000
  C   C160      1.0  0.00046  0.40088  0.69073  1.0000
  S   S64       1.0  0.06994  0.34029  0.82644  1.0000
  H   H246      1.0  0.99111  0.49638  0.68653  1.0000
  H   H247      1.0  0.98995  0.62703  0.72431  1.0000
  C   C161      1.0  0.98787  0.37071  0.71306  1.0000
  S   S65       1.0  0.09654  0.33606  0.87980  1.0000
  H   H248      1.0  0.12302  0.37266  0.84332  1.0000
  H   H249      1.0  0.09868  0.62900  0.65040  1.0000
  H   H250      1.0  0.08421  0.55955  0.76536  1.0000
  C   C162      1.0  0.09071  0.40096  0.79382  1.0000
  C   C163      1.0  0.07975  0.38813  0.78399  1.0000
  C   C164      1.0  0.07340  0.36966  0.79434  1.0000
  C   C165      1.0  0.07778  0.36384  0.81471  1.0000
  C   C166      1.0  0.08838  0.37671  0.82487  1.0000
  C   C167      1.0  0.09492  0.39521  0.81437  1.0000
  H   H251      1.0  0.07626  0.39238  0.76830  1.0000
  H   H252      1.0  0.06508  0.35985  0.78644  1.0000
  H   H253      1.0  0.09140  0.37244  0.84083  1.0000
  H   H254      1.0  0.10317  0.40512  0.82221  1.0000
  H   H255      1.0  0.07185  0.38720  0.69869  1.0000
  H   H256      1.0  0.02527  0.44580  0.73806  1.0000
  C   C168      1.0  0.01647  0.40283  0.69973  1.0000
  C   C169      1.0  0.01818  0.38863  0.71531  1.0000
  C   C170      1.0  0.00397  0.37252  0.72173  1.0000
  H   H257      1.0  0.12323  0.34028  0.80425  1.0000
  H   H258      1.0  0.20894  0.34520  0.89957  1.0000
  H   H259      1.0  0.02737  0.41532  0.69464  1.0000
  H   H260      1.0  0.00528  0.36144  0.73366  1.0000
  H   H261      1.0  0.01169  0.41051  0.77281  1.0000
  H   H262      1.0  0.13877  0.37182  0.78454  1.0000
  H   H263      1.0  0.07637  0.54693  0.79271  1.0000
  H   H264      1.0  0.09203  0.53990  0.77361  1.0000
  C   C171      1.0  0.12686  0.47947  0.65535  1.0000
  C   C172      1.0  0.08582  0.64254  0.81868  1.0000
  H   H265      1.0  0.20641  0.33853  0.86078  1.0000
  H   H266      1.0  0.01959  0.53929  0.69891  1.0000
  H   H267      1.0  0.99908  0.41182  0.67868  1.0000
  S   S66       1.0  0.11737  0.64854  0.68130  1.0000
  H   H268      1.0  0.10920  0.34873  0.82349  1.0000
  H   H269      1.0  0.20523  0.35229  0.94639  1.0000
  H   H270      1.0  0.08485  0.37672  0.68078  1.0000
  C   C173      1.0  0.05283  0.37734  0.66764  1.0000
  H   H271      1.0  0.99327  0.39886  0.74624  1.0000
  S   S67       1.0  0.05281  0.47981  0.73346  1.0000
  H   H272      1.0  0.02355  0.42276  0.73396  1.0000
  C   C174      1.0  0.99665  0.57090  0.72638  1.0000
  H   H273      1.0  0.09727  0.54881  0.81949  1.0000
  H   H274      1.0  0.98804  0.60784  0.71017  1.0000
  H   H275      1.0  0.09147  0.49698  0.71784  1.0000
  C   C175      1.0  0.12504  0.46205  0.64989  1.0000
  C   C176      1.0  0.02591  0.50705  0.69273  1.0000
  C   C177      1.0  0.08009  0.38925  0.68198  1.0000
  C   C178      1.0  0.15538  0.35714  0.81471  1.0000
  Fe  Fe33      1.0  0.07758  0.32647  0.85700  1.0000
  C   C179      1.0  0.11987  0.56990  0.76831  1.0000
  C   C180      1.0  0.00457  0.42162  0.77321  1.0000
  C   C181      1.0  0.19550  0.34026  0.94245  1.0000
  C   C182      1.0  0.06380  0.40984  0.66675  1.0000
  H   H276      1.0  0.11022  0.58951  0.79841  1.0000
  H   H277      1.0  0.15615  0.34622  0.82805  1.0000
  H   H278      1.0  0.04410  0.37549  0.68404  1.0000
  H   H279      1.0  0.11288  0.54117  0.80115  1.0000
  C   C183      1.0  0.01583  0.43331  0.73474  1.0000
  H   H280      1.0  0.11993  0.48092  0.67103  1.0000
  H   H281      1.0  0.08679  0.57630  0.80626  1.0000
  H   H282      1.0  0.03149  0.51810  0.67808  1.0000
  H   H283      1.0  0.99285  0.57175  0.74344  1.0000
  C   C184      1.0  0.12438  0.64636  0.65397  1.0000
  C   C185      1.0  0.13612  0.36891  0.83970  1.0000
  C   C186      1.0  0.99519  0.50965  0.69238  1.0000
  C   C187      1.0  0.09889  0.58015  0.79284  1.0000
  C   C188      1.0  0.01445  0.52779  0.71314  1.0000
  H   H284      1.0  0.14238  0.59769  0.65857  1.0000
  H   H285      1.0  0.13639  0.35832  0.85371  1.0000
  H   H286      1.0  0.00973  0.56863  0.66498  1.0000
  C   C189      1.0  0.13735  0.37647  0.80063  1.0000
  N   N17       1.0  0.13788  0.36206  0.81872  1.0000
  H   H287      1.0  0.18667  0.34559  0.93194  1.0000
  C   C190      1.0  0.98914  0.55850  0.69413  1.0000
  H   H288      1.0  0.01412  0.43351  0.77767  1.0000
  C   C191      1.0  0.10334  0.65454  0.78218  1.0000
  H   H289      1.0  0.02531  0.52859  0.72330  1.0000
  H   H290      1.0  0.03701  0.50700  0.70246  1.0000
  H   H291      1.0  0.22758  0.35129  0.91405  1.0000
  H   H292      1.0  0.12359  0.55801  0.76223  1.0000
  H   H293      1.0  0.99853  0.48143  0.72025  1.0000
  H   H294      1.0  0.99970  0.52083  0.67775  1.0000
  H   H295      1.0  0.12420  0.38028  0.80299  1.0000
  H   H296      1.0  0.11686  0.57837  0.75405  1.0000
  H   H297      1.0  0.19111  0.48016  0.65932  1.0000
  H   H298      1.0  0.02272  0.49371  0.68687  1.0000
  Fe  Fe34      1.0  0.09588  0.62579  0.70468  1.0000
  S   S68       1.0  0.10691  0.61115  0.73116  1.0000
  C   C192      1.0  0.00276  0.49505  0.72523  1.0000
  Fe  Fe35      1.0  0.05684  0.60344  0.72317  1.0000
  S   S69       1.0  0.06532  0.58693  0.75038  1.0000
  S   S70       1.0  0.02634  0.59891  0.72633  1.0000
  Fe  Fe36      1.0  0.08314  0.61395  0.75440  1.0000
  S   S71       1.0  0.08213  0.61853  0.78970  1.0000
  Fe  Fe37      1.0  0.08811  0.58573  0.72458  1.0000
  S   S72       1.0  0.10065  0.56211  0.72100  1.0000
  S   S73       1.0  0.07342  0.63060  0.72860  1.0000
  S   S74       1.0  0.07836  0.60017  0.69669  1.0000
  H   H299      1.0  0.14740  0.38125  0.83950  1.0000
  S   S75       1.0  0.11174  0.44202  0.66812  1.0000
  C   C193      1.0  0.08848  0.55201  0.77932  1.0000
  C   C194      1.0  0.09098  0.64007  0.79708  1.0000
  C   C195      1.0  0.12264  0.34566  0.81989  1.0000
  C   C196      1.0  0.10893  0.55353  0.80547  1.0000
  H   H300      1.0  0.07632  0.63138  0.83034  1.0000
  H   H301      1.0  0.01339  0.49454  0.73557  1.0000
  C   C197      1.0  0.01835  0.58068  0.69235  1.0000
  C   C198      1.0  0.01345  0.58183  0.71438  1.0000
  H   H302      1.0  0.99877  0.45374  0.75751  1.0000
  H   H303      1.0  0.09237  0.40095  0.68072  1.0000
  N   N18       1.0  0.20531  0.32862  0.93137  1.0000
  C   C199      1.0  0.06625  0.50260  0.73048  1.0000
  C   C200      1.0  0.05798  0.51627  0.73601  1.0000
  C   C201      1.0  0.06827  0.53468  0.73286  1.0000
  C   C202      1.0  0.08700  0.53940  0.72452  1.0000
  C   C203      1.0  0.09530  0.52567  0.71941  1.0000
  C   C204      1.0  0.08496  0.50736  0.72223  1.0000
  H   H304      1.0  0.04361  0.51259  0.74287  1.0000
  H   H305      1.0  0.06179  0.54516  0.73701  1.0000
  H   H306      1.0  0.10979  0.52923  0.71301  1.0000
  H   H307      1.0  0.14847  0.38919  0.79948  1.0000
  C   C205      1.0  0.00614  0.56911  0.68220  1.0000
  H   H308      1.0  0.09532  0.58832  0.77878  1.0000
  H   H309      1.0  0.12062  0.56210  0.81133  1.0000
  H   H310      1.0  0.17616  0.34488  0.86003  1.0000
  H   H311      1.0  0.13207  0.57840  0.77332  1.0000
  H   H312      1.0  0.01243  0.43677  0.71822  1.0000
  H   H313      1.0  0.15713  0.35179  0.79909  1.0000
  H   H314      1.0  0.03117  0.58933  0.68288  1.0000
  N   N19       1.0  0.00959  0.50989  0.70587  1.0000
  C   C206      1.0  0.17684  0.33093  0.86472  1.0000
  N   N20       1.0  0.10405  0.56389  0.78650  1.0000
  H   H315      1.0  0.05584  0.40883  0.68330  1.0000
  H   H316      1.0  0.16722  0.36913  0.81389  1.0000
  H   H317      1.0  0.22686  0.33330  0.95027  1.0000
  C   C207      1.0  0.21704  0.33956  0.91082  1.0000
  N   N21       1.0  0.99928  0.42670  0.75185  1.0000
  C   C208      1.0  0.19407  0.32739  0.86524  1.0000
  C   C209      1.0  0.07441  0.32887  0.97907  1.0000
  H   H318      1.0  0.22436  0.33107  0.90187  1.0000
  H   H319      1.0  0.07588  0.42192  0.66423  1.0000
  C   C210      1.0  0.98993  0.44143  0.75300  1.0000
  H   H320      1.0  0.00682  0.64847  0.97470  1.0000
  H   H321      1.0  0.10747  0.65279  0.76553  1.0000
  H   H322      1.0  0.04427  0.37962  0.65508  1.0000
  H   H323      1.0  0.05643  0.36421  0.66637  1.0000
  H   H324      1.0  0.99066  0.60525  0.73834  1.0000
  H   H325      1.0  0.99245  0.41666  0.78660  1.0000
  H   H326      1.0  0.12286  0.33441  0.83308  1.0000
  H   H327      1.0  0.99056  0.49691  0.73564  1.0000
  H   H328      1.0  0.17433  0.59476  0.65400  1.0000
  H   H329      1.0  0.05517  0.41276  0.65452  1.0000
  C   C211      1.0  0.98688  0.41047  0.74641  1.0000
  H   H330      1.0  0.18711  0.78649  0.07049  1.0000
  H   H331      1.0  0.18694  0.74654  0.08468  1.0000
  S   S76       1.0  0.10487  0.71422  0.04329  1.0000
  Fe  Fe38      1.0  0.12167  0.72782  0.06624  1.0000
  S   S77       1.0  0.12462  0.71596  0.10054  1.0000
  H   H332      1.0  0.03194  0.67816  0.06851  1.0000
  H   H333      1.0  0.20315  0.88864  0.04690  1.0000
  H   H334      1.0  0.19602  0.66604  0.14156  1.0000
  C   C212      1.0  0.04856  0.72044  0.03616  1.0000
  C   C213      1.0  0.03211  0.69006  0.05680  1.0000
  C   C214      1.0  0.04815  0.70470  0.05081  1.0000
  H   H335      1.0  0.06006  0.70396  0.05798  1.0000
  H   H336      1.0  0.17942  0.92189  0.06701  1.0000
  C   C215      1.0  0.11769  0.68491  0.13156  1.0000
  C   C216      1.0  0.12055  0.69202  0.10907  1.0000
  C   C217      1.0  0.12097  0.68013  0.09399  1.0000
  H   H337      1.0  0.11726  0.69400  0.14334  1.0000
  H   H338      1.0  0.12322  0.68545  0.07660  1.0000
  C   C218      1.0  0.01630  0.69070  0.04800  1.0000
  S   S78       1.0  0.11195  0.75361  0.06227  1.0000
  H   H339      1.0  0.18398  0.87459  0.08319  1.0000
  H   H340      1.0  0.15813  0.66690  0.25119  1.0000
  S   S79       1.0  0.06819  0.73977  0.02907  1.0000
  H   H341      1.0  0.17652  0.66638  0.11347  1.0000
  C   C219      1.0  0.11522  0.66607  0.13897  1.0000
  Fe  Fe39      1.0  0.12904  0.72899  0.01710  1.0000
  H   H342      1.0  0.17762  0.75554  0.06215  1.0000
  H   H343      1.0  0.15402  0.74240  0.12022  1.0000
  H   H344      1.0  0.03284  0.73318  0.01597  1.0000
  C   C220      1.0  0.03280  0.72105  0.02717  1.0000
  H   H345      1.0  0.18430  0.68045  0.15490  1.0000
  C   C221      1.0  0.01680  0.70627  0.03294  1.0000
  H   H346      1.0  0.00472  0.70717  0.02626  1.0000
  H   H347      1.0  0.09974  0.70844  0.99743  1.0000
  S   S80       1.0  0.99644  0.67173  0.05670  1.0000
  H   H348      1.0  0.21084  0.91314  0.03916  1.0000
  H   H349      1.0  0.17745  0.75233  0.12199  1.0000
  H   H350      1.0  0.15026  0.67040  0.16586  1.0000
  Fe  Fe40      1.0  0.09660  0.74046  0.03741  1.0000
  C   C222      1.0  0.11892  0.66133  0.10139  1.0000
  S   S81       1.0  0.14681  0.73983  0.04048  1.0000
  H   H351      1.0  0.16314  0.67941  0.12704  1.0000
  C   C223      1.0  0.16519  0.75543  0.11647  1.0000
  C   C224      1.0  0.19946  0.90165  0.04891  1.0000
  H   H352      1.0  0.14792  0.77748  0.09515  1.0000
  H   H353      1.0  0.15435  0.77234  0.06852  1.0000
  S   S82       1.0  0.20982  0.85492  0.06716  1.0000
  H   H354      1.0  0.18712  0.90156  0.04140  1.0000
  N   N22       1.0  0.16897  0.76326  0.09283  1.0000
  Fe  Fe41      1.0  0.13681  0.76517  0.03536  1.0000
  H   H355      1.0  0.17994  0.79105  0.09717  1.0000
  S   S83       1.0  0.16047  0.79198  0.02534  1.0000
  H   H356      1.0  0.10450  0.66596  0.25205  1.0000
  S   S84       1.0  0.12040  0.75473  0.01017  1.0000
  C   C225      1.0  0.15227  0.76709  0.08640  1.0000
  C   C226      1.0  0.19663  0.83704  0.05551  1.0000
  C   C227      1.0  0.20316  0.83227  0.03570  1.0000
  C   C228      1.0  0.19201  0.81837  0.02696  1.0000
  C   C229      1.0  0.17418  0.80886  0.03787  1.0000
  C   C230      1.0  0.16769  0.81356  0.05777  1.0000
  C   C231      1.0  0.17883  0.82749  0.06648  1.0000
  H   H357      1.0  0.21679  0.83939  0.02700  1.0000
  H   H358      1.0  0.19733  0.81495  0.01164  1.0000
  H   H359      1.0  0.15390  0.80684  0.06615  1.0000
  H   H360      1.0  0.17350  0.83108  0.08172  1.0000
  H   H361      1.0  0.16814  0.88781  0.07790  1.0000
  H   H362      1.0  0.17827  0.88879  0.10218  1.0000
  H   H363      1.0  0.21647  0.88998  0.08078  1.0000
  N   N23       1.0  0.19624  0.90346  0.07226  1.0000
  C   C232      1.0  0.18094  0.88802  0.08444  1.0000
  C   C233      1.0  0.21286  0.90314  0.08159  1.0000
  C   C234      1.0  0.19177  0.92103  0.07410  1.0000
  H   H364      1.0  0.14068  0.75450  0.09017  1.0000
  H   H365      1.0  0.20324  0.93290  0.06527  1.0000
  C   C235      1.0  0.18379  0.78048  0.08830  1.0000
  C   C236      1.0  0.00773  0.67895  0.99142  1.0000
  H   H366      1.0  0.16080  0.76506  0.12654  1.0000
  H   H367      1.0  0.21111  0.90478  0.09909  1.0000
  H   H368      1.0  0.18918  0.92280  0.09152  1.0000
  H   H369      1.0  0.19656  0.77820  0.09327  1.0000
  C   C237      1.0  0.17452  0.74997  0.08008  1.0000
  H   H370      1.0  0.16348  0.73692  0.08279  1.0000
  N   N24       1.0  0.02324  0.67099  0.98641  1.0000
  H   H371      1.0  0.11289  0.66087  0.15632  1.0000
  C   C238      1.0  0.16466  0.66535  0.12645  1.0000
  H   H372      1.0  0.22479  0.91439  0.07255  1.0000
  H   H373      1.0  0.08521  0.66704  0.23885  1.0000
  H   H374      1.0  0.01247  0.69400  0.99086  1.0000
  H   H375      1.0  0.09097  0.75996  0.98571  1.0000
  H   H376      1.0  0.99971  0.67276  0.00814  1.0000
  C   C239      1.0  0.18403  0.66595  0.15386  1.0000
  H   H377      1.0  0.02753  0.66700  0.01981  1.0000
  S   S85       1.0  0.13922  0.71847  0.98728  1.0000
  H   H378      1.0  0.04035  0.68869  0.00362  1.0000
  C   C240      1.0  0.03509  0.67385  0.00306  1.0000
  H   H379      1.0  0.04711  0.66827  0.99963  1.0000
  H   H380      1.0  0.16609  0.66057  0.28819  1.0000
  H   H381      1.0  0.18590  0.65936  0.17012  1.0000
  C   C241      1.0  0.17890  0.71937  0.57780  1.0000
  Fe  Fe42      1.0  0.20774  0.68663  0.55107  1.0000
  S   S86       1.0  0.18449  0.67678  0.53337  1.0000
  H   H382      1.0  0.16315  0.68411  0.57777  1.0000
  H   H383      1.0  0.15733  0.69788  0.55580  1.0000
  H   H384      1.0  0.23482  0.73771  0.35545  1.0000
  H   H385      1.0  0.18337  0.67127  0.48284  1.0000
  H   H386      1.0  0.21027  0.70196  0.41154  1.0000
  C   C242      1.0  0.14810  0.72224  0.57924  1.0000
  H   H387      1.0  0.18777  0.71028  0.58203  1.0000
  H   H388      1.0  0.15121  0.73453  0.58722  1.0000
  S   S87       1.0  0.19400  0.66823  0.58322  1.0000
  H   H389      1.0  0.22295  0.70966  0.34023  1.0000
  S   S88       1.0  0.22367  0.66744  0.53989  1.0000
  N   N25       1.0  0.15935  0.70971  0.58502  1.0000
  H   H390      1.0  0.18236  0.72403  0.55969  1.0000
  H   H391      1.0  0.15058  0.72716  0.56120  1.0000
  C   C243      1.0  0.15479  0.69373  0.57396  1.0000
  S   S89       1.0  0.21932  0.71737  0.54681  1.0000
  S   S90       1.0  0.18724  0.67195  0.34189  1.0000
  H   H392      1.0  0.14021  0.68580  0.57922  1.0000
  S   S91       1.0  0.17658  0.67035  0.40605  1.0000
  C   C244      1.0  0.22072  0.69872  0.39966  1.0000
  H   H393      1.0  0.18293  0.73163  0.58561  1.0000
  H   H394      1.0  0.14120  0.69511  0.61496  1.0000
  H   H395      1.0  0.15808  0.71515  0.61800  1.0000
  H   H396      1.0  0.13327  0.71529  0.58449  1.0000
  H   H397      1.0  0.16453  0.69465  0.61403  1.0000
  H   H398      1.0  0.17213  0.68062  0.44869  1.0000
  C   C245      1.0  0.15560  0.70341  0.60905  1.0000
  H   H399      1.0  0.23084  0.67445  0.42754  1.0000
  C   C246      1.0  0.18007  0.67068  0.44913  1.0000
  H   H400      1.0  0.21517  0.68439  0.39750  1.0000
  C   C247      1.0  0.23576  0.68917  0.42877  1.0000
  Fe  Fe43      1.0  0.21549  0.66782  0.33537  1.0000
  C   C248      1.0  0.18644  0.66544  0.46843  1.0000
  H   H401      1.0  0.22196  0.70763  0.38363  1.0000
  H   H402      1.0  0.22537  0.69209  0.44108  1.0000
  C   C249      1.0  0.18391  0.66307  0.43040  1.0000
  H   H403      1.0  0.23607  0.72477  0.42133  1.0000
  H   H404      1.0  0.16164  0.66260  0.61325  1.0000
  Fe  Fe44      1.0  0.18723  0.65931  0.37663  1.0000
  S   S92       1.0  0.07429  0.69504  0.86752  1.0000
  Fe  Fe45      1.0  0.10180  0.70586  0.84571  1.0000
  S   S93       1.0  0.11606  0.69434  0.81886  1.0000
  C   C250      1.0  0.15962  0.71739  0.82973  1.0000
  H   H405      1.0  0.15011  0.75662  0.80799  1.0000
  H   H406      1.0  0.07073  0.75375  0.97422  1.0000
  C   C251      1.0  0.17995  0.74381  0.80514  1.0000
  H   H407      1.0  0.04570  0.67426  0.96006  1.0000
  H   H408      1.0  0.14719  0.71210  0.84267  1.0000
  C   C252      1.0  0.11084  0.67114  0.78905  1.0000
  C   C253      1.0  0.10573  0.67357  0.81067  1.0000
  H   H409      1.0  0.18134  0.82156  0.93124  1.0000
  H   H410      1.0  0.12073  0.68210  0.77755  1.0000
  H   H411      1.0  0.21034  0.83984  0.97070  1.0000
  C   C254      1.0  0.99615  0.68064  0.85198  1.0000
  H   H412      1.0  0.19774  0.84338  0.92576  1.0000
  H   H413      1.0  0.06037  0.67685  0.76958  1.0000
  C   C255      1.0  0.03390  0.67999  0.96444  1.0000
  H   H414      1.0  0.08477  0.73822  0.97719  1.0000
  C   C256      1.0  0.01389  0.69108  0.85358  1.0000
  C   C257      1.0  0.12242  0.71242  0.97117  1.0000
  S   S94       1.0  0.04323  0.72351  0.84170  1.0000
  C   C258      1.0  0.00970  0.71695  0.82998  1.0000
  C   C259      1.0  0.11436  0.70850  0.93547  1.0000
  H   H415      1.0  0.06839  0.71255  0.80478  1.0000
  H   H416      1.0  0.01469  0.73096  0.82129  1.0000
  H   H417      1.0  0.11850  0.70855  0.91824  1.0000
  H   H418      1.0  0.14480  0.73447  0.79960  1.0000
  S   S95       1.0  0.07888  0.69980  0.92827  1.0000
  C   C260      1.0  0.05754  0.67155  0.78753  1.0000
  C   C261      1.0  0.09061  0.70402  0.96701  1.0000
  H   H419      1.0  0.03959  0.69498  0.96362  1.0000
  C   C262      1.0  0.09583  0.70425  0.94458  1.0000
  C   C263      1.0  0.09667  0.78098  0.94624  1.0000
  H   H420      1.0  0.02213  0.68502  0.86348  1.0000
  H   H421      1.0  0.17804  0.73696  0.79071  1.0000
  C   C264      1.0  0.09301  0.65927  0.82541  1.0000
  C   C265      1.0  0.03840  0.69180  0.79436  1.0000
  H   H422      1.0  0.07630  0.70078  0.97415  1.0000
  C   C266      1.0  0.02076  0.70937  0.84241  1.0000
  C   C267      1.0  0.19535  0.80603  0.96362  1.0000
  H   H423      1.0  0.15700  0.70980  0.81600  1.0000
  Fe  Fe46      1.0  0.08757  0.71055  0.89187  1.0000
  S   S96       1.0  0.11578  0.71843  0.87153  1.0000
  C   C268      1.0  0.12762  0.71232  0.94882  1.0000
  N   N26       1.0  0.05425  0.68571  0.80031  1.0000
  H   H424      1.0  0.08916  0.66087  0.84218  1.0000
  C   C269      1.0  0.21752  0.83559  0.95641  1.0000
  H   H425      1.0  0.20591  0.80713  0.92031  1.0000
  C   C270      1.0  0.21507  0.81685  0.92829  1.0000
  N   N27       1.0  0.20477  0.82239  0.94678  1.0000
  H   H426      1.0  0.10461  0.78764  0.92962  1.0000
  H   H427      1.0  0.09495  0.75769  0.91728  1.0000
  H   H428      1.0  0.04867  0.68850  0.83403  1.0000
  Fe  Fe47      1.0  0.06927  0.72188  0.85484  1.0000
  H   H429      1.0  0.17112  0.71363  0.83655  1.0000
  S   S97       1.0  0.09613  0.73202  0.83157  1.0000
  H   H430      1.0  0.14195  0.71546  0.94177  1.0000
  H   H431      1.0  0.02538  0.67818  0.95146  1.0000
  H   H432      1.0  0.19208  0.74089  0.81126  1.0000
  H   H433      1.0  0.17823  0.74397  0.84849  1.0000
  H   H434      1.0  0.03793  0.66639  0.82848  1.0000
  S   S98       1.0  0.08135  0.73722  0.88012  1.0000
  H   H435      1.0  0.11439  0.74434  0.95283  1.0000
  H   H436      1.0  0.20528  0.79942  0.97055  1.0000
  S   S99       1.0  0.19162  0.83041  0.88233  1.0000
  H   H437      1.0  0.12161  0.76574  0.96184  1.0000
  H   H438      1.0  0.08274  0.69756  0.80012  1.0000
  N   N28       1.0  0.09583  0.76125  0.95070  1.0000
  H   H439      1.0  0.02558  0.68046  0.79890  1.0000
  S   S100      1.0  0.23109  0.86764  0.89439  1.0000
  S   S101      1.0  0.13283  0.77079  0.84657  1.0000
  H   H440      1.0  0.18318  0.75889  0.79930  1.0000
  H   H441      1.0  0.18316  0.83561  0.95216  1.0000
  H   H442      1.0  0.16953  0.76204  0.83626  1.0000
  N   N29       1.0  0.16349  0.73742  0.82243  1.0000
  Fe  Fe48      1.0  0.22056  0.85021  0.87000  1.0000
  H   H443      1.0  0.07297  0.75355  0.93431  1.0000
  Fe  Fe49      1.0  0.10908  0.74442  0.85827  1.0000
  H   H444      1.0  0.06201  0.67281  0.82892  1.0000
  C   C271      1.0  0.10387  0.70838  0.98021  1.0000
  H   H445      1.0  0.08595  0.73709  0.93723  1.0000
  H   H446      1.0  0.99089  0.66665  0.86061  1.0000
  H   H447      1.0  0.12301  0.76505  0.93304  1.0000
  H   H448      1.0  0.15432  0.74264  0.85445  1.0000
  H   H449      1.0  0.03612  0.70309  0.80298  1.0000
  C   C272      1.0  0.17610  0.81321  0.87208  1.0000
  C   C273      1.0  0.17740  0.81224  0.84974  1.0000
  C   C274      1.0  0.16411  0.79919  0.84239  1.0000
  C   C275      1.0  0.14946  0.78660  0.85719  1.0000
  C   C276      1.0  0.14841  0.78723  0.87960  1.0000
  C   C277      1.0  0.16149  0.80054  0.88692  1.0000
  H   H450      1.0  0.18838  0.82189  0.83804  1.0000
  H   H451      1.0  0.16510  0.79902  0.82501  1.0000
  H   H452      1.0  0.13730  0.77773  0.89124  1.0000
  H   H453      1.0  0.16022  0.80111  0.90422  1.0000
  S   S102      1.0  0.23494  0.87378  0.84204  1.0000
  C   C278      1.0  0.19112  0.83111  0.93872  1.0000
  H   H454      1.0  0.22238  0.82888  0.91536  1.0000
  C   C279      1.0  0.14779  0.74161  0.81357  1.0000
  C   C280      1.0  0.16659  0.74689  0.84122  1.0000
  H   H455      1.0  0.13524  0.73710  0.82627  1.0000
  H   H456      1.0  0.07395  0.70770  0.77775  1.0000
  C   C281      1.0  0.11454  0.75905  0.94953  1.0000
  H   H457      1.0  0.22466  0.84821  0.94417  1.0000
  C   C282      1.0  0.08512  0.75295  0.97283  1.0000
  C   C283      1.0  0.05053  0.67796  0.82396  1.0000
  C   C284      1.0  0.08704  0.75203  0.93415  1.0000
  H   H458      1.0  0.22562  0.81033  0.93366  1.0000
  C   C285      1.0  0.07056  0.70157  0.79548  1.0000
  C   C286      1.0  0.99223  0.70669  0.82846  1.0000
  H   H459      1.0  0.22836  0.82966  0.96205  1.0000
  H   H460      1.0  0.99817  0.67654  0.97958  1.0000
  H   H461      1.0  0.10332  0.78834  0.95841  1.0000
  H   H462      1.0  0.08277  0.78313  0.94710  1.0000
  H   H463      1.0  0.18604  0.79557  0.95670  1.0000
  H   H464      1.0  0.04041  0.69707  0.77648  1.0000
  H   H465      1.0  0.18691  0.80958  0.97750  1.0000
  H   H466      1.0  0.06951  0.66679  0.79154  1.0000
  H   H467      1.0  0.15143  0.66365  0.65223  1.0000
  H   H468      1.0  0.04559  0.65928  0.79102  1.0000
  Fe  Fe50      1.0  0.33925  0.03640  0.06825  1.0000
  S   S103      1.0  0.36207  0.02334  0.06146  1.0000
  C   C287      1.0  0.40029  0.11103  0.11792  1.0000
  Fe  Fe51      1.0  0.36532  0.07516  0.06691  1.0000
  S   S104      1.0  0.38974  0.06385  0.06049  1.0000
  S   S105      1.0  0.37616  0.10622  0.06629  1.0000
  Fe  Fe52      1.0  0.37511  0.04913  0.03670  1.0000
  S   S106      1.0  0.38976  0.05166  0.00204  1.0000
  Fe  Fe53      1.0  0.37441  0.03939  0.08590  1.0000
  S   S107      1.0  0.38333  0.02565  0.11547  1.0000
  S   S108      1.0  0.35143  0.06142  0.04167  1.0000
  S   S109      1.0  0.35079  0.05128  0.09414  1.0000
  S   S110      1.0  0.36951  0.23275  0.09573  1.0000
  H   H469      1.0  0.29855  0.99957  0.00742  1.0000
  C   C288      1.0  0.44674  0.25239  0.05877  1.0000
  Fe  Fe54      1.0  0.46791  0.02455  0.21355  1.0000
  Fe  Fe55      1.0  0.47840  0.06551  0.21343  1.0000
  S   S111      1.0  0.30946  0.01965  0.07464  1.0000
  Fe  Fe56      1.0  0.47029  0.05088  0.17166  1.0000
  S   S112      1.0  0.46175  0.05666  0.13862  1.0000
  H   H470      1.0  0.28677  0.29579  0.00778  1.0000
  S   S113      1.0  0.45359  0.04648  0.20537  1.0000
  H   H471      1.0  0.41735  0.07471  0.13190  1.0000
  H   H472      1.0  0.44008  0.28466  0.04440  1.0000
  H   H473      1.0  0.43877  0.27075  0.02337  1.0000
  Fe  Fe57      1.0  0.37301  0.20951  0.07777  1.0000
  S   S114      1.0  0.40351  0.21814  0.07390  1.0000
  S   S115      1.0  0.35577  0.17963  0.08709  1.0000
  H   H474      1.0  0.32559  0.01882  0.03299  1.0000
  H   H475      1.0  0.42893  0.10601  0.09178  1.0000
  H   H476      1.0  0.27183  0.00241  0.08550  1.0000
  H   H477      1.0  0.32175  0.28714  0.01800  1.0000
  C   C289      1.0  0.47140  0.27968  0.05508  1.0000
  S   S116      1.0  0.37180  0.22530  0.04512  1.0000
  H   H478      1.0  0.30727  0.27572  0.00109  1.0000
  H   H479      1.0  0.33115  0.28571  0.99060  1.0000
  H   H480      1.0  0.39037  0.24871  0.00274  1.0000
  H   H481      1.0  0.45314  0.01439  0.14962  1.0000
  C   C290      1.0  0.41579  0.09531  0.09382  1.0000
  C   C291      1.0  0.44835  0.27914  0.03229  1.0000
  H   H482      1.0  0.39324  0.31066  0.11829  1.0000
  Fe  Fe58      1.0  0.40212  0.23492  0.04204  1.0000
  H   H483      1.0  0.30155  0.30773  0.02414  1.0000
  H   H484      1.0  0.31950  0.31396  0.05718  1.0000
  H   H485      1.0  0.29267  0.00991  0.03050  1.0000
  H   H486      1.0  0.34186  0.03292  0.01026  1.0000
  H   H487      1.0  0.41296  0.12220  0.11664  1.0000
  H   H488      1.0  0.25063  0.28927  0.06318  1.0000
  H   H489      1.0  0.40637  0.08689  0.14959  1.0000
  C   C292      1.0  0.38720  0.07903  0.11746  1.0000
  H   H490      1.0  0.37843  0.07688  0.13381  1.0000
  H   H491      1.0  0.39459  0.27711  0.09792  1.0000
  H   H492      1.0  0.38135  0.26005  0.13515  1.0000
  H   H493      1.0  0.40865  0.09921  0.08030  1.0000
  H   H494      1.0  0.42719  0.00919  0.22003  1.0000
  H   H495      1.0  0.39153  0.11005  0.13400  1.0000
  C   C293      1.0  0.36992  0.12639  0.07204  1.0000
  C   C294      1.0  0.38335  0.14333  0.06673  1.0000
  C   C295      1.0  0.37932  0.15969  0.07126  1.0000
  C   C296      1.0  0.36174  0.15935  0.08131  1.0000
  C   C297      1.0  0.34830  0.14243  0.08659  1.0000
  C   C298      1.0  0.35232  0.12607  0.08198  1.0000
  H   H496      1.0  0.39703  0.14379  0.05908  1.0000
  H   H497      1.0  0.38983  0.17254  0.06713  1.0000
  H   H498      1.0  0.33465  0.14197  0.09432  1.0000
  H   H499      1.0  0.34182  0.11321  0.08623  1.0000
  H   H500      1.0  0.34910  0.00344  0.10745  1.0000
  H   H501      1.0  0.46349  0.28479  0.06806  1.0000
  H   H502      1.0  0.35880  0.25597  0.12867  1.0000
  C   C299      1.0  0.41441  0.08817  0.13295  1.0000
  H   H503      1.0  0.38979  0.06563  0.11515  1.0000
  H   H504      1.0  0.45727  0.29101  0.02008  1.0000
  H   H505      1.0  0.28556  0.01623  0.00507  1.0000
  H   H506      1.0  0.37043  0.01364  0.00529  1.0000
  C   C300      1.0  0.40520  0.03419  0.12176  1.0000
  C   C301      1.0  0.40827  0.02959  0.14320  1.0000
  C   C302      1.0  0.42551  0.03643  0.14872  1.0000
  C   C303      1.0  0.43985  0.04768  0.13270  1.0000
  C   C304      1.0  0.43681  0.05206  0.11122  1.0000
  C   C305      1.0  0.41954  0.04540  0.10577  1.0000
  H   H507      1.0  0.39721  0.02090  0.15567  1.0000
  H   H508      1.0  0.42768  0.03308  0.16536  1.0000
  H   H509      1.0  0.44790  0.06065  0.09872  1.0000
  H   H510      1.0  0.41741  0.04873  0.08912  1.0000
  H   H511      1.0  0.41910  0.08224  0.09138  1.0000
  S   S117      1.0  0.47832  0.09021  0.22996  1.0000
  H   H512      1.0  0.39286  0.11535  0.10489  1.0000
  H   H513      1.0  0.42773  0.09844  0.13174  1.0000
  N   N30       1.0  0.40444  0.09339  0.11555  1.0000
  H   H514      1.0  0.39052  0.17610  0.02180  1.0000
  H   H515      1.0  0.37916  0.08274  0.10488  1.0000
  H   H516      1.0  0.35421  0.16134  0.98922  1.0000
  N   N31       1.0  0.31511  0.30518  0.99268  1.0000
  C   C306      1.0  0.35476  0.17418  0.02713  1.0000
  H   H517      1.0  0.44699  0.31989  0.09238  1.0000
  N   N32       1.0  0.31407  0.02749  0.00531  1.0000
  H   H518      1.0  0.38642  0.29588  0.08653  1.0000
  N   N33       1.0  0.36828  0.18116  0.00662  1.0000
  H   H519      1.0  0.47824  0.25284  0.03391  1.0000
  H   H520      1.0  0.46107  0.25270  0.01705  1.0000
  S   S118      1.0  0.42066  0.23431  0.01103  1.0000
  C   C307      1.0  0.36941  0.26593  0.13461  1.0000
  H   H521      1.0  0.32418  0.05582  0.00787  1.0000
  H   H522      1.0  0.39727  0.19280  0.99685  1.0000
  C   C308      1.0  0.29718  0.99689  0.07323  1.0000
  C   C309      1.0  0.40964  0.23555  0.98810  1.0000
  H   H523      1.0  0.30809  0.04207  0.03128  1.0000
  H   H524      1.0  0.47963  0.27288  0.01423  1.0000
  H   H525      1.0  0.42287  0.99730  0.17200  1.0000
  N   N34       1.0  0.45916  0.26817  0.04313  1.0000
  H   H526      1.0  0.37227  0.27290  0.09093  1.0000
  H   H527      1.0  0.32543  0.99276  0.10796  1.0000
  C   C310      1.0  0.33916  0.27836  0.06362  1.0000
  H   H528      1.0  0.48087  0.29186  0.04386  1.0000
  H   H529      1.0  0.30032  0.04888  0.00638  1.0000
  C   C311      1.0  0.29905  0.30727  0.00708  1.0000
  H   H530      1.0  0.46590  0.00278  0.13305  1.0000
  S   S119      1.0  0.28766  0.29484  0.09025  1.0000
  C   C312      1.0  0.36952  0.02107  0.98964  1.0000
  H   H531      1.0  0.35739  0.16206  0.03687  1.0000
  C   C313      1.0  0.42972  0.27526  0.11802  1.0000
  C   C314      1.0  0.43364  0.29086  0.10168  1.0000
  C   C315      1.0  0.44408  0.30791  0.10509  1.0000
  C   C316      1.0  0.45085  0.30968  0.12477  1.0000
  C   C317      1.0  0.44697  0.29406  0.14103  1.0000
  C   C318      1.0  0.43649  0.27702  0.13765  1.0000
  H   H532      1.0  0.42864  0.28985  0.08645  1.0000
  H   H533      1.0  0.38303  0.29883  0.14576  1.0000
  H   H534      1.0  0.45204  0.29511  0.15624  1.0000
  H   H535      1.0  0.43362  0.26510  0.15044  1.0000
  H   H536      1.0  0.33125  0.00929  0.00932  1.0000
  C   C319      1.0  0.30775  0.28881  0.08027  1.0000
  C   C320      1.0  0.32118  0.30075  0.06375  1.0000
  C   C321      1.0  0.33678  0.29553  0.05550  1.0000
  C   C322      1.0  0.47005  0.26137  0.02635  1.0000
  C   C323      1.0  0.31023  0.27170  0.08866  1.0000
  S   S120      1.0  0.48280  0.02763  0.17932  1.0000
  C   C324      1.0  0.38236  0.28247  0.09794  1.0000
  H   H537      1.0  0.29562  0.32023  0.00113  1.0000
  C   C325      1.0  0.38847  0.29694  0.12905  1.0000
  H   H538      1.0  0.34701  0.30482  0.04258  1.0000
  H   H539      1.0  0.32754  0.25316  0.08669  1.0000
  Fe  Fe59      1.0  0.28612  0.32371  0.07785  1.0000
  H   H540      1.0  0.40072  0.29174  0.13037  1.0000
  H   H541      1.0  0.34061  0.16989  0.02381  1.0000
  S   S121      1.0  0.41617  0.25338  0.11509  1.0000
  C   C326      1.0  0.35834  0.29114  0.11946  1.0000
  Fe  Fe60      1.0  0.40030  0.24282  0.08882  1.0000
  Fe  Fe61      1.0  0.37100  0.24915  0.06243  1.0000
  H   H542      1.0  0.34774  0.28179  0.11274  1.0000
  H   H543      1.0  0.36178  0.30481  0.10866  1.0000
  H   H544      1.0  0.29987  0.26236  0.10140  1.0000
  H   H545      1.0  0.36386  0.26667  0.15176  1.0000
  H   H546      1.0  0.45439  0.24388  0.06749  1.0000
  N   N35       1.0  0.37464  0.28414  0.12030  1.0000
  C   C327      1.0  0.36375  0.19666  0.99374  1.0000
  S   S122      1.0  0.40158  0.26008  0.05647  1.0000
  C   C328      1.0  0.32592  0.26648  0.08043  1.0000
  S   S123      1.0  0.35863  0.27239  0.05151  1.0000
  H   H547      1.0  0.35199  0.29248  0.13604  1.0000
  C   C329      1.0  0.33110  0.32057  0.99261  1.0000
  C   C330      1.0  0.32885  0.02188  0.01484  1.0000
  C   C331      1.0  0.45183  0.00322  0.13971  1.0000
  H   H548      1.0  0.43754  0.24330  0.05018  1.0000
  H   H549      1.0  0.35512  0.18477  0.03780  1.0000
  C   C332      1.0  0.37767  0.03994  0.98407  1.0000
  C   C333      1.0  0.29695  0.01265  0.01234  1.0000
  C   C334      1.0  0.31153  0.04431  0.01302  1.0000
  H   H550      1.0  0.43809  0.25692  0.07154  1.0000
  C   C335      1.0  0.39468  0.24295  0.98871  1.0000
  H   H551      1.0  0.33331  0.99817  0.13269  1.0000
  H   H552      1.0  0.47982  0.27184  0.06338  1.0000
  H   H553      1.0  0.37130  0.15443  0.00278  1.0000
  C   C336      1.0  0.31898  0.28767  0.00094  1.0000
  H   H554      1.0  0.34982  0.19260  0.98971  1.0000
  H   H555      1.0  0.36438  0.20833  0.00277  1.0000
  H   H556      1.0  0.33384  0.32147  0.00951  1.0000
  S   S124      1.0  0.45733  0.99517  0.23061  1.0000
  C   C337      1.0  0.36792  0.16637  0.99358  1.0000
  H   H557      1.0  0.24093  0.26669  0.09778  1.0000
  H   H558      1.0  0.24843  0.29948  0.09910  1.0000
  H   H559      1.0  0.47410  0.26232  0.30047  1.0000
  C   C338      1.0  0.38670  0.18742  0.01196  1.0000
  H   H560      1.0  0.44538  0.00737  0.12564  1.0000
  H   H561      1.0  0.38755  0.19870  0.02164  1.0000
  H   H562      1.0  0.39692  0.99364  0.21252  1.0000
  H   H563      1.0  0.34364  0.31917  0.98252  1.0000
  C   C339      1.0  0.42343  0.99450  0.22082  1.0000
  C   C340      1.0  0.33686  0.99306  0.11727  1.0000
  C   C341      1.0  0.27821  0.99238  0.07957  1.0000
  C   C342      1.0  0.48465  0.26666  0.33944  1.0000
  H   H564      1.0  0.46123  0.10253  0.34353  1.0000
  H   H565      1.0  0.46203  0.07042  0.35487  1.0000
  H   H566      1.0  0.44878  0.08682  0.38205  1.0000
  H   H567      1.0  0.46967  0.26087  0.34112  1.0000
  C   C343      1.0  0.47469  0.10711  0.34864  1.0000
  N   N36       1.0  0.47700  0.09370  0.36673  1.0000
  H   H568      1.0  0.46001  0.01361  0.64209  1.0000
  H   H569      1.0  0.48614  0.07694  0.34498  1.0000
  C   C344      1.0  0.47552  0.07580  0.35957  1.0000
  C   C345      1.0  0.46282  0.02870  0.63661  1.0000
  H   H570      1.0  0.47736  0.06536  0.37271  1.0000
  C   C346      1.0  0.46267  0.09164  0.38599  1.0000
  H   H571      1.0  0.47460  0.03103  0.59356  1.0000
  H   H572      1.0  0.46398  0.08157  0.39993  1.0000
  H   H573      1.0  0.45259  0.03112  0.62638  1.0000
  H   H574      1.0  0.48199  0.01333  0.60892  1.0000
  H   H575      1.0  0.47578  0.06031  0.60703  1.0000
  H   H576      1.0  0.46357  0.10492  0.39186  1.0000
  H   H577      1.0  0.48535  0.10907  0.33385  1.0000
  N   N37       1.0  0.48167  0.03668  0.62446  1.0000
  H   H578      1.0  0.47644  0.23466  0.32471  1.0000
  H   H579      1.0  0.48278  0.06330  0.63281  1.0000
  H   H580      1.0  0.47572  0.12079  0.35343  1.0000
  C   C347      1.0  0.48502  0.05676  0.61814  1.0000
  C   C348      1.0  0.48426  0.02846  0.60460  1.0000
  Fe  Fe62      1.0  0.33846  0.01120  0.86000  1.0000
  S   S125      1.0  0.36119  0.00666  0.87729  1.0000
  H   H581      1.0  0.38653  0.02270  0.91657  1.0000
  Fe  Fe63      1.0  0.34770  0.05236  0.86578  1.0000
  S   S126      1.0  0.37057  0.04949  0.88363  1.0000
  S   S127      1.0  0.34089  0.08020  0.85866  1.0000
  Fe  Fe64      1.0  0.37830  0.03355  0.85767  1.0000
  S   S128      1.0  0.40861  0.03803  0.84474  1.0000
  Fe  Fe65      1.0  0.35133  0.02278  0.90132  1.0000
  S   S129      1.0  0.34701  0.00928  0.93683  1.0000
  S   S130      1.0  0.35644  0.03764  0.83862  1.0000
  S   S131      1.0  0.32762  0.02615  0.88533  1.0000
  N   N38       1.0  0.41544  0.03539  0.90969  1.0000
  H   H582      1.0  0.40075  0.05597  0.91157  1.0000
  Fe  Fe66      1.0  0.46598  0.02083  0.73431  1.0000
  S   S132      1.0  0.46582  0.02657  0.69805  1.0000
  S   S133      1.0  0.43756  0.01476  0.75501  1.0000
  H   H583      1.0  0.46040  0.03484  0.65155  1.0000
  C   C349      1.0  0.40964  0.18493  0.83598  1.0000
  H   H584      1.0  0.42154  0.28713  0.79556  1.0000
  H   H585      1.0  0.31644  0.30296  0.82426  1.0000
  H   H586      1.0  0.44440  0.04361  0.89777  1.0000
  N   N39       1.0  0.40227  0.17041  0.82373  1.0000
  H   H587      1.0  0.31038  0.32397  0.82675  1.0000
  Fe  Fe67      1.0  0.37121  0.18975  0.87821  1.0000
  S   S134      1.0  0.39714  0.20902  0.88360  1.0000
  S   S135      1.0  0.37139  0.15915  0.88550  1.0000
  Fe  Fe68      1.0  0.37884  0.22400  0.90029  1.0000
  S   S136      1.0  0.47699  0.31551  0.79823  1.0000
  C   C350      1.0  0.41294  0.17461  0.80125  1.0000
  S   S137      1.0  0.35300  0.20377  0.89713  1.0000
  S   S138      1.0  0.37116  0.20709  0.84600  1.0000
  H   H588      1.0  0.36657  0.04759  0.93322  1.0000
  H   H589      1.0  0.40042  0.00708  0.91344  1.0000
  H   H590      1.0  0.40857  0.19853  0.82820  1.0000
  C   C351      1.0  0.40352  0.15255  0.83501  1.0000
  C   C352      1.0  0.40622  0.31570  0.76067  1.0000
  C   C353      1.0  0.38298  0.16964  0.82266  1.0000
  H   H591      1.0  0.40501  0.03515  0.94349  1.0000
  C   C354      1.0  0.43195  0.03306  0.89641  1.0000
  C   C355      1.0  0.41307  0.05370  0.90193  1.0000
  H   H592      1.0  0.38160  0.18269  0.81358  1.0000
  H   H593      1.0  0.41792  0.15243  0.83547  1.0000
  H   H594      1.0  0.43742  0.31277  0.73833  1.0000
  H   H595      1.0  0.42426  0.18621  0.83686  1.0000
  Fe  Fe69      1.0  0.35518  0.22278  0.86540  1.0000
  H   H596      1.0  0.33949  0.25074  0.89060  1.0000
  H   H597      1.0  0.39725  0.14108  0.82691  1.0000
  H   H598      1.0  0.37471  0.16738  0.83932  1.0000
  C   C356      1.0  0.34949  0.10200  0.86649  1.0000
  C   C357      1.0  0.36246  0.10482  0.88026  1.0000
  C   C358      1.0  0.36869  0.12225  0.88609  1.0000
  C   C359      1.0  0.36219  0.13723  0.87822  1.0000
  C   C360      1.0  0.34927  0.13445  0.86438  1.0000
  C   C361      1.0  0.34299  0.11699  0.85862  1.0000
  H   H599      1.0  0.36761  0.09353  0.88653  1.0000
  H   H600      1.0  0.37867  0.12413  0.89680  1.0000
  H   H601      1.0  0.34393  0.14565  0.85828  1.0000
  H   H602      1.0  0.33289  0.11504  0.84806  1.0000
  C   C362      1.0  0.41653  0.03189  0.81950  1.0000
  C   C363      1.0  0.40444  0.02258  0.80745  1.0000
  C   C364      1.0  0.41117  0.01760  0.78771  1.0000
  C   C365      1.0  0.43004  0.02194  0.77968  1.0000
  C   C366      1.0  0.44216  0.03132  0.79167  1.0000
  C   C367      1.0  0.43542  0.03622  0.81153  1.0000
  H   H603      1.0  0.38989  0.01920  0.81336  1.0000
  H   H604      1.0  0.40166  0.01045  0.77853  1.0000
  H   H605      1.0  0.45670  0.03473  0.78572  1.0000
  H   H606      1.0  0.41001  0.22303  0.93753  1.0000
  H   H607      1.0  0.40763  0.16399  0.79150  1.0000
  H   H608      1.0  0.42757  0.17526  0.80143  1.0000
  H   H609      1.0  0.40205  0.18207  0.85312  1.0000
  H   H610      1.0  0.43087  0.03436  0.87868  1.0000
  H   H611      1.0  0.41241  0.18813  0.79244  1.0000
  C   C368      1.0  0.41737  0.03371  0.93303  1.0000
  C   C369      1.0  0.35922  0.02129  0.95451  1.0000
  C   C370      1.0  0.41129  0.29286  0.78818  1.0000
  H   H612      1.0  0.39626  0.14941  0.85231  1.0000
  H   H613      1.0  0.38326  0.06399  0.95911  1.0000
  C   C371      1.0  0.39066  0.23592  0.95256  1.0000
  H   H614      1.0  0.29941  0.29375  0.96945  1.0000
  C   C372      1.0  0.39933  0.02108  0.90733  1.0000
  C   C373      1.0  0.36754  0.04012  0.94880  1.0000
  C   C374      1.0  0.37685  0.04940  0.96353  1.0000
  C   C375      1.0  0.40579  0.22865  0.95173  1.0000
  H   H615      1.0  0.37662  0.15826  0.81450  1.0000
  H   H616      1.0  0.40319  0.29729  0.80155  1.0000
  H   H617      1.0  0.44489  0.04344  0.82070  1.0000
  H   H618      1.0  0.39773  0.02171  0.88986  1.0000
  N   N40       1.0  0.42021  0.30822  0.76984  1.0000
  H   H619      1.0  0.41150  0.05537  0.88436  1.0000
  Fe  Fe70      1.0  0.39606  0.22699  0.85228  1.0000
  H   H620      1.0  0.42699  0.22292  0.96883  1.0000
  H   H621      1.0  0.42502  0.06485  0.90333  1.0000
  C   C376      1.0  0.41536  0.22860  0.96945  1.0000
  H   H622      1.0  0.42922  0.04447  0.93553  1.0000
  Fe  Fe71      1.0  0.47963  0.00422  0.69546  1.0000
  S   S139      1.0  0.33232  0.23317  0.85287  1.0000
  S   S140      1.0  0.38004  0.24362  0.86937  1.0000
  S   S141      1.0  0.37716  0.23544  0.93192  1.0000
  H   H623      1.0  0.33873  0.30236  0.86065  1.0000
  S   S142      1.0  0.41882  0.23715  0.82225  1.0000
  S   S143      1.0  0.47941  0.32153  0.73333  1.0000
  H   H624      1.0  0.42176  0.29037  0.74625  1.0000
  H   H625      1.0  0.30834  0.03566  0.97324  1.0000
  Fe  Fe72      1.0  0.28264  0.31071  0.88353  1.0000
  H   H626      1.0  0.44363  0.31771  0.78458  1.0000
  H   H627      1.0  0.39657  0.30507  0.75438  1.0000
  H   H628      1.0  0.30519  0.25146  0.84195  1.0000
  S   S144      1.0  0.27196  0.31453  0.85198  1.0000
  H   H629      1.0  0.30822  0.31821  0.96345  1.0000
  H   H630      1.0  0.32092  0.01865  0.97474  1.0000
  C   C377      1.0  0.36028  0.01179  0.97490  1.0000
  S   S145      1.0  0.30002  0.29244  0.89607  1.0000
  H   H631      1.0  0.30934  0.30785  0.85078  1.0000
  H   H632      1.0  0.41934  0.02012  0.93940  1.0000
  C   C378      1.0  0.30836  0.27565  0.88391  1.0000
  C   C379      1.0  0.30250  0.26939  0.86542  1.0000
  C   C380      1.0  0.30996  0.25642  0.85606  1.0000
  C   C381      1.0  0.32925  0.25593  0.88345  1.0000
  C   C382      1.0  0.32174  0.26881  0.89285  1.0000
  H   H633      1.0  0.29201  0.27427  0.85854  1.0000
  H   H634      1.0  0.32638  0.27351  0.90716  1.0000
  C   C383      1.0  0.46099  0.29362  0.80473  1.0000
  C   C384      1.0  0.45926  0.28160  0.78970  1.0000
  C   C385      1.0  0.44639  0.26432  0.79541  1.0000
  C   C386      1.0  0.43496  0.25894  0.81610  1.0000
  C   C387      1.0  0.43658  0.27101  0.83109  1.0000
  C   C388      1.0  0.44965  0.28820  0.82547  1.0000
  H   H635      1.0  0.46809  0.28549  0.77382  1.0000
  H   H636      1.0  0.44532  0.25504  0.78376  1.0000
  H   H637      1.0  0.42793  0.26702  0.84709  1.0000
  H   H638      1.0  0.45096  0.29735  0.83727  1.0000
  H   H639      1.0  0.39817  0.32101  0.77320  1.0000
  C   C389      1.0  0.32334  0.24957  0.86505  1.0000
  H   H640      1.0  0.43407  0.01931  0.90160  1.0000
  C   C390      1.0  0.38530  0.24320  0.97101  1.0000
  S   S146      1.0  0.25656  0.31242  0.90339  1.0000
  Fe  Fe73      1.0  0.24674  0.31901  0.87167  1.0000
  H   H641      1.0  0.40200  0.28139  0.78269  1.0000
  H   H642      1.0  0.36004  0.31556  0.84418  1.0000
  H   H643      1.0  0.34480  0.29836  0.83348  1.0000
  H   H644      1.0  0.44159  0.29615  0.75875  1.0000
  C   C391      1.0  0.43068  0.30156  0.75253  1.0000
  C   C392      1.0  0.31734  0.31409  0.83415  1.0000
  H   H645      1.0  0.37342  0.20192  0.97790  1.0000
  H   H646      1.0  0.37367  0.24890  0.97171  1.0000
  C   C393      1.0  0.34547  0.30931  0.84365  1.0000
  H   H647      1.0  0.32322  0.30383  0.95870  1.0000
  H   H648      1.0  0.37795  0.17122  0.97794  1.0000
  C   C394      1.0  0.43271  0.32278  0.77794  1.0000
  C   C395      1.0  0.31134  0.30523  0.97010  1.0000
  S   S147      1.0  0.47787  0.99691  0.73155  1.0000
  N   N41       1.0  0.33644  0.32320  0.83521  1.0000
  H   H649      1.0  0.34596  0.32294  0.80136  1.0000
  H   H650      1.0  0.44052  0.99300  0.67667  1.0000
  H   H651      1.0  0.35398  0.99718  0.97931  1.0000
  H   H652      1.0  0.33208  0.04203  0.97533  1.0000
  H   H653      1.0  0.40959  0.99263  0.73700  1.0000
  C   C396      1.0  0.31902  0.03112  0.98112  1.0000
  S   S148      1.0  0.31012  0.34833  0.06679  1.0000
  S   S149      1.0  0.28035  0.37149  0.05438  1.0000
  Fe  Fe74      1.0  0.29614  0.35410  0.03817  1.0000
  S   S150      1.0  0.31101  0.35846  0.00325  1.0000
  Fe  Fe75      1.0  0.29255  0.36368  0.08414  1.0000
  S   S151      1.0  0.30079  0.38066  0.11050  1.0000
  H   H654      1.0  0.35428  0.49800  0.24746  1.0000
  H   H655      1.0  0.33175  0.45953  0.28645  1.0000
  Fe  Fe76      1.0  0.37762  0.45911  0.19640  1.0000
  S   S152      1.0  0.39255  0.47422  0.16276  1.0000
  S   S153      1.0  0.36259  0.47434  0.21802  1.0000
  Fe  Fe77      1.0  0.38969  0.42487  0.19028  1.0000
  S   S154      1.0  0.40624  0.43776  0.15718  1.0000
  S   S155      1.0  0.38743  0.39484  0.19955  1.0000
  Fe  Fe78      1.0  0.41561  0.46301  0.17179  1.0000
  Fe  Fe79      1.0  0.38151  0.44736  0.15133  1.0000
  S   S156      1.0  0.37214  0.44161  0.11918  1.0000
  S   S157      1.0  0.40109  0.44896  0.20578  1.0000
  S   S158      1.0  0.36465  0.43349  0.18412  1.0000
  C   C397      1.0  0.41186  0.51110  0.24152  1.0000
  S   S159      1.0  0.46441  0.38348  0.21118  1.0000
  H   H656      1.0  0.47799  0.63178  0.25292  1.0000
  H   H657      1.0  0.46875  0.42439  0.19407  1.0000
  C   C398      1.0  0.40843  0.39100  0.20349  1.0000
  C   C399      1.0  0.41413  0.37676  0.19516  1.0000
  C   C400      1.0  0.43125  0.37407  0.19769  1.0000
  C   C401      1.0  0.44235  0.38525  0.20918  1.0000
  C   C402      1.0  0.43634  0.39907  0.21806  1.0000
  C   C403      1.0  0.41960  0.40222  0.21479  1.0000
  H   H658      1.0  0.40547  0.36801  0.18647  1.0000
  H   H659      1.0  0.43586  0.36337  0.19083  1.0000
  H   H660      1.0  0.44482  0.40758  0.22720  1.0000
  H   H661      1.0  0.41515  0.41308  0.22147  1.0000
  H   H662      1.0  0.31778  0.43801  0.30188  1.0000
  H   H663      1.0  0.42059  0.51775  0.25251  1.0000
  C   C404      1.0  0.31281  0.48065  0.30521  1.0000
  C   C405      1.0  0.35189  0.42520  0.11668  1.0000
  C   C406      1.0  0.33715  0.41832  0.13408  1.0000
  C   C407      1.0  0.32144  0.40521  0.13154  1.0000
  C   C408      1.0  0.32036  0.39842  0.11180  1.0000
  C   C409      1.0  0.33509  0.40532  0.09434  1.0000
  C   C410      1.0  0.35068  0.41873  0.09675  1.0000
  H   H664      1.0  0.33773  0.42328  0.14942  1.0000
  H   H665      1.0  0.31010  0.40010  0.14510  1.0000
  H   H666      1.0  0.33447  0.40036  0.07901  1.0000
  H   H667      1.0  0.36192  0.42405  0.08309  1.0000
  N   N42       1.0  0.31280  0.46169  0.31408  1.0000
  C   C411      1.0  0.37903  0.46587  0.27685  1.0000
  C   C412      1.0  0.37559  0.46413  0.25562  1.0000
  C   C413      1.0  0.36667  0.47571  0.24492  1.0000
  S   S160      1.0  0.46380  0.33170  0.12813  1.0000
  H   H668      1.0  0.37974  0.45374  0.24762  1.0000
  S   S161      1.0  0.46806  0.33487  0.19211  1.0000
  H   H669      1.0  0.30253  0.48091  0.29433  1.0000
  C   C414      1.0  0.37364  0.47923  0.28753  1.0000
  H   H670      1.0  0.47564  0.63122  0.29311  1.0000
  H   H671      1.0  0.46760  0.44384  0.12702  1.0000
  H   H672      1.0  0.47776  0.49907  0.18196  1.0000
  C   C415      1.0  0.45764  0.41319  0.15790  1.0000
  H   H673      1.0  0.38595  0.45687  0.28502  1.0000
  H   H674      1.0  0.45884  0.56187  0.31013  1.0000
  Fe  Fe80      1.0  0.25816  0.34504  0.06639  1.0000
  N   N43       1.0  0.36355  0.37617  0.14855  1.0000
  C   C416      1.0  0.37523  0.36840  0.13384  1.0000
  C   C417      1.0  0.37250  0.39580  0.14750  1.0000
  C   C418      1.0  0.36078  0.36629  0.17130  1.0000
  C   C419      1.0  0.34569  0.37426  0.14149  1.0000
  H   H675      1.0  0.37744  0.37559  0.11654  1.0000
  H   H676      1.0  0.36894  0.35359  0.13426  1.0000
  H   H677      1.0  0.38889  0.36983  0.13863  1.0000
  H   H678      1.0  0.36393  0.40230  0.15801  1.0000
  H   H679      1.0  0.38584  0.39776  0.15318  1.0000
  H   H680      1.0  0.37510  0.40366  0.13050  1.0000
  H   H681      1.0  0.37402  0.36653  0.17674  1.0000
  H   H682      1.0  0.35301  0.35170  0.17306  1.0000
  H   H683      1.0  0.35315  0.37275  0.18302  1.0000
  H   H684      1.0  0.33650  0.37988  0.15238  1.0000
  H   H685      1.0  0.33853  0.35970  0.14172  1.0000
  H   H686      1.0  0.34726  0.38178  0.12450  1.0000
  C   C420      1.0  0.46533  0.43477  0.18220  1.0000
  C   C421      1.0  0.36467  0.49078  0.27686  1.0000
  H   H687      1.0  0.44270  0.49405  0.21246  1.0000
  H   H688      1.0  0.40145  0.50898  0.20250  1.0000
  S   S162      1.0  0.27353  0.32841  0.04819  1.0000
  H   H689      1.0  0.40332  0.49771  0.25108  1.0000
  S   S163      1.0  0.44572  0.47720  0.17025  1.0000
  H   H690      1.0  0.44404  0.53338  0.22006  1.0000
  S   S164      1.0  0.26906  0.33830  0.09725  1.0000
  H   H691      1.0  0.45067  0.43419  0.18729  1.0000
  H   H692      1.0  0.32637  0.48856  0.29550  1.0000
  C   C422      1.0  0.31780  0.45241  0.29581  1.0000
  C   C423      1.0  0.36111  0.48894  0.25569  1.0000
  Fe  Fe81      1.0  0.47861  0.34239  0.15552  1.0000
  H   H693      1.0  0.41854  0.49851  0.19157  1.0000
  C   C424      1.0  0.48519  0.62506  0.28465  1.0000
  C   C425      1.0  0.43437  0.49639  0.22731  1.0000
  S   S165      1.0  0.48534  0.37317  0.15493  1.0000
  N   N44       1.0  0.42290  0.50866  0.22139  1.0000
  H   H694      1.0  0.27306  0.35835  0.00354  1.0000
  N   N45       1.0  0.46907  0.43140  0.15952  1.0000
  C   C426      1.0  0.48014  0.52734  0.16867  1.0000
  H   H695      1.0  0.32889  0.33395  0.98577  1.0000
  H   H696      1.0  0.44329  0.52533  0.19459  1.0000
  H   H697      1.0  0.40242  0.51963  0.23766  1.0000
  H   H698      1.0  0.44391  0.50220  0.23800  1.0000
  H   H699      1.0  0.36078  0.50133  0.28475  1.0000
  S   S166      1.0  0.48327  0.56340  0.15027  1.0000
  C   C427      1.0  0.47175  0.50833  0.17266  1.0000
  C   C428      1.0  0.43465  0.52669  0.20971  1.0000
  C   C429      1.0  0.47270  0.53946  0.15635  1.0000
  C   C430      1.0  0.45661  0.53239  0.14845  1.0000
  C   C431      1.0  0.44796  0.51341  0.15292  1.0000
  C   C432      1.0  0.41068  0.50041  0.20702  1.0000
  H   H700      1.0  0.42641  0.53620  0.20471  1.0000
  H   H701      1.0  0.45076  0.54164  0.13887  1.0000
  H   H702      1.0  0.43560  0.50815  0.14670  1.0000
  H   H703      1.0  0.42586  0.48268  0.23625  1.0000
  C   C433      1.0  0.45559  0.50127  0.16491  1.0000
  H   H704      1.0  0.40184  0.48670  0.21527  1.0000
  Fe  Fe82      1.0  0.47648  0.36540  0.19143  1.0000
  H   H705      1.0  0.47275  0.45970  0.14553  1.0000
  C   C434      1.0  0.27900  0.35717  0.98726  1.0000
  H   H706      1.0  0.30818  0.45214  0.28400  1.0000
  S   S167      1.0  0.37875  0.48131  0.31387  1.0000
  H   H707      1.0  0.45934  0.41059  0.14077  1.0000
  H   H708      1.0  0.46139  0.40203  0.16809  1.0000
  H   H709      1.0  0.45005  0.44548  0.14828  1.0000
  H   H710      1.0  0.44288  0.41182  0.16365  1.0000
  H   H711      1.0  0.47340  0.44856  0.18391  1.0000
  C   C435      1.0  0.46473  0.44571  0.14435  1.0000
  H   H712      1.0  0.43925  0.58292  0.30410  1.0000
  C   C436      1.0  0.29733  0.35706  0.98268  1.0000
  H   H713      1.0  0.45460  0.59981  0.31488  1.0000
  S   S168      1.0  0.48203  0.62006  0.50206  1.0000
  Fe  Fe83      1.0  0.47876  0.63211  0.34406  1.0000
  H   H714      1.0  0.28912  0.51835  0.53021  1.0000
  C   C437      1.0  0.33918  0.49216  0.46184  1.0000
  C   C438      1.0  0.38019  0.48818  0.61965  1.0000
  S   S169      1.0  0.33478  0.49106  0.50633  1.0000
  C   C439      1.0  0.47955  0.62454  0.45842  1.0000
  H   H715      1.0  0.32512  0.48414  0.46484  1.0000
  H   H716      1.0  0.26293  0.47265  0.56759  1.0000
  H   H717      1.0  0.26183  0.47450  0.37709  1.0000
  S   S170      1.0  0.35055  0.48517  0.36917  1.0000
  H   H718      1.0  0.34226  0.49378  0.42666  1.0000
  S   S171      1.0  0.38610  0.49902  0.59181  1.0000
  C   C440      1.0  0.25313  0.49231  0.35343  1.0000
  H   H719      1.0  0.26722  0.57549  0.31648  1.0000
  C   C441      1.0  0.29442  0.45169  0.32642  1.0000
  H   H720      1.0  0.46196  0.59210  0.35180  1.0000
  C   C442      1.0  0.26590  0.49656  0.51026  1.0000
  C   C443      1.0  0.36252  0.48477  0.63150  1.0000
  H   H721      1.0  0.42553  0.55178  0.32612  1.0000
  C   C444      1.0  0.34890  0.49748  0.44020  1.0000
  C   C445      1.0  0.26619  0.48611  0.36375  1.0000
  S   S172      1.0  0.33694  0.49362  0.56877  1.0000
  C   C446      1.0  0.39367  0.48302  0.63019  1.0000
  H   H722      1.0  0.30473  0.51680  0.33447  1.0000
  H   H723      1.0  0.45546  0.54965  0.56229  1.0000
  C   C447      1.0  0.34760  0.49711  0.47949  1.0000
  H   H724      1.0  0.29199  0.48810  0.57844  1.0000
  S   S173      1.0  0.41760  0.60369  0.39114  1.0000
  Fe  Fe84      1.0  0.36710  0.54238  0.54133  1.0000
  S   S174      1.0  0.38630  0.56886  0.52254  1.0000
  S   S175      1.0  0.42287  0.62069  0.58397  1.0000
  C   C448      1.0  0.39531  0.58433  0.53917  1.0000
  C   C449      1.0  0.41222  0.59706  0.53124  1.0000
  C   C450      1.0  0.42074  0.60808  0.54500  1.0000
  C   C451      1.0  0.41208  0.60706  0.56650  1.0000
  C   C452      1.0  0.39483  0.59477  0.57421  1.0000
  C   C453      1.0  0.38651  0.58331  0.56062  1.0000
  H   H725      1.0  0.41912  0.59797  0.51466  1.0000
  H   H726      1.0  0.43412  0.61723  0.53892  1.0000
  H   H727      1.0  0.38797  0.59399  0.59076  1.0000
  H   H728      1.0  0.37325  0.57382  0.56672  1.0000
  C   C454      1.0  0.38295  0.57675  0.34486  1.0000
  C   C455      1.0  0.39287  0.59520  0.33876  1.0000
  C   C456      1.0  0.40344  0.60374  0.35300  1.0000
  C   C457      1.0  0.40391  0.59385  0.37339  1.0000
  C   C458      1.0  0.39378  0.57555  0.37954  1.0000
  C   C459      1.0  0.38347  0.56701  0.36528  1.0000
  H   H729      1.0  0.41099  0.61799  0.34831  1.0000
  H   H730      1.0  0.39423  0.56772  0.39508  1.0000
  H   H731      1.0  0.37613  0.55276  0.37010  1.0000
  N   N46       1.0  0.24658  0.56310  0.34503  1.0000
  N   N47       1.0  0.28498  0.50693  0.50109  1.0000
  S   S176      1.0  0.24260  0.51470  0.32224  1.0000
  C   C460      1.0  0.26394  0.56406  0.33073  1.0000
  H   H732      1.0  0.27886  0.53308  0.49818  1.0000
  C   C461      1.0  0.42902  0.55752  0.34089  1.0000
  C   C462      1.0  0.29521  0.51034  0.51911  1.0000
  H   H733      1.0  0.40056  0.54990  0.55759  1.0000
  S   S177      1.0  0.34541  0.51292  0.32605  1.0000
  H   H734      1.0  0.30952  0.48811  0.31864  1.0000
  H   H735      1.0  0.39027  0.51863  0.45092  1.0000
  H   H736      1.0  0.27435  0.53735  0.57818  1.0000
  H   H737      1.0  0.44855  0.56451  0.52773  1.0000
  C   C463      1.0  0.44950  0.58034  0.35540  1.0000
  C   C464      1.0  0.36731  0.50721  0.43618  1.0000
  H   H738      1.0  0.43069  0.59277  0.32638  1.0000
  C   C465      1.0  0.28522  0.52465  0.48794  1.0000
  H   H739      1.0  0.45178  0.56965  0.36787  1.0000
  N   N48       1.0  0.38877  0.56946  0.45418  1.0000
  C   C466      1.0  0.37825  0.57851  0.44027  1.0000
  C   C467      1.0  0.40057  0.58328  0.46406  1.0000
  C   C468      1.0  0.40022  0.56066  0.44057  1.0000
  C   C469      1.0  0.37604  0.55541  0.47175  1.0000
  H   H740      1.0  0.38745  0.58938  0.42704  1.0000
  H   H741      1.0  0.36926  0.58509  0.45004  1.0000
  H   H742      1.0  0.36951  0.56853  0.43214  1.0000
  H   H743      1.0  0.40865  0.57691  0.47475  1.0000
  H   H744      1.0  0.41035  0.59413  0.45124  1.0000
  H   H745      1.0  0.39237  0.59013  0.47457  1.0000
  H   H746      1.0  0.39178  0.55035  0.43253  1.0000
  H   H747      1.0  0.40815  0.55343  0.45056  1.0000
  H   H748      1.0  0.41015  0.57095  0.42733  1.0000
  H   H749      1.0  0.36668  0.54496  0.46488  1.0000
  H   H750      1.0  0.36751  0.56165  0.48269  1.0000
  H   H751      1.0  0.38350  0.54809  0.48237  1.0000
  S   S178      1.0  0.37045  0.56559  0.32684  1.0000
  H   H752      1.0  0.43805  0.58523  0.36312  1.0000
  S   S179      1.0  0.47170  0.61883  0.56426  1.0000
  H   H753      1.0  0.43860  0.53050  0.53875  1.0000
  S   S180      1.0  0.37997  0.51410  0.40930  1.0000
  S   S181      1.0  0.47084  0.65766  0.58174  1.0000
  C   C470      1.0  0.37590  0.51160  0.45389  1.0000
  Fe  Fe85      1.0  0.33065  0.50119  0.36056  1.0000
  H   H754      1.0  0.40733  0.48545  0.62108  1.0000
  C   C471      1.0  0.25575  0.51471  0.56902  1.0000
  H   H755      1.0  0.28625  0.49308  0.47336  1.0000
  H   H756      1.0  0.39246  0.60281  0.32301  1.0000
  H   H757      1.0  0.27757  0.52258  0.47421  1.0000
  S   S182      1.0  0.35891  0.53421  0.57781  1.0000
  S   S183      1.0  0.30503  0.52470  0.58805  1.0000
  C   C472      1.0  0.27192  0.52324  0.57579  1.0000
  C   C473      1.0  0.25868  0.50706  0.33591  1.0000
  Fe  Fe86      1.0  0.44225  0.62590  0.37355  1.0000
  S   S184      1.0  0.33896  0.53180  0.53474  1.0000
  H   H758      1.0  0.47786  0.62807  0.42403  1.0000
  S   S185      1.0  0.44727  0.65506  0.37852  1.0000
  S   S186      1.0  0.45115  0.63288  0.33704  1.0000
  H   H759      1.0  0.29424  0.48303  0.49661  1.0000
  Fe  Fe87      1.0  0.36515  0.51050  0.38057  1.0000
  C   C474      1.0  0.44203  0.55032  0.57098  1.0000
  C   C475      1.0  0.29368  0.49625  0.48702  1.0000
  Fe  Fe88      1.0  0.33123  0.52088  0.57077  1.0000
  C   C476      1.0  0.28509  0.51374  0.57910  1.0000
  Fe  Fe89      1.0  0.36547  0.50782  0.57283  1.0000
  C   C477      1.0  0.27733  0.51588  0.32911  1.0000
  H   H760      1.0  0.29553  0.49728  0.52927  1.0000
  H   H761      1.0  0.43727  0.53871  0.58510  1.0000
  H   H762      1.0  0.24606  0.52243  0.56589  1.0000
  Fe  Fe90      1.0  0.45188  0.63579  0.56868  1.0000
  Fe  Fe91      1.0  0.36077  0.53559  0.34125  1.0000
  C   C478      1.0  0.41110  0.55076  0.56824  1.0000
  C   C479      1.0  0.28191  0.49555  0.57581  1.0000
  H   H763      1.0  0.34012  0.47007  0.32046  1.0000
  C   C480      1.0  0.42567  0.53208  0.54773  1.0000
  H   H764      1.0  0.25877  0.50465  0.52014  1.0000
  S   S187      1.0  0.34384  0.52533  0.37492  1.0000
  S   S188      1.0  0.46934  0.62285  0.38049  1.0000
  C   C481      1.0  0.25228  0.49637  0.56639  1.0000
  H   H765      1.0  0.46401  0.55611  0.33697  1.0000
  H   H766      1.0  0.47625  0.60974  0.46057  1.0000
  N   N49       1.0  0.42859  0.54956  0.55610  1.0000
  Fe  Fe92      1.0  0.47519  0.65272  0.38293  1.0000
  Fe  Fe93      1.0  0.36609  0.49832  0.33528  1.0000
  H   H767      1.0  0.29944  0.53283  0.48075  1.0000
  S   S189      1.0  0.30078  0.48598  0.36948  1.0000
  H   H768      1.0  0.41574  0.53125  0.53626  1.0000
  C   C482      1.0  0.29039  0.50991  0.33974  1.0000
  H   H769      1.0  0.30801  0.50391  0.47968  1.0000
  H   H770      1.0  0.42004  0.52007  0.56131  1.0000
  H   H771      1.0  0.40552  0.53934  0.58250  1.0000
  H   H772      1.0  0.35202  0.48869  0.62354  1.0000
  S   S190      1.0  0.38278  0.52203  0.34747  1.0000
  H   H773      1.0  0.44436  0.56335  0.57765  1.0000
  H   H774      1.0  0.26518  0.48351  0.52122  1.0000
  H   H775      1.0  0.30966  0.51806  0.51264  1.0000
  C   C483      1.0  0.48508  0.65407  0.43474  1.0000
  S   S191      1.0  0.45898  0.65095  0.53405  1.0000
  H   H776      1.0  0.29033  0.45853  0.34022  1.0000
  H   H777      1.0  0.43077  0.54622  0.35298  1.0000
  C   C484      1.0  0.36602  0.50683  0.47545  1.0000
  H   H778      1.0  0.25794  0.49305  0.49715  1.0000
  C   C485      1.0  0.43550  0.56508  0.53751  1.0000
  H   H779      1.0  0.42549  0.56519  0.52622  1.0000
  S   S192      1.0  0.37530  0.51683  0.53636  1.0000
  H   H780      1.0  0.37273  0.51032  0.48898  1.0000
  H   H781      1.0  0.32260  0.46853  0.34325  1.0000
  H   H782      1.0  0.24197  0.53452  0.35829  1.0000
  H   H783      1.0  0.25944  0.58380  0.36223  1.0000
  C   C486      1.0  0.48043  0.63491  0.43772  1.0000
  N   N50       1.0  0.44553  0.57319  0.33531  1.0000
  H   H784      1.0  0.25394  0.54992  0.37382  1.0000
  Fe  Fe94      1.0  0.34628  0.50537  0.53273  1.0000
  C   C487      1.0  0.28483  0.49484  0.35691  1.0000
  H   H785      1.0  0.43817  0.57850  0.54328  1.0000
  C   C488      1.0  0.26544  0.48681  0.56974  1.0000
  H   H786      1.0  0.41264  0.56396  0.57442  1.0000
  Fe  Fe95      1.0  0.48001  0.63532  0.53027  1.0000
  H   H787      1.0  0.41694  0.56169  0.34824  1.0000
  H   H788      1.0  0.26325  0.55116  0.32407  1.0000
  C   C489      1.0  0.46125  0.56717  0.32548  1.0000
  H   H789      1.0  0.29394  0.43739  0.33362  1.0000
  H   H790      1.0  0.47393  0.57873  0.32123  1.0000
  C   C490      1.0  0.48291  0.63326  0.47634  1.0000
  C   C491      1.0  0.24292  0.54791  0.36384  1.0000
  H   H791      1.0  0.40258  0.53603  0.64664  1.0000
  H   H792      1.0  0.24991  0.59229  0.33952  1.0000
  H   H793      1.0  0.32704  0.44807  0.33551  1.0000
  H   H794      1.0  0.28391  0.45110  0.31574  1.0000
  C   C492      1.0  0.24790  0.58058  0.35317  1.0000
  H   H795      1.0  0.28171  0.52730  0.31554  1.0000
  H   H796      1.0  0.23879  0.48552  0.35888  1.0000
  H   H797      1.0  0.27555  0.56614  0.33981  1.0000
  C   C493      1.0  0.32621  0.46208  0.32896  1.0000
  C   C494      1.0  0.44238  0.58782  0.31945  1.0000
  H   H798      1.0  0.23794  0.61052  0.52347  1.0000
  Fe  Fe96      1.0  0.38818  0.45742  0.71203  1.0000
  S   S193      1.0  0.38628  0.46959  0.74266  1.0000
  Fe  Fe97      1.0  0.42098  0.44423  0.72239  1.0000
  S   S194      1.0  0.42111  0.45530  0.75389  1.0000
  S   S195      1.0  0.44550  0.43483  0.70958  1.0000
  Fe  Fe98      1.0  0.39046  0.44320  0.75926  1.0000
  S   S196      1.0  0.37290  0.42914  0.79269  1.0000
  H   H799      1.0  0.41816  0.53865  0.70034  1.0000
  S   S197      1.0  0.39076  0.43037  0.72900  1.0000
  S   S198      1.0  0.44604  0.35153  0.72016  1.0000
  H   H800      1.0  0.32536  0.40596  0.72407  1.0000
  S   S199      1.0  0.25890  0.34948  0.86746  1.0000
  S   S200      1.0  0.29635  0.34067  0.88125  1.0000
  Fe  Fe99      1.0  0.26948  0.34254  0.89864  1.0000
  S   S201      1.0  0.26256  0.35491  0.92848  1.0000
  Fe  Fe100     1.0  0.28501  0.34480  0.85027  1.0000
  S   S202      1.0  0.30360  0.35903  0.81728  1.0000
  C   C495      1.0  0.47613  0.54986  0.73484  1.0000
  C   C496      1.0  0.41928  0.51597  0.67132  1.0000
  H   H801      1.0  0.33369  0.44906  0.76170  1.0000
  H   H802      1.0  0.39829  0.50727  0.71159  1.0000
  N   N51       1.0  0.40369  0.52306  0.67905  1.0000
  H   H803      1.0  0.32755  0.44653  0.71404  1.0000
  C   C497      1.0  0.44440  0.41146  0.71066  1.0000
  C   C498      1.0  0.46029  0.40671  0.70272  1.0000
  H   H804      1.0  0.31909  0.35572  0.95770  1.0000
  C   C499      1.0  0.44522  0.37451  0.71589  1.0000
  C   C500      1.0  0.42904  0.37913  0.72312  1.0000
  C   C501      1.0  0.42869  0.39764  0.72076  1.0000
  N   N52       1.0  0.47811  0.41775  0.76034  1.0000
  H   H805      1.0  0.41691  0.36844  0.73092  1.0000
  H   H806      1.0  0.41637  0.40122  0.72692  1.0000
  C   C502      1.0  0.35428  0.40900  0.79961  1.0000
  C   C503      1.0  0.35014  0.39704  0.78486  1.0000
  C   C504      1.0  0.33474  0.38170  0.79067  1.0000
  C   C505      1.0  0.32342  0.37795  0.81140  1.0000
  C   C506      1.0  0.32791  0.38956  0.82642  1.0000
  C   C507      1.0  0.34321  0.40500  0.82051  1.0000
  H   H807      1.0  0.35885  0.39963  0.76901  1.0000
  H   H808      1.0  0.33150  0.37274  0.77897  1.0000
  H   H809      1.0  0.31939  0.38689  0.84243  1.0000
  H   H810      1.0  0.34635  0.41405  0.83215  1.0000
  H   H811      1.0  0.45297  0.54820  0.71845  1.0000
  C   C508      1.0  0.27601  0.35497  0.94927  1.0000
  C   C509      1.0  0.29418  0.35428  0.94486  1.0000
  H   H812      1.0  0.30017  0.35339  0.92848  1.0000
  H   H813      1.0  0.41464  0.50272  0.66561  1.0000
  C   C510      1.0  0.37181  0.47085  0.66414  1.0000
  C   C511      1.0  0.26847  0.35639  0.97052  1.0000
  C   C512      1.0  0.39366  0.52605  0.66090  1.0000
  C   C513      1.0  0.34000  0.44044  0.75178  1.0000
  H   H814      1.0  0.30206  0.40530  0.75607  1.0000
  H   H815      1.0  0.32981  0.32986  0.86707  1.0000
  H   H816      1.0  0.34602  0.42425  0.71714  1.0000
  H   H817      1.0  0.45433  0.49790  0.75754  1.0000
  H   H818      1.0  0.25447  0.35706  0.97405  1.0000
  C   C514      1.0  0.30488  0.35560  0.96144  1.0000
  C   C515      1.0  0.46082  0.38834  0.70572  1.0000
  S   S203      1.0  0.36610  0.46012  0.69204  1.0000
  H   H819      1.0  0.47238  0.41731  0.69453  1.0000
  H   H820      1.0  0.42708  0.51348  0.68466  1.0000
  C   C516      1.0  0.45955  0.40588  0.76140  1.0000
  C   C517      1.0  0.33672  0.33670  0.85007  1.0000
  C   C518      1.0  0.31237  0.41575  0.76176  1.0000
  Fe  Fe101     1.0  0.47381  0.34908  0.72586  1.0000
  H   H821      1.0  0.35090  0.34417  0.85093  1.0000
  H   H822      1.0  0.35029  0.44982  0.73817  1.0000
  C   C519      1.0  0.34609  0.33272  0.81302  1.0000
  H   H823      1.0  0.47327  0.38487  0.69986  1.0000
  C   C520      1.0  0.47673  0.52161  0.75709  1.0000
  H   H824      1.0  0.30500  0.42405  0.77100  1.0000
  H   H825      1.0  0.34749  0.43320  0.76243  1.0000
  H   H826      1.0  0.34201  0.40773  0.74175  1.0000
  H   H827      1.0  0.32957  0.34711  0.84453  1.0000
  N   N53       1.0  0.32624  0.42742  0.74324  1.0000
  S   S204      1.0  0.41827  0.46997  0.70251  1.0000
  H   H828      1.0  0.48103  0.43029  0.72665  1.0000
  H   H829      1.0  0.31870  0.40828  0.77370  1.0000
  H   H830      1.0  0.38823  0.51303  0.65497  1.0000
  H   H831      1.0  0.31072  0.44693  0.73683  1.0000
  H   H832      1.0  0.46936  0.43186  0.78554  1.0000
  H   H833      1.0  0.38632  0.49611  0.69249  1.0000
  H   H834      1.0  0.34461  0.47340  0.66264  1.0000
  C   C521      1.0  0.33527  0.41581  0.73103  1.0000
  H   H835      1.0  0.42894  0.52577  0.65748  1.0000
  H   H836      1.0  0.36053  0.33987  0.81314  1.0000
  C   C522      1.0  0.39130  0.50960  0.69743  1.0000
  C   C523      1.0  0.31740  0.43775  0.72832  1.0000
  H   H837      1.0  0.30683  0.42837  0.72165  1.0000
  C   C524      1.0  0.41051  0.54055  0.68664  1.0000
  H   H838      1.0  0.41260  0.32727  0.74671  1.0000
  H   H839      1.0  0.45131  0.41323  0.75208  1.0000
  H   H840      1.0  0.45204  0.40138  0.77857  1.0000
  C   C525      1.0  0.48465  0.54043  0.74909  1.0000
  Fe  Fe102     1.0  0.41687  0.48045  0.73431  1.0000
  H   H841      1.0  0.45998  0.39336  0.75426  1.0000
  H   H842      1.0  0.46931  0.44249  0.75811  1.0000
  S   S205      1.0  0.43053  0.51116  0.73000  1.0000
  C   C526      1.0  0.45165  0.52186  0.73718  1.0000
  C   C527      1.0  0.46040  0.51231  0.75103  1.0000
  H   H843      1.0  0.33947  0.34329  0.80641  1.0000
  H   H844      1.0  0.39911  0.54624  0.69278  1.0000
  H   H845      1.0  0.37915  0.51425  0.70341  1.0000
  C   C528      1.0  0.45965  0.54065  0.72907  1.0000
  H   H846      1.0  0.48140  0.40452  0.79167  1.0000
  H   H847      1.0  0.43963  0.33465  0.76460  1.0000
  C   C529      1.0  0.47680  0.43481  0.76832  1.0000
  S   S206      1.0  0.48108  0.35790  0.75675  1.0000
  H   H848      1.0  0.41991  0.55108  0.67322  1.0000
  H   H849      1.0  0.38180  0.53142  0.66613  1.0000
  H   H850      1.0  0.42541  0.32797  0.79126  1.0000
  H   H851      1.0  0.39991  0.47011  0.66012  1.0000
  C   C530      1.0  0.35835  0.47609  0.65365  1.0000
  H   H852      1.0  0.48318  0.51421  0.76820  1.0000
  H   H853      1.0  0.48204  0.56435  0.72859  1.0000
  C   C531      1.0  0.38951  0.47437  0.65234  1.0000
  C   C532      1.0  0.32393  0.96159  0.13525  1.0000
  H   H854      1.0  0.44189  0.96757  0.18232  1.0000
  C   C533      1.0  0.45634  0.88889  0.23352  1.0000
  H   H855      1.0  0.31235  0.89512  0.18770  1.0000
  S   S207      1.0  0.28828  0.90917  0.04247  1.0000
  H   H856      1.0  0.43966  0.95722  0.23200  1.0000
  Fe  Fe103     1.0  0.27898  0.88163  0.06465  1.0000
  S   S208      1.0  0.29786  0.87003  0.08396  1.0000
  Fe  Fe104     1.0  0.27106  0.89519  0.02011  1.0000
  H   H857      1.0  0.45129  0.99150  0.18220  1.0000
  Fe  Fe105     1.0  0.36108  0.88832  0.20504  1.0000
  S   S209      1.0  0.37246  0.88714  0.17027  1.0000
  S   S210      1.0  0.34163  0.86194  0.22461  1.0000
  Fe  Fe106     1.0  0.37847  0.92942  0.19867  1.0000
  S   S211      1.0  0.39119  0.93123  0.16376  1.0000
  S   S212      1.0  0.38047  0.95635  0.21011  1.0000
  Fe  Fe107     1.0  0.36416  0.91299  0.16070  1.0000
  S   S213      1.0  0.34846  0.92218  0.13485  1.0000
  Fe  Fe108     1.0  0.39829  0.90543  0.17671  1.0000
  S   S214      1.0  0.42538  0.89956  0.16626  1.0000
  S   S215      1.0  0.35099  0.91288  0.19500  1.0000
  S   S216      1.0  0.38751  0.90485  0.21214  1.0000
  C   C534      1.0  0.40141  0.96670  0.21719  1.0000
  N   N54       1.0  0.30640  0.86812  0.17948  1.0000
  C   C535      1.0  0.41351  0.95645  0.22258  1.0000
  C   C536      1.0  0.44991  0.98076  0.17171  1.0000
  H   H858      1.0  0.40978  0.94178  0.22314  1.0000
  H   H859      1.0  0.38615  0.82652  0.29696  1.0000
  H   H860      1.0  0.46458  0.85641  0.23381  1.0000
  N   N55       1.0  0.47317  0.88434  0.23855  1.0000
  C   C537      1.0  0.31236  0.88487  0.09730  1.0000
  C   C538      1.0  0.31028  0.90233  0.09906  1.0000
  C   C539      1.0  0.32161  0.91367  0.11037  1.0000
  C   C540      1.0  0.33510  0.90766  0.12004  1.0000
  C   C541      1.0  0.33743  0.89034  0.11790  1.0000
  C   C542      1.0  0.32598  0.87892  0.10675  1.0000
  H   H861      1.0  0.29985  0.90705  0.09181  1.0000
  H   H862      1.0  0.31973  0.92706  0.11174  1.0000
  H   H863      1.0  0.34817  0.88581  0.12463  1.0000
  H   H864      1.0  0.32781  0.86552  0.10518  1.0000
  C   C543      1.0  0.27487  0.96175  0.07067  1.0000
  H   H865      1.0  0.35412  0.79549  0.25721  1.0000
  C   C544      1.0  0.43038  0.96519  0.22763  1.0000
  C   C545      1.0  0.29748  0.84902  0.19053  1.0000
  C   C546      1.0  0.37580  0.82884  0.25782  1.0000
  C   C547      1.0  0.29398  0.96603  0.06424  1.0000
  H   H866      1.0  0.46383  0.97935  0.16613  1.0000
  C   C548      1.0  0.33837  0.84553  0.29865  1.0000
  H   H867      1.0  0.30009  0.95586  0.05827  1.0000
  C   C549      1.0  0.45978  0.93588  0.19336  1.0000
  C   C550      1.0  0.44398  0.92612  0.18680  1.0000
  C   C551      1.0  0.44482  0.91200  0.17494  1.0000
  C   C552      1.0  0.46149  0.90766  0.16982  1.0000
  C   C553      1.0  0.29684  0.87328  0.16161  1.0000
  H   H868      1.0  0.43117  0.92951  0.19089  1.0000
  H   H869      1.0  0.46223  0.89686  0.16047  1.0000
  C   C554      1.0  0.35489  0.79935  0.27364  1.0000
  H   H870      1.0  0.45109  0.88184  0.22032  1.0000
  C   C555      1.0  0.32788  0.83392  0.28702  1.0000
  C   C556      1.0  0.32875  0.83930  0.26440  1.0000
  C   C557      1.0  0.34018  0.85628  0.25321  1.0000
  C   C558      1.0  0.35057  0.86797  0.26484  1.0000
  C   C559      1.0  0.34958  0.86263  0.28752  1.0000
  H   H871      1.0  0.38758  0.79917  0.25189  1.0000
  H   H872      1.0  0.32060  0.83022  0.25554  1.0000
  H   H873      1.0  0.35936  0.88112  0.25639  1.0000
  H   H874      1.0  0.36529  0.83621  0.26194  1.0000
  H   H875      1.0  0.48251  0.90948  0.25044  1.0000
  H   H876      1.0  0.38528  0.78985  0.28039  1.0000
  H   H877      1.0  0.28228  0.87222  0.16791  1.0000
  C   C560      1.0  0.47982  0.89438  0.25569  1.0000
  H   H878      1.0  0.34805  0.95506  0.10368  1.0000
  H   H879      1.0  0.29161  0.87955  0.20326  1.0000
  H   H880      1.0  0.33311  0.88414  0.16326  1.0000
  H   H881      1.0  0.29722  0.86435  0.14896  1.0000
  H   H882      1.0  0.35765  0.87172  0.29645  1.0000
  H   H883      1.0  0.31207  0.96014  0.12656  1.0000
  H   H884      1.0  0.38930  0.83854  0.25734  1.0000
  H   H885      1.0  0.35215  0.78643  0.28575  1.0000
  C   C561      1.0  0.26725  0.97511  0.07834  1.0000
  Fe  Fe109     1.0  0.23925  0.87398  0.05676  1.0000
  C   C562      1.0  0.38736  0.80280  0.26854  1.0000
  C   C563      1.0  0.32558  0.86965  0.17021  1.0000
  H   H886      1.0  0.27120  0.86437  0.99254  1.0000
  H   H887      1.0  0.36858  0.98575  0.12398  1.0000
  C   C564      1.0  0.46942  0.86441  0.24643  1.0000
  C   C565      1.0  0.42244  0.98672  0.16136  1.0000
  C   C566      1.0  0.30586  0.88056  0.19556  1.0000
  H   H888      1.0  0.48199  0.86072  0.25035  1.0000
  C   C567      1.0  0.37311  0.81660  0.29615  1.0000
  H   H889      1.0  0.31335  0.87729  0.20900  1.0000
  H   H890      1.0  0.45907  0.94675  0.20259  1.0000
  Fe  Fe110     1.0  0.26237  0.91372  0.05882  1.0000
  H   H891      1.0  0.28294  0.84728  0.19769  1.0000
  S   S217      1.0  0.26413  0.86694  0.04063  1.0000
  H   H892      1.0  0.30333  0.88765  0.15300  1.0000
  C   C568      1.0  0.46626  0.72184  0.30852  1.0000
  N   N56       1.0  0.44098  0.98541  0.15304  1.0000
  S   S218      1.0  0.25374  0.88677  0.08237  1.0000
  S   S219      1.0  0.25932  0.94038  0.06970  1.0000
  H   H893      1.0  0.37506  0.82586  0.24100  1.0000
  C   C569      1.0  0.35585  0.97605  0.13379  1.0000
  N   N57       1.0  0.37280  0.81190  0.27402  1.0000
  H   H894      1.0  0.45890  0.85978  0.26162  1.0000
  H   H895      1.0  0.29789  0.83926  0.17889  1.0000
  H   H896      1.0  0.34357  0.80573  0.27776  1.0000
  H   H897      1.0  0.44532  0.88495  0.24821  1.0000
  H   H898      1.0  0.25261  0.97209  0.08339  1.0000
  C   C570      1.0  0.47641  0.93146  0.18834  1.0000
  H   H899      1.0  0.30444  0.84486  0.20416  1.0000
  H   H900      1.0  0.33292  0.86471  0.18289  1.0000
  H   H901      1.0  0.35720  0.97850  0.09020  1.0000
  H   H902      1.0  0.45348  0.96955  0.13285  1.0000
  C   C571      1.0  0.47726  0.91735  0.17649  1.0000
  H   H903      1.0  0.45931  0.72034  0.29469  1.0000
  H   H904      1.0  0.32660  0.86141  0.15695  1.0000
  N   N58       1.0  0.34040  0.97484  0.12180  1.0000
  C   C572      1.0  0.43973  0.97089  0.13948  1.0000
  H   H905      1.0  0.43179  0.95726  0.14923  1.0000
  S   S220      1.0  0.27882  0.90415  0.98333  1.0000
  H   H906      1.0  0.36188  0.82285  0.30115  1.0000
  H   H907      1.0  0.31893  0.82089  0.29552  1.0000
  H   H908      1.0  0.47683  0.66490  0.29640  1.0000
  H   H909      1.0  0.40103  0.81175  0.26903  1.0000
  C   C573      1.0  0.34498  0.96865  0.10086  1.0000
  H   H910      1.0  0.35306  0.98098  0.14953  1.0000
  H   H911      1.0  0.32624  0.94775  0.13918  1.0000
  H   H912      1.0  0.33350  0.96723  0.09154  1.0000
  S   S221      1.0  0.24554  0.90161  0.03495  1.0000
  H   H913      1.0  0.41376  0.97346  0.17130  1.0000
  C   C574      1.0  0.30515  0.98361  0.06552  1.0000
  H   H914      1.0  0.46978  0.89030  0.27130  1.0000
  H   H915      1.0  0.45885  0.90389  0.22763  1.0000
  H   H916      1.0  0.43286  0.97379  0.12535  1.0000
  H   H917      1.0  0.32005  0.96592  0.15111  1.0000
  H   H918      1.0  0.35872  0.96245  0.13773  1.0000
  C   C575      1.0  0.40628  0.98568  0.21663  1.0000
  C   C576      1.0  0.43547  0.98426  0.22641  1.0000
  H   H919      1.0  0.41537  0.99051  0.14775  1.0000
  H   H920      1.0  0.31978  0.98686  0.06043  1.0000
  H   H921      1.0  0.37135  0.80424  0.30874  1.0000
  H   H922      1.0  0.47690  0.75117  0.29888  1.0000
  H   H923      1.0  0.48238  0.88334  0.20474  1.0000
  C   C577      1.0  0.48310  0.67231  0.27944  1.0000
  C   C578      1.0  0.47610  0.73927  0.31094  1.0000
  H   H924      1.0  0.40416  0.77666  0.31244  1.0000
  H   H925      1.0  0.47488  0.68198  0.27495  1.0000
  H   H926      1.0  0.48149  0.66205  0.26833  1.0000
  H   H927      1.0  0.27787  0.70960  0.31503  1.0000
  C   C579      1.0  0.46276  0.83218  0.64416  1.0000
  H   H928      1.0  0.46010  0.86197  0.61850  1.0000
  C   C580      1.0  0.41715  0.72067  0.38455  1.0000
  N   N59       1.0  0.28876  0.79594  0.63942  1.0000
  H   H929      1.0  0.47046  0.82691  0.46642  1.0000
  C   C581      1.0  0.27524  0.73129  0.33305  1.0000
  C   C582      1.0  0.34726  0.82641  0.64450  1.0000
  H   H930      1.0  0.27129  0.76298  0.51851  1.0000
  C   C583      1.0  0.26310  0.73918  0.34458  1.0000
  H   H931      1.0  0.41401  0.71101  0.59518  1.0000
  H   H932      1.0  0.43209  0.76158  0.57990  1.0000
  H   H933      1.0  0.42932  0.71940  0.39184  1.0000
  S   S222      1.0  0.36454  0.76609  0.32075  1.0000
  C   C584      1.0  0.26201  0.73582  0.49597  1.0000
  H   H934      1.0  0.45456  0.82874  0.63120  1.0000
  H   H935      1.0  0.25871  0.74395  0.48164  1.0000
  H   H936      1.0  0.46601  0.87788  0.63682  1.0000
  S   S223      1.0  0.32067  0.78588  0.32310  1.0000
  H   H937      1.0  0.41698  0.75022  0.60493  1.0000
  H   H938      1.0  0.24868  0.69091  0.43538  1.0000
  C   C585      1.0  0.44519  0.73335  0.57142  1.0000
  C   C586      1.0  0.46579  0.70637  0.32363  1.0000
  C   C587      1.0  0.34904  0.85879  0.63953  1.0000
  C   C588      1.0  0.47481  0.70834  0.34149  1.0000
  C   C589      1.0  0.28429  0.73298  0.51905  1.0000
  C   C590      1.0  0.26054  0.75279  0.56541  1.0000
  H   H939      1.0  0.46061  0.72087  0.45342  1.0000
  H   H940      1.0  0.29519  0.76941  0.50793  1.0000
  S   S224      1.0  0.28544  0.75079  0.59282  1.0000
  C   C591      1.0  0.47372  0.73180  0.44965  1.0000
  C   C592      1.0  0.25855  0.72257  0.58495  1.0000
  H   H941      1.0  0.47379  0.74110  0.43424  1.0000
  C   C593      1.0  0.47974  0.80674  0.45030  1.0000
  C   C594      1.0  0.48436  0.81208  0.48697  1.0000
  H   H942      1.0  0.29357  0.73132  0.47620  1.0000
  H   H943      1.0  0.25911  0.72298  0.41443  1.0000
  H   H944      1.0  0.30867  0.80711  0.61005  1.0000
  C   C595      1.0  0.42398  0.74789  0.58917  1.0000
  H   H945      1.0  0.37147  0.77920  0.42760  1.0000
  C   C596      1.0  0.24555  0.72050  0.40926  1.0000
  C   C597      1.0  0.28161  0.76292  0.50425  1.0000
  C   C598      1.0  0.28388  0.77754  0.63337  1.0000
  H   H946      1.0  0.26349  0.71375  0.59634  1.0000
  Fe  Fe111     1.0  0.47990  0.67123  0.54624  1.0000
  H   H947      1.0  0.23768  0.70030  0.57837  1.0000
  H   H948      1.0  0.40634  0.72358  0.33348  1.0000
  H   H949      1.0  0.43288  0.70755  0.60773  1.0000
  H   H950      1.0  0.25386  0.70471  0.37480  1.0000
  C   C599      1.0  0.24391  0.71494  0.57482  1.0000
  C   C600      1.0  0.44936  0.74312  0.60594  1.0000
  C   C601      1.0  0.42450  0.70366  0.35632  1.0000
  N   N60       1.0  0.43573  0.73542  0.59280  1.0000
  C   C602      1.0  0.26704  0.74148  0.58008  1.0000
  H   H951      1.0  0.36005  0.75797  0.36750  1.0000
  H   H952      1.0  0.26172  0.79939  0.64022  1.0000
  C   C603      1.0  0.43627  0.73661  0.35013  1.0000
  H   H953      1.0  0.41298  0.69152  0.36405  1.0000
  H   H954      1.0  0.41331  0.74247  0.57959  1.0000
  H   H955      1.0  0.43535  0.72784  0.56091  1.0000
  H   H956      1.0  0.27944  0.77202  0.48992  1.0000
  C   C604      1.0  0.40415  0.72296  0.35156  1.0000
  H   H957      1.0  0.28364  0.71875  0.51634  1.0000
  C   C605      1.0  0.29650  0.80986  0.61935  1.0000
  H   H958      1.0  0.45869  0.73425  0.60876  1.0000
  H   H959      1.0  0.47388  0.74014  0.46295  1.0000
  C   C606      1.0  0.42439  0.71728  0.60469  1.0000
  H   H960      1.0  0.24646  0.68152  0.38903  1.0000
  H   H961      1.0  0.45399  0.72382  0.57353  1.0000
  H   H962      1.0  0.43396  0.74986  0.35360  1.0000
  H   H963      1.0  0.25140  0.73501  0.51043  1.0000
  H   H964      1.0  0.45810  0.75685  0.59756  1.0000
  H   H965      1.0  0.45416  0.74671  0.56216  1.0000
  N   N61       1.0  0.28051  0.74419  0.49990  1.0000
  H   H966      1.0  0.26059  0.72159  0.49284  1.0000
  H   H967      1.0  0.26503  0.69761  0.39640  1.0000
  Fe  Fe112     1.0  0.30095  0.77151  0.35425  1.0000
  S   S225      1.0  0.30770  0.79530  0.37221  1.0000
  H   H968      1.0  0.38885  0.82025  0.38435  1.0000
  Fe  Fe113     1.0  0.34082  0.77385  0.33875  1.0000
  S   S226      1.0  0.35027  0.79748  0.35553  1.0000
  S   S227      1.0  0.32039  0.75720  0.36803  1.0000
  Fe  Fe114     1.0  0.32847  0.78188  0.38387  1.0000
  S   S228      1.0  0.33668  0.77678  0.41704  1.0000
  Fe  Fe115     1.0  0.32884  0.80860  0.34194  1.0000
  H   H969      1.0  0.44275  0.74487  0.62220  1.0000
  Fe  Fe116     1.0  0.45099  0.78445  0.37473  1.0000
  S   S229      1.0  0.42070  0.77335  0.38602  1.0000
  H   H970      1.0  0.43896  0.73760  0.33201  1.0000
  Fe  Fe117     1.0  0.31689  0.80139  0.52911  1.0000
  S   S230      1.0  0.32034  0.77333  0.53923  1.0000
  S   S231      1.0  0.30652  0.80897  0.49808  1.0000
  Fe  Fe118     1.0  0.32877  0.81474  0.57012  1.0000
  S   S232      1.0  0.33305  0.78761  0.58375  1.0000
  S   S233      1.0  0.33471  0.84075  0.58466  1.0000
  Fe  Fe119     1.0  0.34612  0.78807  0.54919  1.0000
  S   S234      1.0  0.37280  0.78206  0.53784  1.0000
  Fe  Fe120     1.0  0.30677  0.77531  0.57252  1.0000
  H   H971      1.0  0.41862  0.80823  0.40819  1.0000
  S   S235      1.0  0.34382  0.81612  0.53627  1.0000
  S   S236      1.0  0.30129  0.80241  0.56186  1.0000
  S   S237      1.0  0.42805  0.79387  0.60370  1.0000
  H   H972      1.0  0.40054  0.73571  0.35481  1.0000
  H   H973      1.0  0.41700  0.71833  0.62087  1.0000
  N   N62       1.0  0.42052  0.72098  0.36064  1.0000
  C   C607      1.0  0.34124  0.84141  0.61059  1.0000
  Fe  Fe121     1.0  0.48386  0.81526  0.54313  1.0000
  C   C608      1.0  0.34308  0.82570  0.62341  1.0000
  C   C609      1.0  0.25151  0.69599  0.39123  1.0000
  H   H974      1.0  0.39485  0.77930  0.42008  1.0000
  H   H975      1.0  0.42647  0.78037  0.33798  1.0000
  C   C610      1.0  0.38801  0.78383  0.55641  1.0000
  C   C611      1.0  0.40679  0.78996  0.54836  1.0000
  C   C612      1.0  0.41916  0.79306  0.56285  1.0000
  C   C613      1.0  0.41277  0.78968  0.58545  1.0000
  C   C614      1.0  0.39402  0.78301  0.59356  1.0000
  C   C615      1.0  0.38163  0.78011  0.57904  1.0000
  H   H976      1.0  0.41397  0.73352  0.38835  1.0000
  H   H977      1.0  0.43360  0.79834  0.55644  1.0000
  H   H978      1.0  0.38906  0.78024  0.61107  1.0000
  H   H979      1.0  0.36715  0.77509  0.58534  1.0000
  Fe  Fe122     1.0  0.48391  0.81699  0.35670  1.0000
  C   C616      1.0  0.32809  0.78602  0.43915  1.0000
  C   C617      1.0  0.31500  0.79584  0.43755  1.0000
  C   C618      1.0  0.30861  0.80310  0.45563  1.0000
  C   C619      1.0  0.31539  0.80068  0.47523  1.0000
  C   C620      1.0  0.32858  0.79099  0.47671  1.0000
  C   C621      1.0  0.33484  0.78360  0.45876  1.0000
  H   H980      1.0  0.30980  0.79784  0.42243  1.0000
  H   H981      1.0  0.29839  0.81061  0.45442  1.0000
  H   H982      1.0  0.33399  0.78918  0.49169  1.0000
  H   H983      1.0  0.34498  0.77603  0.46008  1.0000
  C   C622      1.0  0.38060  0.76711  0.33830  1.0000
  C   C623      1.0  0.39940  0.77313  0.32997  1.0000
  C   C624      1.0  0.41202  0.77523  0.34440  1.0000
  C   C625      1.0  0.40578  0.77081  0.36709  1.0000
  C   C626      1.0  0.38705  0.76423  0.37526  1.0000
  C   C627      1.0  0.37452  0.76267  0.36094  1.0000
  H   H984      1.0  0.27422  0.73194  0.53408  1.0000
  C   C628      1.0  0.26847  0.71566  0.32399  1.0000
  C   C629      1.0  0.34449  0.85800  0.61857  1.0000
  C   C630      1.0  0.38705  0.80610  0.39324  1.0000
  H   H985      1.0  0.24046  0.75412  0.54470  1.0000
  Fe  Fe123     1.0  0.48406  0.78928  0.39726  1.0000
  C   C631      1.0  0.40917  0.81538  0.41626  1.0000
  H   H986      1.0  0.28650  0.81007  0.60808  1.0000
  H   H987      1.0  0.41294  0.82978  0.40730  1.0000
  H   H988      1.0  0.39683  0.80008  0.38394  1.0000
  H   H989      1.0  0.26687  0.76741  0.56173  1.0000
  H   H990      1.0  0.38211  0.76062  0.39276  1.0000
  H   H991      1.0  0.41177  0.81568  0.43329  1.0000
  C   C632      1.0  0.29418  0.74514  0.48035  1.0000
  H   H992      1.0  0.34319  0.87025  0.60867  1.0000
  S   S238      1.0  0.27082  0.75789  0.35763  1.0000
  H   H993      1.0  0.30829  0.75108  0.48305  1.0000
  H   H994      1.0  0.36325  0.80941  0.42633  1.0000
  H   H995      1.0  0.28980  0.73718  0.33119  1.0000
  N   N63       1.0  0.39152  0.84055  0.56934  1.0000
  C   C633      1.0  0.37754  0.82287  0.57649  1.0000
  C   C634      1.0  0.40950  0.83710  0.56294  1.0000
  C   C635      1.0  0.39214  0.85102  0.58755  1.0000
  C   C636      1.0  0.38677  0.85109  0.55038  1.0000
  H   H996      1.0  0.38050  0.81455  0.59090  1.0000
  H   H997      1.0  0.37664  0.81468  0.56309  1.0000
  H   H998      1.0  0.36382  0.82490  0.58127  1.0000
  H   H999      1.0  0.41341  0.82906  0.57688  1.0000
  H   H1000     1.0  0.40941  0.82907  0.54934  1.0000
  H   H1001     1.0  0.42048  0.85011  0.55731  1.0000
  H   H1002     1.0  0.40278  0.86434  0.58289  1.0000
  H   H1003     1.0  0.39512  0.84319  0.60236  1.0000
  H   H1004     1.0  0.37885  0.85411  0.59246  1.0000
  H   H1005     1.0  0.37314  0.85372  0.55472  1.0000
  H   H1006     1.0  0.38609  0.84349  0.53640  1.0000
  H   H1007     1.0  0.39696  0.86460  0.54450  1.0000
  H   H1008     1.0  0.40542  0.70899  0.39308  1.0000
  H   H1009     1.0  0.37876  0.81503  0.44488  1.0000
  Fe  Fe124     1.0  0.45724  0.80186  0.58644  1.0000
  H   H1010     1.0  0.41178  0.79283  0.53085  1.0000
  N   N64       1.0  0.38993  0.80601  0.41614  1.0000
  S   S239      1.0  0.46735  0.79557  0.34084  1.0000
  H   H1011     1.0  0.38736  0.78627  0.44527  1.0000
  S   S240      1.0  0.46573  0.80732  0.38995  1.0000
  H   H1012     1.0  0.34099  0.81293  0.61730  1.0000
  C   C637      1.0  0.38573  0.78687  0.42781  1.0000
  C   C638      1.0  0.37777  0.81564  0.42722  1.0000
  H   H1013     1.0  0.37303  0.79796  0.39254  1.0000
  S   S241      1.0  0.46757  0.78729  0.56079  1.0000
  S   S242      1.0  0.46801  0.76564  0.38435  1.0000
  C   C639      1.0  0.24425  0.73148  0.34683  1.0000
  H   H1014     1.0  0.38104  0.83032  0.41943  1.0000
  C   C640      1.0  0.24961  0.70763  0.32686  1.0000
  H   H1015     1.0  0.29214  0.75400  0.46571  1.0000
  N   N65       1.0  0.23841  0.70111  0.40724  1.0000
  S   S243      1.0  0.45397  0.68467  0.31978  1.0000
  H   H1016     1.0  0.44896  0.73530  0.35617  1.0000
  C   C641      1.0  0.24557  0.74525  0.55581  1.0000
  H   H1017     1.0  0.24739  0.72982  0.39330  1.0000
  H   H1018     1.0  0.47653  0.70136  0.43300  1.0000
  H   H1019     1.0  0.47445  0.69642  0.35327  1.0000
  H   H1020     1.0  0.42707  0.70342  0.33841  1.0000
  H   H1021     1.0  0.30090  0.82393  0.62318  1.0000
  S   S244      1.0  0.33830  0.83877  0.32682  1.0000
  H   H1022     1.0  0.29806  0.73900  0.52269  1.0000
  S   S245      1.0  0.24141  0.68772  0.31603  1.0000
  H   H1023     1.0  0.39205  0.71128  0.35893  1.0000
  C   C642      1.0  0.47754  0.81627  0.46775  1.0000
  H   H1024     1.0  0.43684  0.70170  0.36279  1.0000
  S   S246      1.0  0.48233  0.82533  0.50775  1.0000
  H   H1025     1.0  0.27776  0.76660  0.64799  1.0000
  C   C643      1.0  0.48451  0.72583  0.34403  1.0000
  H   H1026     1.0  0.47413  0.80989  0.43580  1.0000
  H   H1027     1.0  0.47718  0.83313  0.63720  1.0000
  Fe  Fe125     1.0  0.45906  0.66192  0.34272  1.0000
  C   C644      1.0  0.46757  0.86470  0.63224  1.0000
  H   H1028     1.0  0.27391  0.77659  0.62192  1.0000
  C   C645      1.0  0.23738  0.72630  0.56023  1.0000
  S   S247      1.0  0.47151  0.82983  0.56764  1.0000
  C   C646      1.0  0.23751  0.71560  0.33828  1.0000
  S   S248      1.0  0.47916  0.80071  0.60626  1.0000
  H   H1029     1.0  0.48230  0.86677  0.62574  1.0000
  H   H1030     1.0  0.29607  0.77414  0.62492  1.0000
  H   H1031     1.0  0.47646  0.70025  0.47269  1.0000
  H   H1032     1.0  0.35108  0.87153  0.64579  1.0000
  H   H1033     1.0  0.31480  0.79324  0.64616  1.0000
  S   S249      1.0  0.48519  0.70103  0.53084  1.0000
  C   C647      1.0  0.48525  0.74128  0.32867  1.0000
  Fe  Fe126     1.0  0.48579  0.77868  0.35191  1.0000
  H   H1034     1.0  0.43280  0.84427  0.64753  1.0000
  Fe  Fe127     1.0  0.24803  0.88954  0.86644  1.0000
  S   S250      1.0  0.27248  0.87833  0.86452  1.0000
  H   H1035     1.0  0.27558  0.81361  0.65553  1.0000
  H   H1036     1.0  0.29399  0.93837  0.90453  1.0000
  Fe  Fe128     1.0  0.25481  0.85553  0.89095  1.0000
  H   H1037     1.0  0.30690  0.81049  0.65836  1.0000
  Fe  Fe129     1.0  0.25903  0.86161  0.84143  1.0000
  S   S251      1.0  0.27262  0.85991  0.80744  1.0000
  H   H1038     1.0  0.38954  0.96562  0.77878  1.0000
  Fe  Fe130     1.0  0.40435  0.87636  0.70991  1.0000
  S   S252      1.0  0.39528  0.88569  0.67879  1.0000
  S   S253      1.0  0.42987  0.86654  0.70853  1.0000
  Fe  Fe131     1.0  0.36953  0.87861  0.73919  1.0000
  S   S254      1.0  0.35757  0.88782  0.71026  1.0000
  S   S255      1.0  0.35832  0.87643  0.77525  1.0000
  Fe  Fe132     1.0  0.36792  0.86651  0.69437  1.0000
  S   S256      1.0  0.35315  0.84242  0.68020  1.0000
  Fe  Fe133     1.0  0.38605  0.90604  0.69739  1.0000
  S   S257      1.0  0.39157  0.93646  0.68570  1.0000
  S   S258      1.0  0.37770  0.85595  0.72463  1.0000
  S   S259      1.0  0.39732  0.89815  0.72732  1.0000
  C   C648      1.0  0.41453  0.94886  0.68307  1.0000
  C   C649      1.0  0.41904  0.96806  0.68015  1.0000
  C   C650      1.0  0.44656  0.95003  0.68196  1.0000
  C   C651      1.0  0.42831  0.93984  0.68423  1.0000
  H   H1039     1.0  0.39647  0.87987  0.78159  1.0000
  H   H1040     1.0  0.42496  0.92504  0.68635  1.0000
  C   C652      1.0  0.29650  0.86452  0.79901  1.0000
  C   C653      1.0  0.30867  0.86830  0.81354  1.0000
  C   C654      1.0  0.32759  0.87200  0.80606  1.0000
  C   C655      1.0  0.33448  0.87204  0.78402  1.0000
  C   C656      1.0  0.32231  0.86850  0.76947  1.0000
  C   C657      1.0  0.30341  0.86473  0.77696  1.0000
  H   H1041     1.0  0.30350  0.86814  0.83057  1.0000
  H   H1042     1.0  0.33691  0.87470  0.81744  1.0000
  H   H1043     1.0  0.32743  0.86840  0.75250  1.0000
  H   H1044     1.0  0.29408  0.86180  0.76562  1.0000
  C   C658      1.0  0.27255  0.93736  0.86396  1.0000
  C   C659      1.0  0.27241  0.95487  0.86862  1.0000
  H   H1045     1.0  0.46220  0.91848  0.73910  1.0000
  N   N66       1.0  0.41265  0.86049  0.78381  1.0000
  C   C660      1.0  0.26694  0.85544  0.96192  1.0000
  C   C661      1.0  0.26615  0.86083  0.93980  1.0000
  H   H1046     1.0  0.29271  0.96897  0.91167  1.0000
  C   C662      1.0  0.46249  0.90557  0.73397  1.0000
  C   C663      1.0  0.44796  0.89613  0.72498  1.0000
  C   C664      1.0  0.44823  0.87933  0.71859  1.0000
  C   C665      1.0  0.46323  0.87225  0.72072  1.0000
  C   C666      1.0  0.26810  0.92429  0.80890  1.0000
  H   H1047     1.0  0.43659  0.90185  0.72302  1.0000
  H   H1048     1.0  0.46346  0.85919  0.71603  1.0000
  C   C667      1.0  0.47749  0.89842  0.73609  1.0000
  C   C668      1.0  0.40120  0.97878  0.73589  1.0000
  C   C669      1.0  0.33112  0.95894  0.92483  1.0000
  H   H1049     1.0  0.38424  0.85750  0.79610  1.0000
  H   H1050     1.0  0.45722  0.94301  0.68231  1.0000
  H   H1051     1.0  0.44162  0.87004  0.77172  1.0000
  C   C670      1.0  0.39538  0.94603  0.74688  1.0000
  S   S260      1.0  0.26160  0.84419  0.92295  1.0000
  C   C671      1.0  0.28865  0.96928  0.86461  1.0000
  H   H1052     1.0  0.42494  0.83875  0.79286  1.0000
  C   C672      1.0  0.28924  0.93438  0.85554  1.0000
  C   C673      1.0  0.42612  0.96550  0.74138  1.0000
  H   H1053     1.0  0.41983  0.84884  0.75546  1.0000
  H   H1054     1.0  0.26814  0.88367  0.91437  1.0000
  H   H1055     1.0  0.26027  0.91342  0.82301  1.0000
  H   H1056     1.0  0.42952  0.88730  0.76856  1.0000
  C   C674      1.0  0.27265  0.89257  0.94491  1.0000
  H   H1057     1.0  0.29970  0.94327  0.78251  1.0000
  H   H1058     1.0  0.28188  0.93852  0.76660  1.0000
  H   H1059     1.0  0.47107  0.86640  0.67400  1.0000
  H   H1060     1.0  0.43088  0.95497  0.75135  1.0000
  S   S261      1.0  0.32596  0.98435  0.84828  1.0000
  C   C675      1.0  0.29251  0.90938  0.80570  1.0000
  C   C676      1.0  0.35008  0.84288  0.65273  1.0000
  S   S262      1.0  0.47401  0.98178  0.67552  1.0000
  H   H1061     1.0  0.34022  0.96526  0.90876  1.0000
  C   C677      1.0  0.30520  0.96647  0.85535  1.0000
  N   N67       1.0  0.31170  0.95461  0.92252  1.0000
  H   H1062     1.0  0.31076  0.92801  0.91415  1.0000
  H   H1063     1.0  0.28965  0.92097  0.85218  1.0000
  H   H1064     1.0  0.26496  0.84110  0.96849  1.0000
  C   C678      1.0  0.45102  0.96922  0.67930  1.0000
  H   H1065     1.0  0.29988  0.92720  0.76403  1.0000
  H   H1066     1.0  0.33500  0.94639  0.93138  1.0000
  H   H1067     1.0  0.43378  0.87919  0.79513  1.0000
  H   H1068     1.0  0.27485  0.90691  0.93823  1.0000
  H   H1069     1.0  0.31571  0.97795  0.89708  1.0000
  C   C679      1.0  0.26881  0.87940  0.93138  1.0000
  H   H1070     1.0  0.26606  0.78954  0.66609  1.0000
  H   H1071     1.0  0.39992  0.87244  0.80885  1.0000
  H   H1072     1.0  0.42855  0.96353  0.72404  1.0000
  H   H1073     1.0  0.28480  0.89770  0.81891  1.0000
  C   C680      1.0  0.43015  0.87486  0.77968  1.0000
  C   C681      1.0  0.47196  0.85333  0.66848  1.0000
  H   H1074     1.0  0.43498  0.97919  0.74225  1.0000
  C   C682      1.0  0.43719  0.97821  0.67873  1.0000
  H   H1075     1.0  0.25966  0.90813  0.77417  1.0000
  H   H1076     1.0  0.40843  0.97507  0.67902  1.0000
  C   C683      1.0  0.27228  0.79978  0.65083  1.0000
  C   C684      1.0  0.41375  0.84458  0.79940  1.0000
  H   H1077     1.0  0.39915  0.93461  0.75656  1.0000
  H   H1078     1.0  0.40078  0.83345  0.80270  1.0000
  C   C685      1.0  0.39772  0.86789  0.79306  1.0000
  H   H1079     1.0  0.28822  0.98272  0.86794  1.0000
  C   C686      1.0  0.27041  0.86859  0.97557  1.0000
  S   S263      1.0  0.25153  0.92006  0.86759  1.0000
  H   H1080     1.0  0.40788  0.95540  0.78299  1.0000
  H   H1081     1.0  0.30997  0.98210  0.92433  1.0000
  H   H1082     1.0  0.30203  0.95620  0.95600  1.0000
  H   H1083     1.0  0.30183  0.90401  0.79466  1.0000
  H   H1084     1.0  0.40835  0.86640  0.75074  1.0000
  C   C687      1.0  0.30534  0.94893  0.85082  1.0000
  C   C688      1.0  0.26866  0.90266  0.78424  1.0000
  H   H1085     1.0  0.38060  0.94451  0.75251  1.0000
  H   H1086     1.0  0.25968  0.89152  0.79734  1.0000
  C   C689      1.0  0.40400  0.96626  0.77243  1.0000
  N   N68       1.0  0.28003  0.91714  0.79368  1.0000
  H   H1087     1.0  0.29686  0.78660  0.66964  1.0000
  C   C690      1.0  0.30728  0.97164  0.91356  1.0000
  H   H1088     1.0  0.31806  0.94656  0.84372  1.0000
  H   H1089     1.0  0.38666  0.97832  0.74145  1.0000
  H   H1090     1.0  0.28535  0.94265  0.94306  1.0000
  C   C691      1.0  0.30240  0.79659  0.65405  1.0000
  H   H1091     1.0  0.39568  0.84407  0.76526  1.0000
  H   H1092     1.0  0.27720  0.89609  0.77375  1.0000
  H   H1093     1.0  0.43636  0.83694  0.67478  1.0000
  H   H1094     1.0  0.45820  0.82044  0.65812  1.0000
  S   S264      1.0  0.24401  0.83736  0.86776  1.0000
  C   C692      1.0  0.40895  0.85464  0.76296  1.0000
  C   C693      1.0  0.29085  0.93221  0.77589  1.0000
  H   H1095     1.0  0.41642  0.84846  0.81540  1.0000
  H   H1096     1.0  0.25959  0.95739  0.87506  1.0000
  C   C694      1.0  0.30834  0.94133  0.90745  1.0000
  H   H1097     1.0  0.41251  0.97973  0.77465  1.0000
  C   C695      1.0  0.27345  0.88721  0.96703  1.0000
  H   H1098     1.0  0.27611  0.93567  0.81583  1.0000
  C   C696      1.0  0.30010  0.94653  0.94421  1.0000
  H   H1099     1.0  0.30108  0.91980  0.81341  1.0000
  N   N69       1.0  0.40667  0.96413  0.74915  1.0000
  C   C697      1.0  0.47793  0.88188  0.72918  1.0000
  H   H1100     1.0  0.25801  0.92962  0.80066  1.0000
  H   H1101     1.0  0.31744  0.94667  0.89121  1.0000
  H   H1102     1.0  0.33408  0.96887  0.93620  1.0000
  H   H1103     1.0  0.46732  0.84223  0.68314  1.0000
  H   H1104     1.0  0.43972  0.86080  0.66466  1.0000
  H   H1105     1.0  0.40289  0.97752  0.71829  1.0000
  H   H1106     1.0  0.39706  0.94405  0.72947  1.0000
  C   C698      1.0  0.44161  0.84777  0.65987  1.0000
  H   H1107     1.0  0.30334  0.93381  0.95156  1.0000
  N   N70       1.0  0.46098  0.84948  0.65119  1.0000
  H   H1108     1.0  0.34818  0.81409  0.65462  1.0000
  Fe  Fe134     1.0  0.64219  0.04210  0.23614  1.0000
  S   S265      1.0  0.62925  0.05072  0.20798  1.0000
  S   S266      1.0  0.63843  0.01171  0.24543  1.0000
  Fe  Fe135     1.0  0.65805  0.08144  0.24227  1.0000
  S   S267      1.0  0.64660  0.09283  0.21382  1.0000
  S   S268      1.0  0.67334  0.10409  0.25829  1.0000
  Fe  Fe136     1.0  0.62117  0.07044  0.22824  1.0000
  S   S269      1.0  0.59363  0.07612  0.23592  1.0000
  Fe  Fe137     1.0  0.65609  0.07206  0.19631  1.0000
  S   S270      1.0  0.66778  0.07610  0.16005  1.0000
  S   S271      1.0  0.63200  0.06009  0.25764  1.0000
  S   S272      1.0  0.66962  0.06233  0.22345  1.0000
  Fe  Fe138     1.0  0.50499  0.04775  0.18982  1.0000
  S   S273      1.0  0.53409  0.04683  0.17960  1.0000
  C   C699      1.0  0.67066  0.10468  0.28672  1.0000
  C   C700      1.0  0.67882  0.12099  0.29367  1.0000
  H   H1109     1.0  0.49870  0.23724  0.30909  1.0000
  C   C701      1.0  0.48904  0.09276  0.25301  1.0000
  S   S274      1.0  0.55120  0.14935  0.30118  1.0000
  H   H1110     1.0  0.49162  0.06516  0.25880  1.0000
  H   H1111     1.0  0.68679  0.13276  0.28162  1.0000
  H   H1112     1.0  0.54434  0.13292  0.22228  1.0000
  H   H1113     1.0  0.65422  0.07687  0.29728  1.0000
  C   C702      1.0  0.57719  0.06576  0.22125  1.0000
  C   C703      1.0  0.58235  0.06280  0.20002  1.0000
  C   C704      1.0  0.56896  0.05657  0.18757  1.0000
  C   C705      1.0  0.55039  0.05321  0.19632  1.0000
  C   C706      1.0  0.54523  0.05526  0.21797  1.0000
  C   C707      1.0  0.55861  0.06169  0.23033  1.0000
  H   H1114     1.0  0.59666  0.06593  0.19288  1.0000
  H   H1115     1.0  0.57304  0.05483  0.17090  1.0000
  H   H1116     1.0  0.53097  0.05220  0.22509  1.0000
  H   H1117     1.0  0.55456  0.06372  0.24688  1.0000
  C   C708      1.0  0.69161  0.08189  0.15069  1.0000
  C   C709      1.0  0.69829  0.08300  0.12832  1.0000
  C   C710      1.0  0.71719  0.08750  0.12035  1.0000
  C   C711      1.0  0.51261  0.32024  0.28805  1.0000
  H   H1118     1.0  0.57332  0.00586  0.24721  1.0000
  C   C712      1.0  0.70399  0.08533  0.16503  1.0000
  H   H1119     1.0  0.68879  0.08048  0.11711  1.0000
  H   H1120     1.0  0.72218  0.08851  0.10307  1.0000
  C   C713      1.0  0.73210  0.00009  0.04019  1.0000
  H   H1121     1.0  0.69900  0.08458  0.18226  1.0000
  H   H1122     1.0  0.56903  0.11893  0.20819  1.0000
  C   C714      1.0  0.61545  0.00073  0.19001  1.0000
  H   H1123     1.0  0.62196  0.01402  0.17870  1.0000
  C   C715      1.0  0.49246  0.10967  0.26030  1.0000
  H   H1124     1.0  0.54521  0.00166  0.22920  1.0000
  H   H1125     1.0  0.65108  0.12720  0.24114  1.0000
  H   H1126     1.0  0.63222  0.10353  0.28679  1.0000
  H   H1127     1.0  0.55185  0.13209  0.18232  1.0000
  H   H1128     1.0  0.52534  0.08263  0.22785  1.0000
  H   H1129     1.0  0.50382  0.12520  0.28393  1.0000
  H   H1130     1.0  0.53061  0.08215  0.19894  1.0000
  S   S275      1.0  0.53685  0.19540  0.30223  1.0000
  N   N71       1.0  0.54039  0.10852  0.20788  1.0000
  H   H1131     1.0  0.73234  0.09287  0.16822  1.0000
  C   C716      1.0  0.50293  0.08067  0.28229  1.0000
  N   N72       1.0  0.72170  0.03249  0.12477  1.0000
  H   H1132     1.0  0.61104  0.09446  0.27771  1.0000
  H   H1133     1.0  0.70995  0.03117  0.15845  1.0000
  H   H1134     1.0  0.56293  0.09710  0.19954  1.0000
  C   C717      1.0  0.72288  0.09005  0.15702  1.0000
  C   C718      1.0  0.72309  0.01338  0.12838  1.0000
  H   H1135     1.0  0.49085  0.28373  0.29795  1.0000
  H   H1136     1.0  0.71608  0.05137  0.09949  1.0000
  H   H1137     1.0  0.61632  0.14503  0.27263  1.0000
  C   C719      1.0  0.60188  0.00845  0.24706  1.0000
  H   H1138     1.0  0.72815  0.03579  0.08964  1.0000
  H   H1139     1.0  0.53283  0.11200  0.24115  1.0000
  C   C720      1.0  0.54182  0.11839  0.18540  1.0000
  C   C721      1.0  0.55832  0.10570  0.21102  1.0000
  C   C722      1.0  0.50129  0.11214  0.27839  1.0000
  H   H1140     1.0  0.60245  0.12288  0.28645  1.0000
  C   C723      1.0  0.53941  0.00015  0.21399  1.0000
  H   H1141     1.0  0.60508  0.02301  0.24727  1.0000
  C   C724      1.0  0.71733  0.03705  0.10273  1.0000
  H   H1142     1.0  0.49640  0.00127  0.23446  1.0000
  H   H1143     1.0  0.64504  0.14759  0.24699  1.0000
  H   H1144     1.0  0.70425  0.02775  0.10082  1.0000
  C   C725      1.0  0.52683  0.09057  0.21110  1.0000
  H   H1145     1.0  0.71017  0.00352  0.12698  1.0000
  H   H1146     1.0  0.48826  0.12090  0.25191  1.0000
  H   H1147     1.0  0.51317  0.09228  0.20905  1.0000
  C   C726      1.0  0.50642  0.09756  0.28953  1.0000
  N   N73       1.0  0.62528  0.12229  0.26259  1.0000
  C   C727      1.0  0.61489  0.12140  0.24437  1.0000
  C   C728      1.0  0.62517  0.10353  0.27240  1.0000
  C   C729      1.0  0.61675  0.13092  0.27945  1.0000
  C   C730      1.0  0.64432  0.13322  0.25414  1.0000
  H   H1148     1.0  0.62082  0.11462  0.23158  1.0000
  H   H1149     1.0  0.61485  0.13531  0.23633  1.0000
  H   H1150     1.0  0.59179  0.21480  0.31166  1.0000
  H   H1151     1.0  0.63245  0.09713  0.26039  1.0000
  H   H1152     1.0  0.55777  0.09858  0.22797  1.0000
  H   H1153     1.0  0.54625  0.11052  0.17290  1.0000
  H   H1154     1.0  0.52263  0.26641  0.30459  1.0000
  H   H1155     1.0  0.60092  0.00350  0.15333  1.0000
  H   H1156     1.0  0.65271  0.13364  0.26734  1.0000
  H   H1157     1.0  0.62579  0.99764  0.19976  1.0000
  H   H1158     1.0  0.54566  0.23488  0.29487  1.0000
  C   C731      1.0  0.48883  0.26860  0.30014  1.0000
  H   H1159     1.0  0.72634  0.00944  0.14486  1.0000
  H   H1160     1.0  0.52092  0.12166  0.22196  1.0000
  H   H1161     1.0  0.51568  0.00571  0.18749  1.0000
  H   H1162     1.0  0.73411  0.01151  0.11603  1.0000
  C   C732      1.0  0.51160  0.00592  0.23068  1.0000
  H   H1163     1.0  0.52841  0.12051  0.18248  1.0000
  H   H1164     1.0  0.50676  0.06929  0.29091  1.0000
  C   C733      1.0  0.53442  0.11930  0.22400  1.0000
  H   H1165     1.0  0.62443  0.13204  0.29328  1.0000
  H   H1166     1.0  0.53234  0.30514  0.24448  1.0000
  S   S276      1.0  0.49407  0.07154  0.17894  1.0000
  H   H1167     1.0  0.60046  0.11322  0.25019  1.0000
  H   H1168     1.0  0.51554  0.01988  0.22059  1.0000
  C   C734      1.0  0.52444  0.31241  0.27588  1.0000
  C   C735      1.0  0.58388  0.99870  0.24704  1.0000
  C   C736      1.0  0.72955  0.09116  0.13468  1.0000
  H   H1169     1.0  0.72767  0.00294  0.02474  1.0000
  C   C737      1.0  0.70716  0.03458  0.14160  1.0000
  H   H1170     1.0  0.70598  0.04894  0.13951  1.0000
  C   C738      1.0  0.66046  0.08953  0.30242  1.0000
  S   S277      1.0  0.49106  0.04310  0.22470  1.0000
  H   H1171     1.0  0.53406  0.30666  0.28360  1.0000
  H   H1172     1.0  0.69361  0.02557  0.14073  1.0000
  H   H1173     1.0  0.54385  0.01378  0.20302  1.0000
  H   H1174     1.0  0.51660  0.00708  0.24643  1.0000
  C   C739      1.0  0.52348  0.31160  0.25370  1.0000
  H   H1175     1.0  0.49671  0.26577  0.28527  1.0000
  C   C740      1.0  0.51112  0.31910  0.24338  1.0000
  C   C741      1.0  0.49441  0.07831  0.26402  1.0000
  H   H1176     1.0  0.60418  0.00288  0.20173  1.0000
  C   C742      1.0  0.61565  0.99936  0.24693  1.0000
  S   S278      1.0  0.50998  0.31742  0.21572  1.0000
  H   H1177     1.0  0.63084  0.99606  0.15064  1.0000
  C   C743      1.0  0.54195  0.22991  0.31237  1.0000
  N   N74       1.0  0.51930  0.99323  0.21897  1.0000
  H   H1178     1.0  0.58317  0.99252  0.17651  1.0000
  S   S279      1.0  0.51638  0.09945  0.31316  1.0000
  Fe  Fe139     1.0  0.68407  0.13549  0.60351  1.0000
  S   S280      1.0  0.68678  0.15718  0.62449  1.0000
  S   S281      1.0  0.67114  0.10542  0.61733  1.0000
  Fe  Fe140     1.0  0.69950  0.16352  0.56091  1.0000
  S   S282      1.0  0.70321  0.18740  0.57875  1.0000
  S   S283      1.0  0.70870  0.17172  0.52426  1.0000
  Fe  Fe141     1.0  0.71401  0.17002  0.60266  1.0000
  H   H1179     1.0  0.51595  0.23667  0.62060  1.0000
  Fe  Fe142     1.0  0.67575  0.17226  0.59859  1.0000
  S   S284      1.0  0.65192  0.18364  0.60698  1.0000
  S   S285      1.0  0.71229  0.14702  0.58350  1.0000
  S   S286      1.0  0.67109  0.14972  0.57887  1.0000
  Fe  Fe143     1.0  0.67534  0.13284  0.37483  1.0000
  S   S287      1.0  0.68463  0.16248  0.35867  1.0000
  S   S288      1.0  0.66410  0.10764  0.36023  1.0000
  Fe  Fe144     1.0  0.67716  0.14245  0.42105  1.0000
  S   S289      1.0  0.68670  0.17269  0.40848  1.0000
  S   S290      1.0  0.66929  0.12948  0.45693  1.0000
  Fe  Fe145     1.0  0.66578  0.16723  0.38687  1.0000
  S   S291      1.0  0.64344  0.18148  0.38712  1.0000
  Fe  Fe146     1.0  0.70492  0.16530  0.38179  1.0000
  S   S292      1.0  0.55496  0.29959  0.32626  1.0000
  S   S293      1.0  0.65496  0.13752  0.40123  1.0000
  S   S294      1.0  0.69693  0.13510  0.39611  1.0000
  H   H1180     1.0  0.62871  0.13073  0.47655  1.0000
  Fe  Fe147     1.0  0.56623  0.14736  0.32925  1.0000
  S   S295      1.0  0.54519  0.12318  0.34964  1.0000
  H   H1181     1.0  0.59136  0.13337  0.57860  1.0000
  H   H1182     1.0  0.59685  0.10771  0.56045  1.0000
  S   S296      1.0  0.55570  0.16803  0.34559  1.0000
  Fe  Fe148     1.0  0.54618  0.15928  0.53750  1.0000
  Fe  Fe149     1.0  0.58587  0.16034  0.53138  1.0000
  S   S297      1.0  0.58039  0.13088  0.52830  1.0000
  S   S298      1.0  0.61464  0.17787  0.52407  1.0000
  Fe  Fe150     1.0  0.56095  0.13668  0.50636  1.0000
  H   H1183     1.0  0.60722  0.12532  0.46711  1.0000
  S   S299      1.0  0.56814  0.16661  0.50770  1.0000
  S   S300      1.0  0.56467  0.15521  0.56157  1.0000
  C   C744      1.0  0.63007  0.17305  0.36845  1.0000
  C   C745      1.0  0.63826  0.16843  0.34943  1.0000
  C   C746      1.0  0.62757  0.16091  0.33486  1.0000
  C   C747      1.0  0.60863  0.15773  0.33944  1.0000
  C   C748      1.0  0.60036  0.16226  0.35853  1.0000
  C   C749      1.0  0.61111  0.17007  0.37297  1.0000
  H   H1184     1.0  0.65290  0.17091  0.34575  1.0000
  H   H1185     1.0  0.58939  0.32328  0.43638  1.0000
  H   H1186     1.0  0.58569  0.15927  0.36253  1.0000
  H   H1187     1.0  0.60471  0.17333  0.38790  1.0000
  C   C750      1.0  0.69522  0.16045  0.50712  1.0000
  C   C751      1.0  0.69538  0.16985  0.48619  1.0000
  C   C752      1.0  0.68670  0.16063  0.47105  1.0000
  C   C753      1.0  0.67820  0.14184  0.47655  1.0000
  C   C754      1.0  0.67731  0.13260  0.49782  1.0000
  C   C755      1.0  0.68575  0.14191  0.51315  1.0000
  S   S301      1.0  0.54708  0.31184  0.54175  1.0000
  H   H1188     1.0  0.68686  0.16802  0.45502  1.0000
  H   H1189     1.0  0.58973  0.11932  0.60451  1.0000
  H   H1190     1.0  0.68563  0.13456  0.52927  1.0000
  C   C756      1.0  0.64152  0.18410  0.58388  1.0000
  C   C757      1.0  0.62253  0.18058  0.58621  1.0000
  C   C758      1.0  0.61410  0.17867  0.56783  1.0000
  C   C759      1.0  0.62474  0.18080  0.54712  1.0000
  C   C760      1.0  0.64374  0.18515  0.54470  1.0000
  C   C761      1.0  0.65211  0.18654  0.56311  1.0000
  H   H1191     1.0  0.61435  0.17865  0.60232  1.0000
  H   H1192     1.0  0.59942  0.17554  0.56971  1.0000
  H   H1193     1.0  0.65201  0.18685  0.52868  1.0000
  H   H1194     1.0  0.66681  0.18932  0.56124  1.0000
  H   H1195     1.0  0.60703  0.20271  0.34041  1.0000
  C   C762      1.0  0.66701  0.10690  0.33182  1.0000
  H   H1196     1.0  0.51026  0.23644  0.45989  1.0000
  H   H1197     1.0  0.50902  0.03816  0.62989  1.0000
  C   C763      1.0  0.53321  0.21703  0.35753  1.0000
  H   H1198     1.0  0.64402  0.17877  0.44627  1.0000
  H   H1199     1.0  0.54323  0.17852  0.58055  1.0000
  H   H1200     1.0  0.65111  0.07872  0.33694  1.0000
  H   H1201     1.0  0.51484  0.14395  0.44456  1.0000
  H   H1202     1.0  0.64971  0.16190  0.46513  1.0000
  H   H1203     1.0  0.49685  0.11385  0.37799  1.0000
  H   H1204     1.0  0.49333  0.23444  0.63514  1.0000
  H   H1205     1.0  0.61179  0.12830  0.38310  1.0000
  N   N75       1.0  0.50981  0.21816  0.48955  1.0000
  H   H1206     1.0  0.63358  0.12465  0.35269  1.0000
  C   C764      1.0  0.54127  0.07787  0.62144  1.0000
  H   H1207     1.0  0.51763  0.28498  0.31663  1.0000
  C   C765      1.0  0.49122  0.24144  0.32324  1.0000
  H   H1208     1.0  0.62837  0.24427  0.56820  1.0000
  C   C766      1.0  0.60511  0.10465  0.57309  1.0000
  H   H1209     1.0  0.70248  0.18427  0.48158  1.0000
  H   H1210     1.0  0.72178  0.14536  0.47422  1.0000
  H   H1211     1.0  0.59302  0.12350  0.36863  1.0000
  H   H1212     1.0  0.72282  0.19720  0.40577  1.0000
  S   S302      1.0  0.54193  0.25080  0.36869  1.0000
  H   H1213     1.0  0.50955  0.20308  0.46292  1.0000
  S   S303      1.0  0.55790  0.24224  0.59303  1.0000
  H   H1214     1.0  0.62520  0.08530  0.37604  1.0000
  H   H1215     1.0  0.58713  0.09667  0.35077  1.0000
  C   C767      1.0  0.62593  0.13490  0.56251  1.0000
  H   H1216     1.0  0.62836  0.12850  0.44854  1.0000
  H   H1217     1.0  0.60826  0.21248  0.53264  1.0000
  H   H1218     1.0  0.63404  0.15742  0.32014  1.0000
  H   H1219     1.0  0.58414  0.08236  0.37705  1.0000
  H   H1220     1.0  0.55396  0.20302  0.60183  1.0000
  H   H1221     1.0  0.58747  0.20625  0.56853  1.0000
  N   N76       1.0  0.62306  0.15337  0.45682  1.0000
  C   C768      1.0  0.61390  0.15658  0.43793  1.0000
  C   C769      1.0  0.61416  0.15946  0.47585  1.0000
  C   C770      1.0  0.64247  0.16382  0.45110  1.0000
  C   C771      1.0  0.62173  0.13359  0.46250  1.0000
  H   H1222     1.0  0.62018  0.15194  0.42336  1.0000
  H   H1223     1.0  0.61493  0.17141  0.43296  1.0000
  H   H1224     1.0  0.59914  0.14913  0.44184  1.0000
  H   H1225     1.0  0.62054  0.15685  0.49049  1.0000
  H   H1226     1.0  0.61519  0.17440  0.47245  1.0000
  H   H1227     1.0  0.59942  0.15210  0.48042  1.0000
  H   H1228     1.0  0.64967  0.15930  0.43710  1.0000
  H   H1229     1.0  0.59827  0.32364  0.58252  1.0000
  H   H1230     1.0  0.71352  0.11380  0.62640  1.0000
  C   C772      1.0  0.53760  0.19682  0.55459  1.0000
  C   C773      1.0  0.59952  0.12934  0.59090  1.0000
  C   C774      1.0  0.58203  0.23050  0.35903  1.0000
  H   H1231     1.0  0.52684  0.11489  0.60266  1.0000
  H   H1232     1.0  0.54857  0.25697  0.32082  1.0000
  H   H1233     1.0  0.48883  0.26167  0.35502  1.0000
  C   C775      1.0  0.54361  0.19255  0.57433  1.0000
  C   C776      1.0  0.54961  0.22456  0.57875  1.0000
  H   H1234     1.0  0.50650  0.22743  0.52044  1.0000
  H   H1235     1.0  0.72384  0.20943  0.60861  1.0000
  Fe  Fe151     1.0  0.53302  0.14391  0.36356  1.0000
  C   C777      1.0  0.56020  0.13062  0.43125  1.0000
  C   C778      1.0  0.55391  0.13247  0.45279  1.0000
  H   H1236     1.0  0.55515  0.13221  0.39796  1.0000
  C   C779      1.0  0.54951  0.20640  0.58648  1.0000
  Fe  Fe152     1.0  0.52906  0.12657  0.32266  1.0000
  C   C780      1.0  0.53219  0.26806  0.63208  1.0000
  C   C781      1.0  0.62465  0.11678  0.59776  1.0000
  C   C782      1.0  0.60101  0.11704  0.37935  1.0000
  H   H1237     1.0  0.62953  0.10496  0.38896  1.0000
  H   H1238     1.0  0.57269  0.12659  0.42758  1.0000
  H   H1239     1.0  0.60008  0.08008  0.35436  1.0000
  H   H1240     1.0  0.61543  0.09816  0.56570  1.0000
  C   C783      1.0  0.53379  0.13842  0.41926  1.0000
  C   C784      1.0  0.55027  0.13377  0.41446  1.0000
  C   C785      1.0  0.51521  0.09624  0.63342  1.0000
  H   H1241     1.0  0.52765  0.18999  0.34928  1.0000
  C   C786      1.0  0.53652  0.21097  0.32038  1.0000
  S   S304      1.0  0.52031  0.14116  0.39898  1.0000
  Fe  Fe153     1.0  0.55723  0.12583  0.55661  1.0000
  C   C787      1.0  0.53770  0.13760  0.45745  1.0000
  C   C788      1.0  0.52758  0.14038  0.44076  1.0000
  H   H1242     1.0  0.52985  0.21195  0.37503  1.0000
  H   H1243     1.0  0.53273  0.13899  0.47401  1.0000
  C   C789      1.0  0.53200  0.20458  0.34297  1.0000
  S   S305      1.0  0.53701  0.12937  0.53434  1.0000
  H   H1244     1.0  0.48887  0.22965  0.47868  1.0000
  H   H1245     1.0  0.66075  0.06899  0.64300  1.0000
  H   H1246     1.0  0.58828  0.22400  0.58478  1.0000
  N   N77       1.0  0.51445  0.25547  0.64307  1.0000
  H   H1247     1.0  0.53348  0.21854  0.53179  1.0000
  H   H1248     1.0  0.55143  0.07074  0.61692  1.0000
  C   C790      1.0  0.54061  0.09360  0.60729  1.0000
  S   S306      1.0  0.52951  0.17982  0.53923  1.0000
  H   H1249     1.0  0.62465  0.25924  0.54544  1.0000
  H   H1250     1.0  0.63577  0.11099  0.59086  1.0000
  C   C791      1.0  0.53772  0.21496  0.54706  1.0000
  N   N78       1.0  0.60905  0.10403  0.36860  1.0000
  C   C792      1.0  0.65873  0.09062  0.32488  1.0000
  H   H1251     1.0  0.59160  0.11010  0.39500  1.0000
  H   H1252     1.0  0.62863  0.10470  0.34020  1.0000
  S   S307      1.0  0.51495  0.14544  0.33832  1.0000
  C   C793      1.0  0.72214  0.16112  0.43339  1.0000
  C   C794      1.0  0.52748  0.10274  0.61335  1.0000
  C   C795      1.0  0.62226  0.11409  0.34868  1.0000
  C   C796      1.0  0.49464  0.03277  0.63862  1.0000
  H   H1253     1.0  0.61600  0.10648  0.61191  1.0000
  H   H1254     1.0  0.50394  0.25337  0.61314  1.0000
  C   C797      1.0  0.61689  0.22446  0.53802  1.0000
  H   H1255     1.0  0.60553  0.14177  0.59758  1.0000
  H   H1256     1.0  0.63291  0.14755  0.56811  1.0000
  N   N79       1.0  0.61381  0.12140  0.58107  1.0000
  C   C798      1.0  0.54374  0.22875  0.55899  1.0000
  H   H1257     1.0  0.50512  0.10344  0.63800  1.0000
  S   S308      1.0  0.55649  0.10131  0.58235  1.0000
  H   H1258     1.0  0.53506  0.23583  0.49388  1.0000
  C   C799      1.0  0.72189  0.10930  0.63820  1.0000
  C   C800      1.0  0.54348  0.24241  0.32701  1.0000
  N   N80       1.0  0.59364  0.22433  0.34236  1.0000
  C   C801      1.0  0.50369  0.20119  0.48065  1.0000
  H   H1259     1.0  0.61561  0.12118  0.33679  1.0000
  H   H1260     1.0  0.53651  0.22611  0.46939  1.0000
  C   C802      1.0  0.61852  0.09484  0.38386  1.0000
  N   N81       1.0  0.60578  0.23241  0.55322  1.0000
  H   H1261     1.0  0.59559  0.09429  0.58661  1.0000
  H   H1262     1.0  0.73169  0.16950  0.47159  1.0000
  Fe  Fe154     1.0  0.57354  0.30759  0.54993  1.0000
  H   H1263     1.0  0.60899  0.08683  0.39896  1.0000
  N   N82       1.0  0.49475  0.26161  0.32039  1.0000
  S   S309      1.0  0.56634  0.12763  0.47357  1.0000
  H   H1264     1.0  0.67060  0.11808  0.50225  1.0000
  C   C803      1.0  0.61766  0.24832  0.55985  1.0000
  H   H1265     1.0  0.63126  0.12914  0.60425  1.0000
  C   C804      1.0  0.59669  0.21841  0.57288  1.0000
  C   C805      1.0  0.59444  0.09015  0.36243  1.0000
  H   H1266     1.0  0.58613  0.19657  0.35989  1.0000
  C   C806      1.0  0.53358  0.30695  0.44056  1.0000
  H   H1267     1.0  0.63677  0.12934  0.55446  1.0000
  S   S310      1.0  0.53339  0.32105  0.41584  1.0000
  H   H1268     1.0  0.60963  0.25454  0.57143  1.0000
  H   H1269     1.0  0.71665  0.14246  0.64055  1.0000
  C   C807      1.0  0.53908  0.23594  0.34963  1.0000
  H   H1270     1.0  0.68336  0.13475  0.32124  1.0000
  S   S311      1.0  0.59552  0.14698  0.32182  1.0000
  C   C808      1.0  0.67173  0.09741  0.64497  1.0000
  H   H1271     1.0  0.60679  0.21347  0.58155  1.0000
  S   S312      1.0  0.51533  0.30802  0.59923  1.0000
  H   H1272     1.0  0.73026  0.12920  0.44373  1.0000
  H   H1273     1.0  0.59818  0.24850  0.52680  1.0000
  H   H1274     1.0  0.49836  0.03427  0.59505  1.0000
  C   C809      1.0  0.67692  0.12215  0.31611  1.0000
  H   H1275     1.0  0.56918  0.21965  0.36620  1.0000
  Fe  Fe155     1.0  0.53997  0.31180  0.38355  1.0000
  H   H1276     1.0  0.57253  0.31982  0.41892  1.0000
  H   H1277     1.0  0.62408  0.23462  0.52302  1.0000
  C   C810      1.0  0.52994  0.22325  0.48696  1.0000
  C   C811      1.0  0.53156  0.31367  0.46030  1.0000
  H   H1278     1.0  0.53045  0.27758  0.61792  1.0000
  C   C812      1.0  0.49513  0.10026  0.37274  1.0000
  H   H1279     1.0  0.51934  0.26503  0.33393  1.0000
  H   H1280     1.0  0.50625  0.10175  0.35866  1.0000
  H   H1281     1.0  0.53017  0.30811  0.49541  1.0000
  H   H1282     1.0  0.72474  0.16269  0.41520  1.0000
  C   C813      1.0  0.53526  0.31323  0.63256  1.0000
  H   H1283     1.0  0.50790  0.24600  0.48444  1.0000
  Fe  Fe156     1.0  0.54552  0.28122  0.35928  1.0000
  C   C814      1.0  0.50170  0.21501  0.51306  1.0000
  S   S313      1.0  0.56367  0.30001  0.37657  1.0000
  Fe  Fe157     1.0  0.53587  0.29858  0.57707  1.0000
  S   S314      1.0  0.56277  0.29628  0.58563  1.0000
  Fe  Fe158     1.0  0.54201  0.28322  0.53429  1.0000
  S   S315      1.0  0.56936  0.28000  0.53999  1.0000
  Fe  Fe159     1.0  0.55564  0.26893  0.57480  1.0000
  H   H1284     1.0  0.61951  0.23499  0.32061  1.0000
  H   H1285     1.0  0.60640  0.21099  0.36593  1.0000
  S   S316      1.0  0.52794  0.27035  0.56879  1.0000
  C   C815      1.0  0.51900  0.31359  0.62507  1.0000
  C   C816      1.0  0.53415  0.28521  0.48060  1.0000
  Fe  Fe160     1.0  0.57087  0.31959  0.34454  1.0000
  H   H1286     1.0  0.54616  0.31011  0.62225  1.0000
  C   C817      1.0  0.53201  0.30291  0.48024  1.0000
  H   H1287     1.0  0.49583  0.23584  0.33825  1.0000
  C   C818      1.0  0.59186  0.23842  0.54215  1.0000
  H   H1288     1.0  0.53832  0.26502  0.46090  1.0000
  S   S317      1.0  0.53285  0.27063  0.50556  1.0000
  H   H1289     1.0  0.58209  0.22662  0.53785  1.0000
  H   H1290     1.0  0.49935  0.06334  0.60963  1.0000
  H   H1291     1.0  0.53484  0.21206  0.49551  1.0000
  C   C819      1.0  0.52896  0.07134  0.64148  1.0000
  C   C820      1.0  0.53637  0.27857  0.46082  1.0000
  S   S318      1.0  0.52111  0.29169  0.36856  1.0000
  H   H1292     1.0  0.61820  0.13909  0.54978  1.0000
  H   H1293     1.0  0.54395  0.24269  0.55265  1.0000
  H   H1294     1.0  0.58376  0.24518  0.55286  1.0000
  Fe  Fe161     1.0  0.53178  0.31162  0.33669  1.0000
  C   C821      1.0  0.59852  0.20796  0.35259  1.0000
  C   C822      1.0  0.51448  0.26983  0.31879  1.0000
  C   C823      1.0  0.50394  0.23318  0.47758  1.0000
  H   H1295     1.0  0.53794  0.28422  0.42566  1.0000
  H   H1296     1.0  0.62744  0.21959  0.54589  1.0000
  C   C824      1.0  0.53621  0.28944  0.44083  1.0000
  C   C825      1.0  0.50515  0.31811  0.63856  1.0000
  Fe  Fe162     1.0  0.53867  0.16810  0.31924  1.0000
  H   H1297     1.0  0.50798  0.18964  0.48941  1.0000
  H   H1298     1.0  0.71863  0.17369  0.43757  1.0000
  H   H1299     1.0  0.54192  0.26048  0.62576  1.0000
  H   H1300     1.0  0.57802  0.24282  0.35187  1.0000
  S   S319      1.0  0.73491  0.17989  0.36985  1.0000
  H   H1301     1.0  0.48856  0.19685  0.48240  1.0000
  S   S320      1.0  0.51140  0.31937  0.31662  1.0000
  H   H1302     1.0  0.70994  0.14928  0.43967  1.0000
  H   H1303     1.0  0.50542  0.20341  0.52256  1.0000
  H   H1304     1.0  0.53871  0.27652  0.64344  1.0000
  H   H1305     1.0  0.49732  0.09060  0.38648  1.0000
  H   H1306     1.0  0.58915  0.23417  0.37277  1.0000
  C   C826      1.0  0.73421  0.15670  0.46674  1.0000
  H   H1307     1.0  0.57077  0.20853  0.33081  1.0000
  C   C827      1.0  0.58355  0.21965  0.32452  1.0000
  H   H1308     1.0  0.48655  0.21162  0.51558  1.0000
  H   H1309     1.0  0.57958  0.23165  0.31643  1.0000
  C   C828      1.0  0.50655  0.24446  0.62734  1.0000
  H   H1310     1.0  0.61839  0.24305  0.34630  1.0000
  H   H1311     1.0  0.49216  0.01776  0.64439  1.0000
  H   H1312     1.0  0.60721  0.25176  0.32545  1.0000
  H   H1313     1.0  0.72918  0.10012  0.63064  1.0000
  H   H1314     1.0  0.49933  0.27538  0.63676  1.0000
  C   C829      1.0  0.61043  0.23918  0.33327  1.0000
  H   H1315     1.0  0.48730  0.28187  0.33782  1.0000
  H   H1316     1.0  0.49255  0.31853  0.63285  1.0000
  C   C830      1.0  0.51584  0.08050  0.64755  1.0000
  N   N83       1.0  0.73474  0.12513  0.64378  1.0000
  H   H1317     1.0  0.73599  0.24266  0.60860  1.0000
  Fe  Fe163     1.0  0.65610  0.03325  0.78487  1.0000
  S   S321      1.0  0.66993  0.02769  0.75358  1.0000
  S   S322      1.0  0.66697  0.02864  0.81655  1.0000
  Fe  Fe164     1.0  0.62307  0.03881  0.76424  1.0000
  S   S323      1.0  0.63435  0.03339  0.73152  1.0000
  S   S324      1.0  0.59736  0.04820  0.76926  1.0000
  Fe  Fe165     1.0  0.64213  0.01050  0.75145  1.0000
  H   H1318     1.0  0.71478  0.13047  0.66792  1.0000
  Fe  Fe166     1.0  0.66082  0.05115  0.73690  1.0000
  S   S325      1.0  0.67910  0.07648  0.71426  1.0000
  S   S326      1.0  0.62868  0.01462  0.78379  1.0000
  S   S327      1.0  0.64902  0.05798  0.76861  1.0000
  S   S328      1.0  0.52731  0.00465  0.73716  1.0000
  C   C831      1.0  0.67474  0.08406  0.68822  1.0000
  C   C832      1.0  0.66737  0.07184  0.67504  1.0000
  H   H1319     1.0  0.64111  0.09683  0.68304  1.0000
  N   N84       1.0  0.61970  0.08830  0.71129  1.0000
  C   C833      1.0  0.67996  0.10293  0.68003  1.0000
  H   H1320     1.0  0.66343  0.05723  0.68122  1.0000
  H   H1321     1.0  0.68543  0.11242  0.69033  1.0000
  C   C834      1.0  0.57824  0.03639  0.75945  1.0000
  C   C835      1.0  0.57817  0.02032  0.75108  1.0000
  C   C836      1.0  0.56253  0.01089  0.74396  1.0000
  C   C837      1.0  0.54704  0.01768  0.74471  1.0000
  C   C838      1.0  0.54733  0.03406  0.75241  1.0000
  C   C839      1.0  0.56285  0.04330  0.75995  1.0000
  H   H1322     1.0  0.59009  0.01506  0.75032  1.0000
  H   H1323     1.0  0.72324  0.00464  0.88237  1.0000
  H   H1324     1.0  0.53540  0.03930  0.75317  1.0000
  S   S329      1.0  0.49958  0.07252  0.67217  1.0000
  C   C840      1.0  0.67834  0.10959  0.65856  1.0000
  C   C841      1.0  0.70881  0.04877  0.84729  1.0000
  C   C842      1.0  0.69254  0.03833  0.84236  1.0000
  C   C843      1.0  0.68745  0.04246  0.82193  1.0000
  C   C844      1.0  0.69887  0.05709  0.80635  1.0000
  C   C845      1.0  0.71519  0.06752  0.81129  1.0000
  H   H1325     1.0  0.71232  0.04562  0.86323  1.0000
  H   H1326     1.0  0.68372  0.02716  0.85460  1.0000
  H   H1327     1.0  0.69507  0.06045  0.79057  1.0000
  H   H1328     1.0  0.64562  0.09526  0.72213  1.0000
  S   S330      1.0  0.49352  0.04098  0.73175  1.0000
  H   H1329     1.0  0.71978  0.02626  0.81035  1.0000
  C   C846      1.0  0.72030  0.06336  0.83174  1.0000
  H   H1330     1.0  0.56284  0.05574  0.76641  1.0000
  H   H1331     1.0  0.68432  0.99466  0.80755  1.0000
  C   C847      1.0  0.62768  0.08659  0.68903  1.0000
  H   H1332     1.0  0.63462  0.07132  0.72675  1.0000
  S   S331      1.0  0.50783  0.02296  0.68954  1.0000
  H   H1333     1.0  0.49340  0.03931  0.65337  1.0000
  S   S332      1.0  0.52671  0.32477  0.69387  1.0000
  Fe  Fe167     1.0  0.50539  0.01719  0.72613  1.0000
  C   C848      1.0  0.73441  0.02963  0.80251  1.0000
  H   H1334     1.0  0.73233  0.01736  0.93666  1.0000
  H   H1335     1.0  0.61867  0.08876  0.67700  1.0000
  H   H1336     1.0  0.59512  0.07590  0.73490  1.0000
  H   H1337     1.0  0.59225  0.07627  0.70690  1.0000
  H   H1338     1.0  0.52318  0.25113  0.67411  1.0000
  C   C849      1.0  0.60180  0.07464  0.71842  1.0000
  H   H1339     1.0  0.61142  0.10865  0.72771  1.0000
  H   H1340     1.0  0.60792  0.10986  0.69977  1.0000
  H   H1341     1.0  0.62994  0.07274  0.68877  1.0000
  H   H1342     1.0  0.63055  0.11758  0.70563  1.0000
  H   H1343     1.0  0.62614  0.08542  0.74384  1.0000
  H   H1344     1.0  0.60321  0.06037  0.71965  1.0000
  C   C850      1.0  0.61729  0.10694  0.71106  1.0000
  H   H1345     1.0  0.54996  0.31624  0.65945  1.0000
  C   C851      1.0  0.66593  0.07852  0.65340  1.0000
  C   C852      1.0  0.63205  0.08501  0.72666  1.0000
  H   H1346     1.0  0.72926  0.02349  0.84651  1.0000
  H   H1347     1.0  0.56242  0.99836  0.73770  1.0000
  C   C853      1.0  0.52352  0.32113  0.66724  1.0000
  Fe  Fe168     1.0  0.49404  0.04510  0.69505  1.0000
  H   H1348     1.0  0.72313  0.99642  0.82810  1.0000
  H   H1349     1.0  0.73387  0.14986  0.65631  1.0000
  H   H1350     1.0  0.52974  0.05934  0.65231  1.0000
  N   N85       1.0  0.73487  0.99817  0.96379  1.0000
  C   C854      1.0  0.53743  0.31680  0.65362  1.0000
  C   C855      1.0  0.51721  0.24319  0.66197  1.0000
  H   H1351     1.0  0.50411  0.23340  0.67064  1.0000
  H   H1352     1.0  0.71437  0.01265  0.95984  1.0000
  H   H1353     1.0  0.52669  0.23499  0.65664  1.0000
  H   H1354     1.0  0.50786  0.27530  0.66200  1.0000
  C   C856      1.0  0.50199  0.26627  0.65075  1.0000
  H   H1355     1.0  0.48857  0.25726  0.65961  1.0000
  H   H1356     1.0  0.71512  0.99590  0.94227  1.0000
  H   H1357     1.0  0.68255  0.12412  0.65245  1.0000
  H   H1358     1.0  0.71227  0.10083  0.65303  1.0000
  C   C857      1.0  0.72363  0.00631  0.95006  1.0000
  H   H1359     1.0  0.72392  0.07886  0.79919  1.0000
  C   C858      1.0  0.72454  0.13747  0.65258  1.0000
  H   H1360     1.0  0.61895  0.99775  0.71798  1.0000
  C   C859      1.0  0.50741  0.32195  0.65956  1.0000
  H   H1361     1.0  0.49662  0.32530  0.66992  1.0000
  H   H1362     1.0  0.67311  0.99527  0.83442  1.0000
  H   H1363     1.0  0.73503  0.11083  0.67577  1.0000
  H   H1364     1.0  0.73503  0.02515  0.78631  1.0000
  H   H1365     1.0  0.57707  0.38042  0.23080  1.0000
  S   S333      1.0  0.64579  0.46377  0.21550  1.0000
  S   S334      1.0  0.50742  0.34184  0.15886  1.0000
  C   C860      1.0  0.67053  0.49172  0.25882  1.0000
  Fe  Fe169     1.0  0.51306  0.37173  0.16165  1.0000
  S   S335      1.0  0.54139  0.39093  0.14791  1.0000
  H   H1366     1.0  0.72605  0.64066  0.10839  1.0000
  S   S336      1.0  0.63055  0.47818  0.15911  1.0000
  N   N86       1.0  0.70987  0.45094  0.26885  1.0000
  C   C861      1.0  0.54132  0.36444  0.23484  1.0000
  Fe  Fe170     1.0  0.60395  0.48476  0.16975  1.0000
  S   S337      1.0  0.57420  0.47096  0.16826  1.0000
  H   H1367     1.0  0.51901  0.59858  0.06866  1.0000
  C   C862      1.0  0.55029  0.41286  0.15462  1.0000
  C   C863      1.0  0.56913  0.42129  0.14867  1.0000
  C   C864      1.0  0.57676  0.43876  0.15343  1.0000
  C   C865      1.0  0.56554  0.44820  0.16379  1.0000
  C   C866      1.0  0.54669  0.43973  0.16985  1.0000
  C   C867      1.0  0.53912  0.42205  0.16557  1.0000
  H   H1368     1.0  0.57790  0.41431  0.14018  1.0000
  H   H1369     1.0  0.59126  0.44514  0.14853  1.0000
  H   H1370     1.0  0.53789  0.44687  0.17795  1.0000
  H   H1371     1.0  0.52464  0.41567  0.17040  1.0000
  C   C868      1.0  0.66619  0.47844  0.27800  1.0000
  C   C869      1.0  0.65530  0.46090  0.27792  1.0000
  C   C870      1.0  0.64910  0.45658  0.25865  1.0000
  C   C871      1.0  0.65328  0.46989  0.23953  1.0000
  H   H1372     1.0  0.65159  0.45064  0.29269  1.0000
  H   H1373     1.0  0.64084  0.44290  0.25863  1.0000
  H   H1374     1.0  0.70369  0.60032  0.11486  1.0000
  H   H1375     1.0  0.56099  0.35739  0.18569  1.0000
  C   C872      1.0  0.66398  0.48751  0.23968  1.0000
  H   H1376     1.0  0.57371  0.35644  0.22984  1.0000
  C   C873      1.0  0.55539  0.38685  0.20200  1.0000
  H   H1377     1.0  0.70532  0.53184  0.06258  1.0000
  C   C874      1.0  0.72484  0.45825  0.24979  1.0000
  N   N87       1.0  0.55519  0.36891  0.21459  1.0000
  H   H1378     1.0  0.60202  0.50649  0.24285  1.0000
  S   S338      1.0  0.50450  0.36595  0.19795  1.0000
  H   H1379     1.0  0.49645  0.59206  0.10337  1.0000
  C   C875      1.0  0.57039  0.65432  0.12659  1.0000
  H   H1380     1.0  0.69968  0.54608  0.04068  1.0000
  H   H1381     1.0  0.56542  0.39045  0.18636  1.0000
  H   H1382     1.0  0.54186  0.38677  0.19749  1.0000
  H   H1383     1.0  0.71771  0.53078  0.00336  1.0000
  C   C876      1.0  0.71293  0.43470  0.28200  1.0000
  H   H1384     1.0  0.73070  0.64370  0.07896  1.0000
  H   H1385     1.0  0.54780  0.63202  0.09595  1.0000
  H   H1386     1.0  0.73554  0.55450  0.05740  1.0000
  H   H1387     1.0  0.59291  0.50625  0.27092  1.0000
  C   C877      1.0  0.57335  0.36980  0.22045  1.0000
  H   H1388     1.0  0.49215  0.42123  0.16505  1.0000
  H   H1389     1.0  0.72583  0.43822  0.28866  1.0000
  C   C878      1.0  0.55076  0.35456  0.20104  1.0000
  H   H1390     1.0  0.52734  0.36300  0.23109  1.0000
  C   C879      1.0  0.69229  0.44564  0.26113  1.0000
  H   H1391     1.0  0.54060  0.61528  0.06574  1.0000
  H   H1392     1.0  0.58416  0.37329  0.20555  1.0000
  H   H1393     1.0  0.55001  0.34073  0.21015  1.0000
  H   H1394     1.0  0.61374  0.51095  0.29775  1.0000
  H   H1395     1.0  0.52470  0.58221  0.10323  1.0000
  H   H1396     1.0  0.73164  0.62282  0.09517  1.0000
  H   H1397     1.0  0.63831  0.53394  0.24129  1.0000
  H   H1398     1.0  0.55896  0.39813  0.21146  1.0000
  H   H1399     1.0  0.72556  0.44787  0.23906  1.0000
  H   H1400     1.0  0.70673  0.47756  0.27332  1.0000
  H   H1401     1.0  0.54389  0.37524  0.24516  1.0000
  H   H1402     1.0  0.53728  0.35369  0.19598  1.0000
  H   H1403     1.0  0.68935  0.45762  0.25140  1.0000
  C   C880      1.0  0.52589  0.61175  0.07330  1.0000
  H   H1404     1.0  0.70168  0.42867  0.29632  1.0000
  H   H1405     1.0  0.69764  0.61740  0.12918  1.0000
  H   H1406     1.0  0.61927  0.48374  0.25319  1.0000
  S   S339      1.0  0.60962  0.48860  0.20335  1.0000
  H   H1407     1.0  0.63794  0.51570  0.28888  1.0000
  H   H1408     1.0  0.60851  0.48238  0.28102  1.0000
  H   H1409     1.0  0.55920  0.54277  0.17162  1.0000
  Fe  Fe171     1.0  0.63690  0.48393  0.19212  1.0000
  H   H1410     1.0  0.65059  0.51783  0.25007  1.0000
  C   C881      1.0  0.62509  0.51763  0.28373  1.0000
  H   H1411     1.0  0.49726  0.61607  0.10020  1.0000
  H   H1412     1.0  0.62620  0.53261  0.28092  1.0000
  Fe  Fe172     1.0  0.49736  0.33633  0.19530  1.0000
  H   H1413     1.0  0.53018  0.59471  0.12467  1.0000
  Fe  Fe173     1.0  0.62319  0.51787  0.18832  1.0000
  C   C882      1.0  0.50387  0.60555  0.10680  1.0000
  H   H1414     1.0  0.52003  0.62258  0.06577  1.0000
  H   H1415     1.0  0.57919  0.53464  0.16652  1.0000
  H   H1416     1.0  0.56274  0.50357  0.18452  1.0000
  C   C883      1.0  0.53291  0.62807  0.10280  1.0000
  C   C884      1.0  0.53157  0.59589  0.10661  1.0000
  C   C885      1.0  0.56544  0.51090  0.14053  1.0000
  Fe  Fe174     1.0  0.64278  0.50880  0.14765  1.0000
  S   S340      1.0  0.61933  0.54189  0.20364  1.0000
  C   C886      1.0  0.49877  0.61724  0.25072  1.0000
  S   S341      1.0  0.65115  0.51378  0.17984  1.0000
  Fe  Fe175     1.0  0.51449  0.60149  0.20228  1.0000
  S   S342      1.0  0.51502  0.60667  0.16575  1.0000
  Fe  Fe176     1.0  0.53112  0.56964  0.19964  1.0000
  S   S343      1.0  0.53313  0.57237  0.16329  1.0000
  S   S344      1.0  0.53704  0.54452  0.21708  1.0000
  Fe  Fe177     1.0  0.54333  0.60286  0.16231  1.0000
  S   S345      1.0  0.56691  0.61659  0.13362  1.0000
  Fe  Fe178     1.0  0.50493  0.57600  0.16920  1.0000
  S   S346      1.0  0.54370  0.59971  0.19872  1.0000
  S   S347      1.0  0.50201  0.57119  0.20576  1.0000
  C   C887      1.0  0.59652  0.54282  0.20759  1.0000
  C   C888      1.0  0.59236  0.55977  0.20442  1.0000
  C   C889      1.0  0.57409  0.56053  0.20739  1.0000
  C   C890      1.0  0.56004  0.54439  0.21459  1.0000
  C   C891      1.0  0.56427  0.52755  0.21855  1.0000
  C   C892      1.0  0.58241  0.52669  0.21426  1.0000
  H   H1417     1.0  0.60325  0.57229  0.19923  1.0000
  H   H1418     1.0  0.57089  0.57359  0.20430  1.0000
  H   H1419     1.0  0.55344  0.51506  0.22437  1.0000
  H   H1420     1.0  0.58541  0.51353  0.21635  1.0000
  S   S348      1.0  0.67446  0.48431  0.30173  1.0000
  C   C893      1.0  0.59402  0.64410  0.10629  1.0000
  C   C894      1.0  0.57782  0.63998  0.12183  1.0000
  H   H1421     1.0  0.72290  0.47056  0.23960  1.0000
  H   H1422     1.0  0.59987  0.63313  0.10241  1.0000
  H   H1423     1.0  0.53173  0.62742  0.12084  1.0000
  C   C895      1.0  0.71327  0.56866  0.09928  1.0000
  C   C896      1.0  0.70291  0.56507  0.08288  1.0000
  C   C897      1.0  0.68626  0.55124  0.08776  1.0000
  C   C898      1.0  0.67980  0.54085  0.10901  1.0000
  C   C899      1.0  0.68993  0.54482  0.12551  1.0000
  C   C900      1.0  0.70657  0.55864  0.12065  1.0000
  H   H1424     1.0  0.68187  0.60483  0.11436  1.0000
  H   H1425     1.0  0.67830  0.54846  0.07503  1.0000
  H   H1426     1.0  0.68515  0.53696  0.14194  1.0000
  H   H1427     1.0  0.71440  0.56139  0.13351  1.0000
  H   H1428     1.0  0.51702  0.60222  0.29412  1.0000
  H   H1429     1.0  0.60559  0.52749  0.25330  1.0000
  C   C901      1.0  0.69484  0.64010  0.09369  1.0000
  H   H1430     1.0  0.54159  0.53107  0.13407  1.0000
  H   H1431     1.0  0.55794  0.65141  0.13844  1.0000
  C   C902      1.0  0.73580  0.55630  0.03935  1.0000
  C   C903      1.0  0.49637  0.61699  0.29630  1.0000
  H   H1432     1.0  0.50157  0.60433  0.12496  1.0000
  C   C904      1.0  0.48854  0.43188  0.15372  1.0000
  C   C905      1.0  0.50953  0.60864  0.26252  1.0000
  C   C906      1.0  0.50837  0.60858  0.28521  1.0000
  C   C907      1.0  0.70940  0.46520  0.28251  1.0000
  H   H1433     1.0  0.51904  0.60238  0.25407  1.0000
  H   H1434     1.0  0.54231  0.49173  0.17645  1.0000
  H   H1435     1.0  0.57824  0.50881  0.14559  1.0000
  N   N88       1.0  0.62196  0.50981  0.26381  1.0000
  H   H1436     1.0  0.68000  0.63449  0.09391  1.0000
  C   C908      1.0  0.60484  0.51263  0.25753  1.0000
  H   H1437     1.0  0.70768  0.57290  0.06647  1.0000
  S   S349      1.0  0.65967  0.52246  0.11375  1.0000
  H   H1438     1.0  0.69839  0.46010  0.29715  1.0000
  C   C909      1.0  0.62054  0.48994  0.26823  1.0000
  H   H1439     1.0  0.66752  0.49776  0.22490  1.0000
  C   C910      1.0  0.53842  0.52126  0.14985  1.0000
  C   C911      1.0  0.69656  0.61143  0.11400  1.0000
  H   H1440     1.0  0.52939  0.50812  0.14755  1.0000
  H   H1441     1.0  0.54116  0.35123  0.24503  1.0000
  H   H1442     1.0  0.70973  0.60590  0.07434  1.0000
  C   C912      1.0  0.70617  0.53474  0.04445  1.0000
  S   S350      1.0  0.50079  0.61904  0.22193  1.0000
  N   N89       1.0  0.52354  0.61033  0.09738  1.0000
  H   H1443     1.0  0.54644  0.59902  0.10001  1.0000
  S   S351      1.0  0.61555  0.51482  0.15560  1.0000
  C   C913      1.0  0.72577  0.54296  0.00890  1.0000
  H   H1444     1.0  0.54206  0.51053  0.19088  1.0000
  H   H1445     1.0  0.53043  0.52692  0.16217  1.0000
  H   H1446     1.0  0.69626  0.64715  0.10805  1.0000
  N   N90       1.0  0.70451  0.62553  0.09408  1.0000
  H   H1447     1.0  0.72247  0.46969  0.28853  1.0000
  C   C914      1.0  0.72407  0.63356  0.09417  1.0000
  C   C915      1.0  0.63734  0.51905  0.24568  1.0000
  H   H1448     1.0  0.67901  0.50530  0.25876  1.0000
  H   H1449     1.0  0.55736  0.49724  0.13836  1.0000
  H   H1450     1.0  0.57140  0.54617  0.14422  1.0000
  H   H1451     1.0  0.52718  0.63934  0.09630  1.0000
  C   C916      1.0  0.56678  0.53628  0.15996  1.0000
  H   H1452     1.0  0.69214  0.43500  0.25061  1.0000
  N   N91       1.0  0.55525  0.51850  0.15711  1.0000
  C   C917      1.0  0.70264  0.61699  0.07442  1.0000
  H   H1453     1.0  0.56928  0.52016  0.12431  1.0000
  H   H1454     1.0  0.63279  0.48726  0.27419  1.0000
  H   H1455     1.0  0.69773  0.52228  0.03978  1.0000
  H   H1456     1.0  0.49021  0.33333  0.24755  1.0000
  C   C918      1.0  0.55034  0.50554  0.17819  1.0000
  H   H1457     1.0  0.63573  0.51311  0.23055  1.0000
  H   H1458     1.0  0.68073  0.43992  0.27515  1.0000
  H   H1459     1.0  0.68807  0.61077  0.07375  1.0000
  H   H1460     1.0  0.71365  0.42371  0.27221  1.0000
  N   N92       1.0  0.72528  0.53957  0.03286  1.0000
  H   H1461     1.0  0.72018  0.55476  0.00382  1.0000
  H   H1462     1.0  0.72584  0.51143  0.03414  1.0000
  H   H1463     1.0  0.70031  0.65077  0.07866  1.0000
  H   H1464     1.0  0.70866  0.62722  0.05905  1.0000
  H   H1465     1.0  0.49249  0.53259  0.17490  1.0000
  S   S352      1.0  0.73446  0.58571  0.09407  1.0000
  H   H1466     1.0  0.73028  0.56819  0.03471  1.0000
  C   C919      1.0  0.49980  0.32753  0.25533  1.0000
  C   C920      1.0  0.73345  0.52432  0.03875  1.0000
  H   H1467     1.0  0.49762  0.44541  0.15472  1.0000
  H   H1468     1.0  0.49185  0.42917  0.13680  1.0000
  H   H1469     1.0  0.73335  0.52151  0.05674  1.0000
  H   H1470     1.0  0.49118  0.33394  0.28694  1.0000
  C   C921      1.0  0.50040  0.32788  0.27764  1.0000
  H   H1471     1.0  0.51252  0.65834  0.27478  1.0000
  C   C922      1.0  0.48651  0.62532  0.26193  1.0000
  S   S353      1.0  0.54833  0.33284  0.35265  1.0000
  H   H1472     1.0  0.70708  0.41736  0.43628  1.0000
  C   C923      1.0  0.70933  0.42941  0.42305  1.0000
  S   S354      1.0  0.67369  0.42403  0.37854  1.0000
  Fe  Fe179     1.0  0.65087  0.42706  0.36067  1.0000
  S   S355      1.0  0.62235  0.40857  0.36943  1.0000
  Fe  Fe180     1.0  0.69127  0.43240  0.34516  1.0000
  H   H1473     1.0  0.57987  0.36014  0.34561  1.0000
  S   S356      1.0  0.65433  0.45682  0.36311  1.0000
  H   H1474     1.0  0.67028  0.47744  0.50760  1.0000
  C   C924      1.0  0.59710  0.36031  0.42907  1.0000
  Fe  Fe181     1.0  0.65262  0.40848  0.57884  1.0000
  S   S357      1.0  0.63385  0.38170  0.59768  1.0000
  Fe  Fe182     1.0  0.69109  0.43200  0.56065  1.0000
  S   S358      1.0  0.67289  0.42758  0.59356  1.0000
  S   S359      1.0  0.67139  0.41126  0.54711  1.0000
  C   C925      1.0  0.49880  0.64126  0.63535  1.0000
  C   C926      1.0  0.57021  0.35278  0.60309  1.0000
  H   H1475     1.0  0.71783  0.40091  0.40814  1.0000
  H   H1476     1.0  0.62878  0.46561  0.52080  1.0000
  C   C927      1.0  0.60959  0.34347  0.55288  1.0000
  H   H1477     1.0  0.52955  0.32723  0.46018  1.0000
  C   C928      1.0  0.61436  0.34901  0.58923  1.0000
  C   C929      1.0  0.62505  0.36686  0.58030  1.0000
  C   C930      1.0  0.62811  0.37289  0.55764  1.0000
  C   C931      1.0  0.62057  0.36116  0.54396  1.0000
  H   H1478     1.0  0.71463  0.44546  0.38033  1.0000
  H   H1479     1.0  0.61208  0.34424  0.60674  1.0000
  H   H1480     1.0  0.63606  0.38670  0.55061  1.0000
  H   H1481     1.0  0.62294  0.36599  0.52644  1.0000
  C   C932      1.0  0.60707  0.35695  0.33967  1.0000
  S   S360      1.0  0.68186  0.45600  0.54557  1.0000
  H   H1482     1.0  0.63705  0.43318  0.46316  1.0000
  C   C933      1.0  0.57626  0.36647  0.56474  1.0000
  H   H1483     1.0  0.65329  0.44402  0.42466  1.0000
  H   H1484     1.0  0.63089  0.49629  0.49992  1.0000
  H   H1485     1.0  0.62806  0.47450  0.54619  1.0000
  C   C934      1.0  0.65473  0.47642  0.61771  1.0000
  C   C935      1.0  0.63065  0.38177  0.34760  1.0000
  C   C936      1.0  0.61727  0.39011  0.35538  1.0000
  C   C937      1.0  0.59903  0.38241  0.35413  1.0000
  C   C938      1.0  0.59396  0.36591  0.34634  1.0000
  C   C939      1.0  0.72036  0.41348  0.39559  1.0000
  C   C940      1.0  0.52461  0.62826  0.63279  1.0000
  H   H1486     1.0  0.58870  0.38905  0.35966  1.0000
  C   C941      1.0  0.67131  0.47554  0.64807  1.0000
  Fe  Fe183     1.0  0.67276  0.46184  0.33039  1.0000
  H   H1487     1.0  0.70189  0.46893  0.44785  1.0000
  S   S361      1.0  0.64790  0.43766  0.50441  1.0000
  C   C942      1.0  0.54525  0.35285  0.58347  1.0000
  H   H1488     1.0  0.67190  0.49966  0.49234  1.0000
  H   H1489     1.0  0.59037  0.37391  0.56602  1.0000
  S   S362      1.0  0.69035  0.46583  0.40646  1.0000
  H   H1490     1.0  0.55766  0.38943  0.57929  1.0000
  S   S363      1.0  0.65130  0.47201  0.59139  1.0000
  C   C943      1.0  0.72687  0.44652  0.38824  1.0000
  C   C944      1.0  0.62553  0.36518  0.33975  1.0000
  S   S364      1.0  0.71936  0.42753  0.55591  1.0000
  H   H1491     1.0  0.73003  0.45775  0.32459  1.0000
  H   H1492     1.0  0.58394  0.36040  0.60546  1.0000
  H   H1493     1.0  0.56084  0.34994  0.61916  1.0000
  H   H1494     1.0  0.53529  0.35006  0.59908  1.0000
  H   H1495     1.0  0.65431  0.47994  0.48998  1.0000
  C   C945      1.0  0.68781  0.46089  0.45118  1.0000
  H   H1496     1.0  0.59655  0.33715  0.38632  1.0000
  C   C946      1.0  0.56268  0.38113  0.59191  1.0000
  H   H1497     1.0  0.55330  0.37920  0.60783  1.0000
  C   C947      1.0  0.66839  0.47111  0.62752  1.0000
  H   H1498     1.0  0.60415  0.37416  0.41917  1.0000
  N   N93       1.0  0.58851  0.34769  0.41526  1.0000
  H   H1499     1.0  0.57134  0.33936  0.59887  1.0000
  S   S365      1.0  0.66787  0.43222  0.32712  1.0000
  C   C948      1.0  0.66081  0.49884  0.53548  1.0000
  H   H1500     1.0  0.53977  0.36033  0.57057  1.0000
  C   C949      1.0  0.65130  0.44075  0.45987  1.0000
  H   H1501     1.0  0.63578  0.35839  0.33445  1.0000
  S   S366      1.0  0.71359  0.41858  0.33696  1.0000
  C   C950      1.0  0.57948  0.32949  0.42885  1.0000
  C   C951      1.0  0.66042  0.44437  0.47741  1.0000
  C   C952      1.0  0.66046  0.44689  0.43805  1.0000
  Fe  Fe184     1.0  0.66200  0.44993  0.57752  1.0000
  H   H1502     1.0  0.56890  0.33040  0.44240  1.0000
  C   C953      1.0  0.51169  0.63495  0.62269  1.0000
  H   H1503     1.0  0.58084  0.36941  0.39633  1.0000
  N   N94       1.0  0.72453  0.43028  0.40529  1.0000
  H   H1504     1.0  0.56317  0.35537  0.41803  1.0000
  C   C954      1.0  0.60650  0.33737  0.57555  1.0000
  H   H1505     1.0  0.72895  0.45938  0.39521  1.0000
  H   H1506     1.0  0.62983  0.50528  0.52504  1.0000
  H   H1507     1.0  0.54554  0.33935  0.57882  1.0000
  C   C955      1.0  0.63728  0.47264  0.53179  1.0000
  C   C956      1.0  0.63928  0.50249  0.51153  1.0000
  C   C957      1.0  0.67867  0.45721  0.43364  1.0000
  H   H1508     1.0  0.61285  0.33968  0.40454  1.0000
  C   C958      1.0  0.60263  0.34587  0.39774  1.0000
  N   N95       1.0  0.56359  0.36331  0.58580  1.0000
  H   H1509     1.0  0.57695  0.35329  0.55939  1.0000
  H   H1510     1.0  0.67704  0.46405  0.61899  1.0000
  Fe  Fe185     1.0  0.67866  0.45418  0.37843  1.0000
  C   C959      1.0  0.57480  0.35514  0.40536  1.0000
  S   S367      1.0  0.69757  0.46241  0.34589  1.0000
  C   C960      1.0  0.67881  0.45424  0.47302  1.0000
  H   H1511     1.0  0.68596  0.45709  0.48642  1.0000
  H   H1512     1.0  0.67054  0.51215  0.52733  1.0000
  S   S368      1.0  0.64024  0.43026  0.56575  1.0000
  Fe  Fe186     1.0  0.66065  0.43479  0.53485  1.0000
  H   H1513     1.0  0.65195  0.50134  0.54978  1.0000
  C   C961      1.0  0.66216  0.48676  0.50168  1.0000
  H   H1514     1.0  0.66888  0.48985  0.54237  1.0000
  C   C962      1.0  0.64370  0.48574  0.62889  1.0000
  H   H1515     1.0  0.64478  0.38765  0.34854  1.0000
  H   H1516     1.0  0.57638  0.38934  0.59367  1.0000
  H   H1517     1.0  0.64499  0.46311  0.53803  1.0000
  H   H1518     1.0  0.57195  0.37471  0.55138  1.0000
  N   N96       1.0  0.64989  0.49022  0.52011  1.0000
  S   S369      1.0  0.51300  0.63624  0.59400  1.0000
  H   H1519     1.0  0.63315  0.48995  0.62137  1.0000
  H   H1520     1.0  0.73181  0.41336  0.38270  1.0000
  H   H1521     1.0  0.64839  0.51590  0.50259  1.0000
  H   H1522     1.0  0.71194  0.44194  0.43062  1.0000
  H   H1523     1.0  0.53468  0.62343  0.62310  1.0000
  S   S370      1.0  0.50179  0.65682  0.53953  1.0000
  H   H1524     1.0  0.56893  0.34672  0.39358  1.0000
  S   S371      1.0  0.60050  0.33501  0.33266  1.0000
  H   H1525     1.0  0.69630  0.42843  0.41674  1.0000
  H   H1526     1.0  0.73074  0.46572  0.56178  1.0000
  H   H1527     1.0  0.61020  0.35946  0.38779  1.0000
  H   H1528     1.0  0.70807  0.41237  0.38772  1.0000
  Fe  Fe187     1.0  0.49145  0.64175  0.57435  1.0000
  H   H1529     1.0  0.58677  0.36213  0.44233  1.0000
  S   S372      1.0  0.49588  0.61728  0.32462  1.0000
  H   H1530     1.0  0.48877  0.64644  0.62778  1.0000
  H   H1531     1.0  0.60745  0.35510  0.43694  1.0000
  S   S373      1.0  0.59916  0.32978  0.53536  1.0000
  C   C963      1.0  0.73595  0.43219  0.33540  1.0000
  C   C964      1.0  0.48725  0.65240  0.47347  1.0000
  C   C965      1.0  0.63789  0.44138  0.69518  1.0000
  S   S374      1.0  0.51771  0.34399  0.74716  1.0000
  C   C966      1.0  0.72660  0.59594  0.93049  1.0000
  H   H1532     1.0  0.63984  0.43274  0.71002  1.0000
  Fe  Fe188     1.0  0.50958  0.37000  0.73782  1.0000
  S   S375      1.0  0.52302  0.40012  0.73810  1.0000
  H   H1533     1.0  0.62976  0.45023  0.78253  1.0000
  H   H1534     1.0  0.49897  0.50233  0.70386  1.0000
  Fe  Fe189     1.0  0.61340  0.46830  0.74594  1.0000
  H   H1535     1.0  0.54845  0.52701  0.68817  1.0000
  S   S376      1.0  0.60116  0.43782  0.75860  1.0000
  H   H1536     1.0  0.69275  0.64330  0.87489  1.0000
  H   H1537     1.0  0.48910  0.39491  0.76868  1.0000
  C   C967      1.0  0.54510  0.41000  0.74325  1.0000
  C   C968      1.0  0.55584  0.39944  0.75207  1.0000
  C   C969      1.0  0.57296  0.40808  0.75681  1.0000
  C   C970      1.0  0.57958  0.42730  0.75252  1.0000
  C   C971      1.0  0.56898  0.43783  0.74337  1.0000
  C   C972      1.0  0.55179  0.42921  0.73893  1.0000
  H   H1538     1.0  0.55082  0.38464  0.75554  1.0000
  H   H1539     1.0  0.58108  0.39981  0.76384  1.0000
  H   H1540     1.0  0.57389  0.45263  0.73994  1.0000
  H   H1541     1.0  0.54361  0.43750  0.73208  1.0000
  H   H1542     1.0  0.59343  0.41952  0.69625  1.0000
  H   H1543     1.0  0.62760  0.40543  0.69342  1.0000
  H   H1544     1.0  0.53192  0.50554  0.68932  1.0000
  H   H1545     1.0  0.69886  0.63412  0.92291  1.0000
  H   H1546     1.0  0.63032  0.48030  0.79276  1.0000
  C   C973      1.0  0.60549  0.42692  0.70254  1.0000
  H   H1547     1.0  0.63584  0.45431  0.70007  1.0000
  H   H1548     1.0  0.60236  0.43935  0.70777  1.0000
  H   H1549     1.0  0.48921  0.64621  0.66752  1.0000
  H   H1550     1.0  0.61441  0.40739  0.67203  1.0000
  S   S377      1.0  0.64329  0.48107  0.74447  1.0000
  H   H1551     1.0  0.70356  0.62689  0.88630  1.0000
  C   C974      1.0  0.60058  0.45258  0.81039  1.0000
  H   H1552     1.0  0.52820  0.54097  0.72363  1.0000
  H   H1553     1.0  0.61178  0.45383  0.84912  1.0000
  H   H1554     1.0  0.51984  0.64015  0.77340  1.0000
  C   C975      1.0  0.53505  0.51791  0.69713  1.0000
  S   S378      1.0  0.61307  0.47992  0.71132  1.0000
  Fe  Fe190     1.0  0.50810  0.33634  0.71621  1.0000
  N   N97       1.0  0.62233  0.43179  0.68587  1.0000
  S   S379      1.0  0.50162  0.36312  0.70600  1.0000
  C   C976      1.0  0.62013  0.44395  0.66649  1.0000
  H   H1555     1.0  0.64380  0.47603  0.81304  1.0000
  H   H1556     1.0  0.50224  0.43064  0.73606  1.0000
  H   H1557     1.0  0.62286  0.48212  0.82052  1.0000
  H   H1558     1.0  0.65087  0.44521  0.68309  1.0000
  H   H1559     1.0  0.58295  0.65282  0.75762  1.0000
  S   S380      1.0  0.66460  0.49028  0.68493  1.0000
  C   C977      1.0  0.49908  0.64112  0.65786  1.0000
  C   C978      1.0  0.52566  0.54424  0.70663  1.0000
  S   S381      1.0  0.71330  0.59885  0.91013  1.0000
  C   C979      1.0  0.61871  0.44660  0.83775  1.0000
  C   C980      1.0  0.66027  0.48480  0.65928  1.0000
  C   C981      1.0  0.56908  0.64730  0.79113  1.0000
  H   H1560     1.0  0.61113  0.43180  0.84163  1.0000
  H   H1561     1.0  0.59268  0.43793  0.81288  1.0000
  Fe  Fe191     1.0  0.64244  0.49414  0.71022  1.0000
  H   H1562     1.0  0.73053  0.63768  0.90451  1.0000
  H   H1563     1.0  0.50244  0.41626  0.77317  1.0000
  S   S382      1.0  0.63700  0.51990  0.72065  1.0000
  S   S383      1.0  0.64307  0.52031  0.78388  1.0000
  H   H1564     1.0  0.50458  0.51170  0.72770  1.0000
  S   S384      1.0  0.58241  0.51320  0.71965  1.0000
  Fe  Fe192     1.0  0.55950  0.60187  0.71876  1.0000
  S   S385      1.0  0.54956  0.58962  0.75428  1.0000
  S   S386      1.0  0.58554  0.59738  0.70194  1.0000
  Fe  Fe193     1.0  0.52764  0.61827  0.71545  1.0000
  S   S387      1.0  0.51538  0.60720  0.75111  1.0000
  S   S388      1.0  0.51237  0.63505  0.69611  1.0000
  Fe  Fe194     1.0  0.54417  0.61682  0.75761  1.0000
  S   S389      1.0  0.54985  0.63002  0.78770  1.0000
  Fe  Fe195     1.0  0.52196  0.58109  0.74443  1.0000
  S   S390      1.0  0.50537  0.55137  0.75696  1.0000
  S   S391      1.0  0.55585  0.62975  0.72243  1.0000
  S   S392      1.0  0.53248  0.59159  0.70849  1.0000
  C   C982      1.0  0.58402  0.53673  0.71475  1.0000
  C   C983      1.0  0.59968  0.54950  0.70251  1.0000
  C   C984      1.0  0.60009  0.56819  0.69824  1.0000
  C   C985      1.0  0.58489  0.57404  0.70632  1.0000
  C   C986      1.0  0.56940  0.56122  0.71878  1.0000
  C   C987      1.0  0.56898  0.54265  0.72299  1.0000
  H   H1565     1.0  0.61129  0.54495  0.69596  1.0000
  H   H1566     1.0  0.61213  0.57810  0.68863  1.0000
  H   H1567     1.0  0.55773  0.56564  0.72526  1.0000
  H   H1568     1.0  0.55704  0.53287  0.73295  1.0000
  C   C988      1.0  0.62585  0.41495  0.67921  1.0000
  H   H1569     1.0  0.51468  0.55148  0.70760  1.0000
  H   H1570     1.0  0.71588  0.64413  0.86340  1.0000
  C   C989      1.0  0.70596  0.64154  0.87897  1.0000
  H   H1571     1.0  0.71472  0.61223  0.95075  1.0000
  C   C990      1.0  0.67976  0.55308  0.81304  1.0000
  C   C991      1.0  0.66356  0.54269  0.80763  1.0000
  C   C992      1.0  0.66403  0.53364  0.78946  1.0000
  C   C993      1.0  0.68098  0.53516  0.77671  1.0000
  H   H1572     1.0  0.67912  0.55982  0.82715  1.0000
  H   H1573     1.0  0.65059  0.54156  0.81777  1.0000
  H   H1574     1.0  0.68167  0.52830  0.76271  1.0000
  Fe  Fe196     1.0  0.72605  0.59964  0.87510  1.0000
  H   H1575     1.0  0.60674  0.41798  0.71758  1.0000
  H   H1576     1.0  0.63268  0.44775  0.84149  1.0000
  H   H1577     1.0  0.50710  0.54014  0.67374  1.0000
  C   C994      1.0  0.62952  0.47402  0.81011  1.0000
  C   C995      1.0  0.58323  0.65653  0.77368  1.0000
  C   C996      1.0  0.51198  0.63434  0.66798  1.0000
  Fe  Fe197     1.0  0.72558  0.58657  0.83068  1.0000
  N   N98       1.0  0.61938  0.45441  0.81460  1.0000
  H   H1578     1.0  0.53472  0.62262  0.66291  1.0000
  H   H1579     1.0  0.53065  0.54177  0.66393  1.0000
  Fe  Fe198     1.0  0.63588  0.50575  0.75511  1.0000
  H   H1580     1.0  0.49187  0.52205  0.71024  1.0000
  H   H1581     1.0  0.63252  0.44768  0.65348  1.0000
  C   C997      1.0  0.51785  0.53263  0.67431  1.0000
  C   C998      1.0  0.50323  0.51531  0.71025  1.0000
  H   H1582     1.0  0.51367  0.52033  0.66660  1.0000
  H   H1583     1.0  0.63782  0.49699  0.65815  1.0000
  S   S393      1.0  0.60584  0.49147  0.75988  1.0000
  S   S394      1.0  0.71784  0.56644  0.80711  1.0000
  H   H1584     1.0  0.63848  0.41818  0.66658  1.0000
  H   H1585     1.0  0.71021  0.54619  0.77243  1.0000
  N   N99       1.0  0.61389  0.55803  0.76565  1.0000
  C   C999      1.0  0.60181  0.53916  0.77008  1.0000
  C   C1000     1.0  0.62140  0.56202  0.78551  1.0000
  C   C1001     1.0  0.60334  0.57118  0.75953  1.0000
  C   C1002     1.0  0.62905  0.55972  0.74746  1.0000
  H   H1586     1.0  0.58998  0.53745  0.78337  1.0000
  H   H1587     1.0  0.60927  0.52892  0.77513  1.0000
  H   H1588     1.0  0.59624  0.53552  0.75527  1.0000
  H   H1589     1.0  0.62950  0.55236  0.79050  1.0000
  H   H1590     1.0  0.63060  0.57615  0.78273  1.0000
  H   H1591     1.0  0.61203  0.58557  0.75560  1.0000
  H   H1592     1.0  0.59184  0.57042  0.77290  1.0000
  H   H1593     1.0  0.59731  0.56836  0.74482  1.0000
  H   H1594     1.0  0.63836  0.57382  0.74347  1.0000
  H   H1595     1.0  0.62388  0.55659  0.73226  1.0000
  H   H1596     1.0  0.63738  0.55007  0.75164  1.0000
  C   C1003     1.0  0.72432  0.60399  0.94920  1.0000
  Fe  Fe199     1.0  0.60749  0.50412  0.72495  1.0000
  C   C1004     1.0  0.69675  0.55439  0.80049  1.0000
  H   H1597     1.0  0.55893  0.64536  0.82551  1.0000
  H   H1598     1.0  0.62109  0.42971  0.80245  1.0000
  H   H1599     1.0  0.61034  0.56077  0.79962  1.0000
  C   C1005     1.0  0.69720  0.54535  0.78230  1.0000
  C   C1006     1.0  0.62870  0.44444  0.80011  1.0000
  N   N100      1.0  0.52045  0.52750  0.69707  1.0000
  S   S395      1.0  0.71135  0.60524  0.84702  1.0000
  C   C1007     1.0  0.56978  0.65237  0.81188  1.0000
  C   C1008     1.0  0.52465  0.62777  0.65537  1.0000
  H   H1600     1.0  0.64281  0.44520  0.80308  1.0000
  H   H1601     1.0  0.53695  0.51331  0.71413  1.0000
  H   H1602     1.0  0.59299  0.45968  0.82123  1.0000
  H   H1603     1.0  0.68224  0.47183  0.65528  1.0000
  Fe  Fe200     1.0  0.48829  0.33113  0.76338  1.0000
  H   H1604     1.0  0.53830  0.55407  0.69679  1.0000
  H   H1605     1.0  0.60059  0.45861  0.79317  1.0000
  H   H1606     1.0  0.69906  0.65224  0.83415  1.0000
  H   H1607     1.0  0.52389  0.64859  0.73359  1.0000
  N   N101      1.0  0.71286  0.65381  0.89401  1.0000
  C   C1009     1.0  0.48815  0.40796  0.77416  1.0000
  H   H1608     1.0  0.60838  0.43730  0.65915  1.0000
  H   H1609     1.0  0.48865  0.40975  0.73059  1.0000
  C   C1010     1.0  0.64630  0.48970  0.64975  1.0000
  H   H1610     1.0  0.61780  0.45698  0.67081  1.0000
  C   C1011     1.0  0.51761  0.65376  0.77527  1.0000
  H   H1611     1.0  0.49057  0.44407  0.76774  1.0000
  C   C1012     1.0  0.48791  0.42235  0.73740  1.0000
  H   H1612     1.0  0.50260  0.65197  0.77816  1.0000
  H   H1613     1.0  0.70487  0.65751  0.92707  1.0000
  C   C1013     1.0  0.73108  0.65205  0.89745  1.0000
  H   H1614     1.0  0.73256  0.60766  0.98033  1.0000
  C   C1014     1.0  0.73434  0.60135  0.96601  1.0000
  C   C1015     1.0  0.70014  0.64857  0.91525  1.0000
  H   H1615     1.0  0.68622  0.64962  0.91320  1.0000
  H   H1616     1.0  0.52283  0.65728  0.79033  1.0000
  H   H1617     1.0  0.55058  0.65747  0.75107  1.0000
  H   H1618     1.0  0.52510  0.69828  0.25348  1.0000
  Fe  Fe201     1.0  0.63325  0.71287  0.06484  1.0000
  S   S396      1.0  0.65485  0.72805  0.08153  1.0000
  S   S397      1.0  0.60517  0.69973  0.08659  1.0000
  Fe  Fe202     1.0  0.67468  0.71899  0.05825  1.0000
  S   S398      1.0  0.69817  0.70853  0.06907  1.0000
  H   H1619     1.0  0.54573  0.99061  0.20578  1.0000
  S   S399      1.0  0.65296  0.70219  0.04319  1.0000
  H   H1620     1.0  0.58527  0.74493  0.12627  1.0000
  N   N102      1.0  0.72641  0.73347  0.99996  1.0000
  C   C1016     1.0  0.59525  0.67662  0.10024  1.0000
  C   C1017     1.0  0.57900  0.67249  0.11573  1.0000
  H   H1621     1.0  0.50973  0.68040  0.24410  1.0000
  H   H1622     1.0  0.57299  0.68342  0.11934  1.0000
  C   C1018     1.0  0.70081  0.68357  0.04107  1.0000
  C   C1019     1.0  0.70782  0.69226  0.05753  1.0000
  C   C1020     1.0  0.73275  0.97860  0.07196  1.0000
  H   H1623     1.0  0.51774  0.98262  0.18900  1.0000
  C   C1021     1.0  0.59896  0.75346  0.12753  1.0000
  C   C1022     1.0  0.51048  0.69078  0.25509  1.0000
  C   C1023     1.0  0.50998  0.87395  0.30645  1.0000
  C   C1024     1.0  0.50323  0.85506  0.31476  1.0000
  H   H1624     1.0  0.71748  0.75818  0.99752  1.0000
  Fe  Fe203     1.0  0.65725  0.72859  0.01955  1.0000
  C   C1025     1.0  0.71030  0.67274  0.03020  1.0000
  H   H1625     1.0  0.52705  0.67571  0.28574  1.0000
  H   H1626     1.0  0.59964  0.75294  0.14526  1.0000
  S   S400      1.0  0.63564  0.73789  0.03945  1.0000
  H   H1627     1.0  0.58948  0.97954  0.15631  1.0000
  H   H1628     1.0  0.68836  0.68566  0.03622  1.0000
  H   H1629     1.0  0.63503  0.88560  0.00726  1.0000
  H   H1630     1.0  0.73210  0.72271  0.03104  1.0000
  H   H1631     1.0  0.59591  0.95680  0.18523  1.0000
  H   H1632     1.0  0.49748  0.69021  0.30941  1.0000
  H   H1633     1.0  0.61292  0.72635  0.14384  1.0000
  C   C1026     1.0  0.51255  0.66878  0.28560  1.0000
  H   H1634     1.0  0.63328  0.75815  0.13559  1.0000
  H   H1635     1.0  0.59995  0.76791  0.12030  1.0000
  H   H1636     1.0  0.59861  0.71844  0.12469  1.0000
  C   C1027     1.0  0.61190  0.72769  0.12616  1.0000
  C   C1028     1.0  0.50384  0.84261  0.30040  1.0000
  S   S401      1.0  0.71453  0.96389  0.03983  1.0000
  C   C1029     1.0  0.50378  0.69626  0.29206  1.0000
  Fe  Fe204     1.0  0.53664  0.90493  0.22406  1.0000
  S   S402      1.0  0.53199  0.91125  0.18917  1.0000
  S   S403      1.0  0.52680  0.87514  0.24123  1.0000
  Fe  Fe205     1.0  0.55140  0.94516  0.22648  1.0000
  S   S404      1.0  0.54789  0.95415  0.19226  1.0000
  S   S405      1.0  0.55704  0.96843  0.24529  1.0000
  Fe  Fe206     1.0  0.52070  0.93352  0.20081  1.0000
  Fe  Fe207     1.0  0.65800  0.75280  0.05543  1.0000
  Fe  Fe208     1.0  0.55980  0.93137  0.18351  1.0000
  S   S406      1.0  0.58070  0.94125  0.15175  1.0000
  S   S407      1.0  0.52347  0.92580  0.23575  1.0000
  S   S408      1.0  0.56534  0.92371  0.21760  1.0000
  Fe  Fe209     1.0  0.65917  0.90987  0.08160  1.0000
  S   S409      1.0  0.68893  0.90970  0.07781  1.0000
  S   S410      1.0  0.63917  0.90143  0.11405  1.0000
  Fe  Fe210     1.0  0.66072  0.91764  0.03249  1.0000
  S   S411      1.0  0.69008  0.91783  0.02530  1.0000
  C   C1030     1.0  0.67403  0.86998  0.99588  1.0000
  Fe  Fe211     1.0  0.68231  0.89243  0.05167  1.0000
  S   S412      1.0  0.69201  0.86724  0.04366  1.0000
  Fe  Fe212     1.0  0.69409  0.93521  0.05171  1.0000
  S   S413      1.0  0.65260  0.89149  0.05686  1.0000
  S   S414      1.0  0.66472  0.93601  0.05749  1.0000
  S   S415      1.0  0.65454  0.77993  0.06579  1.0000
  C   C1031     1.0  0.68107  0.84304  0.04961  1.0000
  C   C1032     1.0  0.66417  0.83553  0.06354  1.0000
  C   C1033     1.0  0.65632  0.81631  0.06810  1.0000
  C   C1034     1.0  0.66505  0.80421  0.05866  1.0000
  C   C1035     1.0  0.68181  0.81175  0.04441  1.0000
  C   C1036     1.0  0.68975  0.83096  0.04004  1.0000
  H   H1637     1.0  0.65727  0.84450  0.07112  1.0000
  H   H1638     1.0  0.64340  0.81079  0.07917  1.0000
  H   H1639     1.0  0.68881  0.80276  0.03705  1.0000
  H   H1640     1.0  0.70285  0.83649  0.02932  1.0000
  H   H1641     1.0  0.62681  0.91648  0.07417  1.0000
  H   H1642     1.0  0.51970  0.96499  0.22459  1.0000
  H   H1643     1.0  0.62892  0.70819  0.98772  1.0000
  C   C1037     1.0  0.59731  0.93024  0.14215  1.0000
  C   C1038     1.0  0.61076  0.93934  0.12376  1.0000
  C   C1039     1.0  0.62401  0.93095  0.11530  1.0000
  C   C1040     1.0  0.62371  0.91320  0.12494  1.0000
  C   C1041     1.0  0.61036  0.90420  0.14345  1.0000
  C   C1042     1.0  0.59724  0.91268  0.15208  1.0000
  H   H1644     1.0  0.61098  0.95299  0.11605  1.0000
  H   H1645     1.0  0.63449  0.93821  0.10140  1.0000
  H   H1646     1.0  0.61009  0.89052  0.15110  1.0000
  H   H1647     1.0  0.58699  0.90553  0.16627  1.0000
  H   H1648     1.0  0.60975  0.96510  0.20442  1.0000
  C   C1043     1.0  0.60446  0.89276  0.05581  1.0000
  C   C1044     1.0  0.59329  0.97068  0.24673  1.0000
  H   H1649     1.0  0.62314  0.74305  0.08373  1.0000
  C   C1045     1.0  0.72688  0.98194  0.05193  1.0000
  H   H1650     1.0  0.73091  0.97698  0.99194  1.0000
  H   H1651     1.0  0.62274  0.72228  0.11785  1.0000
  H   H1652     1.0  0.58997  0.95607  0.24678  1.0000
  H   H1653     1.0  0.66115  0.86647  0.98932  1.0000
  H   H1654     1.0  0.62552  0.92738  0.04731  1.0000
  N   N103      1.0  0.50248  0.68203  0.27807  1.0000
  C   C1046     1.0  0.63160  0.75857  0.11817  1.0000
  C   C1047     1.0  0.51118  0.84901  0.27798  1.0000
  C   C1048     1.0  0.51804  0.86787  0.26968  1.0000
  C   C1049     1.0  0.51741  0.88034  0.28402  1.0000
  C   C1050     1.0  0.63821  0.89230  0.99027  1.0000
  H   H1655     1.0  0.70716  0.70803  0.99886  1.0000
  H   H1656     1.0  0.51169  0.83925  0.26705  1.0000
  H   H1657     1.0  0.52277  0.89490  0.27789  1.0000
  N   N104      1.0  0.61367  0.74689  0.11617  1.0000
  C   C1051     1.0  0.59100  0.90220  0.08807  1.0000
  H   H1658     1.0  0.71335  0.98868  0.99205  1.0000
  H   H1659     1.0  0.59900  0.73902  0.09049  1.0000
  H   H1660     1.0  0.50314  0.70078  0.24885  1.0000
  C   C1052     1.0  0.58902  0.91675  0.05192  1.0000
  H   H1661     1.0  0.57773  0.89188  0.08931  1.0000
  C   C1053     1.0  0.57960  0.97989  0.24647  1.0000
  H   H1662     1.0  0.67606  0.85691  0.00407  1.0000
  C   C1054     1.0  0.51404  0.97488  0.23293  1.0000
  C   C1055     1.0  0.62402  0.98331  0.16275  1.0000
  C   C1056     1.0  0.61785  0.92232  0.06438  1.0000
  H   H1663     1.0  0.51931  0.97525  0.24863  1.0000
  C   C1057     1.0  0.72659  0.66997  0.03610  1.0000
  H   H1664     1.0  0.51820  0.70372  0.29183  1.0000
  H   H1665     1.0  0.49647  0.70656  0.28669  1.0000
  H   H1666     1.0  0.59170  0.88226  0.05535  1.0000
  C   C1058     1.0  0.61130  0.98041  0.24704  1.0000
  H   H1667     1.0  0.70097  0.71920  0.02106  1.0000
  H   H1668     1.0  0.62191  0.97331  0.24714  1.0000
  N   N105      1.0  0.60053  0.90849  0.06506  1.0000
  H   H1669     1.0  0.72042  0.74933  0.02450  1.0000
  H   H1670     1.0  0.63344  0.77316  0.11068  1.0000
  H   H1671     1.0  0.61238  0.89721  0.03875  1.0000
  H   H1672     1.0  0.61268  0.88591  0.06580  1.0000
  H   H1673     1.0  0.58825  0.91382  0.09576  1.0000
  S   S416      1.0  0.64543  0.92484  0.00574  1.0000
  H   H1674     1.0  0.59601  0.92169  0.03450  1.0000
  H   H1675     1.0  0.64303  0.75415  0.10950  1.0000
  H   H1676     1.0  0.61551  0.93445  0.07117  1.0000
  S   S417      1.0  0.49573  0.94383  0.19733  1.0000
  C   C1059     1.0  0.61223  0.74786  0.09274  1.0000
  H   H1677     1.0  0.58589  0.92873  0.05842  1.0000
  H   H1678     1.0  0.49878  0.82804  0.30658  1.0000
  H   H1679     1.0  0.59937  0.89576  0.09830  1.0000
  H   H1680     1.0  0.61370  0.76216  0.08452  1.0000
  C   C1060     1.0  0.72381  0.68903  0.06390  1.0000
  H   H1681     1.0  0.70884  0.86998  0.99546  1.0000
  H   H1682     1.0  0.57581  0.90670  0.05196  1.0000
  H   H1683     1.0  0.72915  0.96475  0.08108  1.0000
  C   C1061     1.0  0.72612  0.75123  0.00670  1.0000
  C   C1062     1.0  0.60016  0.96857  0.19374  1.0000
  H   H1684     1.0  0.58775  0.96951  0.20451  1.0000
  H   H1685     1.0  0.49894  0.96921  0.23684  1.0000
  H   H1686     1.0  0.49977  0.88558  0.22134  1.0000
  S   S418      1.0  0.67988  0.74511  0.03386  1.0000
  C   C1063     1.0  0.51212  0.99203  0.19832  1.0000
  H   H1687     1.0  0.67204  0.87830  0.00887  1.0000
  H   H1688     1.0  0.49011  0.91410  0.17216  1.0000
  C   C1064     1.0  0.73316  0.67795  0.05326  1.0000
  H   H1689     1.0  0.72939  0.69574  0.07656  1.0000
  H   H1690     1.0  0.70517  0.66677  0.01683  1.0000
  H   H1691     1.0  0.69890  0.72798  0.99378  1.0000
  C   C1065     1.0  0.64400  0.91143  0.98497  1.0000
  C   C1066     1.0  0.70756  0.72164  0.00356  1.0000
  H   H1692     1.0  0.70606  0.89162  0.00071  1.0000
  H   H1693     1.0  0.61926  0.97214  0.15342  1.0000
  C   C1067     1.0  0.70663  0.88310  0.98766  1.0000
  N   N106      1.0  0.60867  0.98582  0.17799  1.0000
  H   H1694     1.0  0.49696  0.98667  0.20157  1.0000
  C   C1068     1.0  0.59497  0.99058  0.16546  1.0000
  H   H1695     1.0  0.50639  0.66117  0.30250  1.0000
  H   H1696     1.0  0.49138  0.90485  0.21302  1.0000
  H   H1697     1.0  0.63449  0.97951  0.17176  1.0000
  C   C1069     1.0  0.60278  0.66230  0.09570  1.0000
  H   H1698     1.0  0.61521  0.66520  0.08379  1.0000
  H   H1699     1.0  0.49280  0.89164  0.25936  1.0000
  C   C1070     1.0  0.48726  0.88975  0.21852  1.0000
  S   S419      1.0  0.66586  0.73258  0.98265  1.0000
  H   H1700     1.0  0.68474  0.90605  0.98184  1.0000
  C   C1071     1.0  0.53078  0.70329  0.55781  1.0000
  C   C1072     1.0  0.54314  0.67814  0.56980  1.0000
  H   H1701     1.0  0.50031  0.82115  0.40541  1.0000
  C   C1073     1.0  0.48904  0.71189  0.46847  1.0000
  C   C1074     1.0  0.53540  0.83591  0.38781  1.0000
  H   H1702     1.0  0.54145  0.83946  0.42883  1.0000
  N   N107      1.0  0.53527  0.69269  0.57693  1.0000
  C   C1075     1.0  0.54862  0.70505  0.58677  1.0000
  H   H1703     1.0  0.50962  0.88368  0.31744  1.0000
  H   H1704     1.0  0.51058  0.82463  0.63249  1.0000
  C   C1076     1.0  0.51852  0.68425  0.59343  1.0000
  N   N108      1.0  0.48956  0.72394  0.44761  1.0000
  H   H1705     1.0  0.51202  0.69476  0.59905  1.0000
  H   H1706     1.0  0.48932  0.71948  0.48247  1.0000
  H   H1707     1.0  0.49493  0.76394  0.54440  1.0000
  S   S420      1.0  0.48750  0.66183  0.34713  1.0000
  C   C1077     1.0  0.48860  0.71297  0.57000  1.0000
  H   H1708     1.0  0.55024  0.84063  0.38816  1.0000
  H   H1709     1.0  0.54302  0.71609  0.59252  1.0000
  H   H1710     1.0  0.49231  0.67749  0.45047  1.0000
  C   C1078     1.0  0.48854  0.66275  0.45266  1.0000
  H   H1711     1.0  0.50243  0.84184  0.38662  1.0000
  H   H1712     1.0  0.53326  0.84091  0.37100  1.0000
  H   H1713     1.0  0.50830  0.67456  0.58669  1.0000
  C   C1079     1.0  0.49420  0.74511  0.57368  1.0000
  H   H1714     1.0  0.50088  0.70584  0.46765  1.0000
  H   H1715     1.0  0.51996  0.69461  0.55070  1.0000
  H   H1716     1.0  0.53162  0.82064  0.39031  1.0000
  H   H1717     1.0  0.52208  0.86812  0.41365  1.0000
  H   H1718     1.0  0.52567  0.71497  0.56238  1.0000
  H   H1719     1.0  0.52300  0.81959  0.42972  1.0000
  H   H1720     1.0  0.51842  0.83909  0.43995  1.0000
  H   H1721     1.0  0.52820  0.86881  0.38469  1.0000
  S   S421      1.0  0.50356  0.80083  0.36539  1.0000
  C   C1080     1.0  0.49313  0.74975  0.55160  1.0000
  C   C1081     1.0  0.53015  0.86274  0.40117  1.0000
  C   C1082     1.0  0.48934  0.79335  0.45163  1.0000
  Fe  Fe213     1.0  0.49084  0.78819  0.57904  1.0000
  C   C1083     1.0  0.49195  0.72671  0.58286  1.0000
  S   S422      1.0  0.49426  0.78266  0.42903  1.0000
  C   C1084     1.0  0.48893  0.71319  0.42962  1.0000
  H   H1722     1.0  0.49614  0.84089  0.41558  1.0000
  C   C1085     1.0  0.51487  0.85381  0.62399  1.0000
  C   C1086     1.0  0.50657  0.73900  0.44265  1.0000
  H   H1723     1.0  0.54290  0.70908  0.54454  1.0000
  S   S423      1.0  0.50710  0.85344  0.59859  1.0000
  S   S424      1.0  0.50839  0.81527  0.55933  1.0000
  H   H1724     1.0  0.56141  0.71178  0.57474  1.0000
  S   S425      1.0  0.49412  0.84749  0.34310  1.0000
  C   C1087     1.0  0.50495  0.83635  0.40301  1.0000
  N   N109      1.0  0.52440  0.84249  0.40470  1.0000
  C   C1088     1.0  0.52697  0.83488  0.42674  1.0000
  H   H1725     1.0  0.54482  0.86792  0.40219  1.0000
  C   C1089     1.0  0.52050  0.87070  0.63100  1.0000
  H   H1726     1.0  0.53356  0.66879  0.56189  1.0000
  S   S426      1.0  0.49907  0.76280  0.33021  1.0000
  H   H1727     1.0  0.55236  0.69741  0.60116  1.0000
  H   H1728     1.0  0.54602  0.66939  0.58396  1.0000
  S   S427      1.0  0.49826  0.76197  0.59019  1.0000
  H   H1729     1.0  0.49873  0.79493  0.50340  1.0000
  H   H1730     1.0  0.48890  0.72175  0.41372  1.0000
  H   H1731     1.0  0.52066  0.88325  0.62048  1.0000
  Fe  Fe214     1.0  0.49468  0.82772  0.58544  1.0000
  H   H1732     1.0  0.49185  0.72732  0.35754  1.0000
  C   C1090     1.0  0.49335  0.79819  0.48868  1.0000
  H   H1733     1.0  0.48671  0.69880  0.57717  1.0000
  H   H1734     1.0  0.50740  0.74832  0.42697  1.0000
  C   C1091     1.0  0.49022  0.73607  0.53861  1.0000
  H   H1735     1.0  0.50093  0.70742  0.42719  1.0000
  H   H1736     1.0  0.50343  0.77864  0.47216  1.0000
  H   H1737     1.0  0.52142  0.67618  0.60812  1.0000
  H   H1738     1.0  0.51886  0.73364  0.44115  1.0000
  C   C1092     1.0  0.49599  0.78899  0.47095  1.0000
  H   H1739     1.0  0.55607  0.68392  0.55778  1.0000
  H   H1740     1.0  0.50735  0.74759  0.45570  1.0000
  H   H1741     1.0  0.49267  0.72309  0.60000  1.0000
  H   H1742     1.0  0.48976  0.73978  0.52141  1.0000
  C   C1093     1.0  0.51480  0.83771  0.63769  1.0000
  C   C1094     1.0  0.48805  0.71768  0.54775  1.0000
  S   S428      1.0  0.48697  0.66754  0.40881  1.0000
  H   H1743     1.0  0.48994  0.65920  0.48720  1.0000
  Fe  Fe215     1.0  0.66553  0.71740  0.84041  1.0000
  S   S429      1.0  0.64242  0.69211  0.85192  1.0000
  S   S430      1.0  0.69479  0.71681  0.82914  1.0000
  Fe  Fe216     1.0  0.63331  0.70799  0.87724  1.0000
  S   S431      1.0  0.62211  0.69676  0.91337  1.0000
  Fe  Fe217     1.0  0.62733  0.70630  0.82961  1.0000
  S   S432      1.0  0.61689  0.69424  0.80048  1.0000
  S   S433      1.0  0.65107  0.73142  0.81722  1.0000
  H   H1744     1.0  0.52039  0.82601  0.66860  1.0000
  H   H1745     1.0  0.56439  0.93126  0.78793  1.0000
  C   C1095     1.0  0.59840  0.67585  0.79769  1.0000
  H   H1746     1.0  0.73493  0.72337  0.97098  1.0000
  C   C1096     1.0  0.56073  0.94276  0.79512  1.0000
  H   H1747     1.0  0.56191  0.94037  0.81276  1.0000
  H   H1748     1.0  0.59505  0.98432  0.69747  1.0000
  C   C1097     1.0  0.54689  0.67039  0.75332  1.0000
  H   H1749     1.0  0.72630  0.74316  0.96609  1.0000
  C   C1098     1.0  0.70561  0.69883  0.82759  1.0000
  C   C1099     1.0  0.69648  0.68003  0.83339  1.0000
  H   H1750     1.0  0.71882  0.89027  0.97493  1.0000
  C   C1100     1.0  0.59769  0.67078  0.77693  1.0000
  C   C1101     1.0  0.63564  0.71029  0.97083  1.0000
  H   H1751     1.0  0.52602  0.98867  0.69780  1.0000
  C   C1102     1.0  0.62615  0.70253  0.95514  1.0000
  C   C1103     1.0  0.63463  0.70552  0.93306  1.0000
  C   C1104     1.0  0.65281  0.71585  0.92694  1.0000
  H   H1752     1.0  0.61213  0.69440  0.96007  1.0000
  H   H1753     1.0  0.49354  0.94687  0.73201  1.0000
  H   H1754     1.0  0.53408  0.96735  0.72569  1.0000
  H   H1755     1.0  0.65198  0.93483  0.95875  1.0000
  C   C1105     1.0  0.66017  0.68247  0.76273  1.0000
  H   H1756     1.0  0.67621  0.73188  0.93746  1.0000
  H   H1757     1.0  0.50418  0.93090  0.70318  1.0000
  H   H1758     1.0  0.53029  0.88458  0.65675  1.0000
  H   H1759     1.0  0.65618  0.98779  0.79259  1.0000
  C   C1106     1.0  0.65366  0.72109  0.96443  1.0000
  H   H1760     1.0  0.65969  0.71779  0.91023  1.0000
  C   C1107     1.0  0.72432  0.70397  0.81923  1.0000
  C   C1108     1.0  0.66223  0.72365  0.94251  1.0000
  H   H1761     1.0  0.58466  0.67019  0.83125  1.0000
  C   C1109     1.0  0.66259  0.68347  0.80055  1.0000
  H   H1762     1.0  0.69620  0.69921  0.75573  1.0000
  N   N110      1.0  0.67040  0.69253  0.77765  1.0000
  H   H1763     1.0  0.72959  0.94369  0.86894  1.0000
  H   H1764     1.0  0.52127  0.94341  0.68009  1.0000
  H   H1765     1.0  0.71446  0.97233  0.97418  1.0000
  C   C1110     1.0  0.64772  0.92001  0.96291  1.0000
  H   H1766     1.0  0.48947  0.87629  0.73073  1.0000
  H   H1767     1.0  0.69783  0.70028  0.78389  1.0000
  N   N111      1.0  0.51500  0.95941  0.70437  1.0000
  N   N112      1.0  0.68967  0.87990  0.97836  1.0000
  H   H1768     1.0  0.65448  0.71212  0.77831  1.0000
  H   H1769     1.0  0.56893  0.97406  0.81127  1.0000
  H   H1770     1.0  0.69156  0.67843  0.77549  1.0000
  Fe  Fe218     1.0  0.64086  0.74397  0.84537  1.0000
  S   S434      1.0  0.61594  0.71984  0.85616  1.0000
  S   S435      1.0  0.65767  0.73235  0.86731  1.0000
  H   H1771     1.0  0.52489  0.94299  0.72814  1.0000
  H   H1772     1.0  0.68201  0.67583  0.83993  1.0000
  C   C1111     1.0  0.73392  0.69078  0.81661  1.0000
  H   H1773     1.0  0.57992  0.97633  0.75074  1.0000
  C   C1112     1.0  0.52267  0.68534  0.75827  1.0000
  H   H1774     1.0  0.55212  0.67454  0.76814  1.0000
  H   H1775     1.0  0.48786  0.96258  0.71174  1.0000
  H   H1776     1.0  0.48664  0.85454  0.66259  1.0000
  H   H1777     1.0  0.63909  0.95067  0.84173  1.0000
  H   H1778     1.0  0.69294  0.85520  0.96748  1.0000
  C   C1113     1.0  0.63594  0.88184  0.97355  1.0000
  H   H1779     1.0  0.59618  0.95041  0.77702  1.0000
  C   C1114     1.0  0.56766  0.97561  0.79365  1.0000
  H   H1780     1.0  0.52957  0.69625  0.74382  1.0000
  C   C1115     1.0  0.68698  0.89770  0.96897  1.0000
  H   H1781     1.0  0.69893  0.90594  0.95646  1.0000
  Fe  Fe219     1.0  0.64920  0.88957  0.89546  1.0000
  S   S436      1.0  0.63857  0.87658  0.93107  1.0000
  Fe  Fe220     1.0  0.64094  0.90351  0.85063  1.0000
  S   S437      1.0  0.66961  0.90620  0.83451  1.0000
  S   S438      1.0  0.62553  0.91659  0.82728  1.0000
  Fe  Fe221     1.0  0.66666  0.87862  0.85506  1.0000
  C   C1116     1.0  0.52035  0.83852  0.65817  1.0000
  S   S439      1.0  0.63736  0.87515  0.86947  1.0000
  S   S440      1.0  0.64958  0.91749  0.87830  1.0000
  Fe  Fe222     1.0  0.53955  0.87967  0.70913  1.0000
  S   S441      1.0  0.52578  0.87378  0.74453  1.0000
  S   S442      1.0  0.53264  0.85548  0.69123  1.0000
  Fe  Fe223     1.0  0.55950  0.91860  0.71288  1.0000
  S   S443      1.0  0.54715  0.91555  0.74822  1.0000
  S   S444      1.0  0.57610  0.94711  0.69692  1.0000
  Fe  Fe224     1.0  0.55312  0.88806  0.75167  1.0000
  S   S445      1.0  0.56281  0.87522  0.78123  1.0000
  Fe  Fe225     1.0  0.52124  0.90172  0.73779  1.0000
  H   H1782     1.0  0.67454  0.71887  0.75740  1.0000
  S   S446      1.0  0.56744  0.89197  0.71678  1.0000
  S   S447      1.0  0.53304  0.90679  0.70203  1.0000
  H   H1783     1.0  0.64772  0.68220  0.80440  1.0000
  C   C1117     1.0  0.52594  0.85539  0.66523  1.0000
  S   S448      1.0  0.63372  0.77131  0.84783  1.0000
  C   C1118     1.0  0.50951  0.94441  0.69201  1.0000
  H   H1784     1.0  0.64259  0.86164  0.82785  1.0000
  H   H1785     1.0  0.70268  0.87582  0.94741  1.0000
  H   H1786     1.0  0.49856  0.94651  0.68277  1.0000
  H   H1787     1.0  0.60031  0.74886  0.94384  1.0000
  S   S449      1.0  0.69631  0.94906  0.85452  1.0000
  C   C1119     1.0  0.72288  0.98339  0.98117  1.0000
  C   C1120     1.0  0.60060  0.97542  0.70798  1.0000
  C   C1121     1.0  0.59401  0.95634  0.71025  1.0000
  C   C1122     1.0  0.60123  0.94488  0.72385  1.0000
  H   H1788     1.0  0.54177  0.95554  0.70486  1.0000
  H   H1789     1.0  0.52722  0.69024  0.77308  1.0000
  H   H1790     1.0  0.59405  0.95920  0.80211  1.0000
  H   H1791     1.0  0.50279  0.97107  0.72995  1.0000
  C   C1123     1.0  0.66444  0.83233  0.84339  1.0000
  C   C1124     1.0  0.67397  0.81982  0.83671  1.0000
  C   C1125     1.0  0.66496  0.80108  0.83821  1.0000
  C   C1126     1.0  0.64614  0.79468  0.84587  1.0000
  C   C1127     1.0  0.63658  0.80725  0.85231  1.0000
  C   C1128     1.0  0.64567  0.82584  0.85145  1.0000
  H   H1792     1.0  0.68847  0.82465  0.83038  1.0000
  H   H1793     1.0  0.67254  0.79167  0.83312  1.0000
  H   H1794     1.0  0.62200  0.80256  0.85811  1.0000
  H   H1795     1.0  0.63809  0.83514  0.85680  1.0000
  C   C1129     1.0  0.60819  0.90479  0.81459  1.0000
  C   C1130     1.0  0.60436  0.91388  0.79541  1.0000
  C   C1131     1.0  0.59049  0.90504  0.78494  1.0000
  C   C1132     1.0  0.58032  0.88702  0.79367  1.0000
  C   C1133     1.0  0.58420  0.87795  0.81283  1.0000
  C   C1134     1.0  0.59804  0.88679  0.82330  1.0000
  H   H1796     1.0  0.61232  0.92774  0.78849  1.0000
  H   H1797     1.0  0.58775  0.91207  0.77005  1.0000
  H   H1798     1.0  0.57628  0.86405  0.81973  1.0000
  H   H1799     1.0  0.60059  0.87982  0.83833  1.0000
  H   H1800     1.0  0.57664  0.98931  0.78536  1.0000
  H   H1801     1.0  0.52733  0.67186  0.72082  1.0000
  H   H1802     1.0  0.63679  0.96986  0.80709  1.0000
  C   C1135     1.0  0.64014  0.89036  0.95145  1.0000
  C   C1136     1.0  0.64609  0.90950  0.94613  1.0000
  H   H1803     1.0  0.54615  0.94170  0.79415  1.0000
  C   C1137     1.0  0.68984  0.69259  0.77292  1.0000
  H   H1804     1.0  0.65996  0.95553  0.85238  1.0000
  H   H1805     1.0  0.64929  0.91619  0.92914  1.0000
  H   H1806     1.0  0.64598  0.97127  0.85279  1.0000
  C   C1138     1.0  0.71205  0.96179  0.86882  1.0000
  S   S450      1.0  0.67856  0.89198  0.88188  1.0000
  C   C1139     1.0  0.65760  0.87649  0.78621  1.0000
  C   C1140     1.0  0.63788  0.84567  0.79288  1.0000
  H   H1807     1.0  0.66225  0.87576  0.76878  1.0000
  H   H1808     1.0  0.66737  0.87200  0.79599  1.0000
  H   H1809     1.0  0.64727  0.84046  0.80265  1.0000
  H   H1810     1.0  0.64181  0.84403  0.77562  1.0000
  S   S451      1.0  0.49548  0.91011  0.74762  1.0000
  C   C1141     1.0  0.72793  0.95676  0.87234  1.0000
  H   H1811     1.0  0.62070  0.94359  0.74540  1.0000
  C   C1142     1.0  0.65107  0.96186  0.84295  1.0000
  H   H1812     1.0  0.67489  0.89574  0.96076  1.0000
  H   H1813     1.0  0.68710  0.97983  0.83117  1.0000
  C   C1143     1.0  0.66896  0.71163  0.77455  1.0000
  C   C1144     1.0  0.71048  0.97914  0.87267  1.0000
  H   H1814     1.0  0.61100  0.77294  0.94137  1.0000
  C   C1145     1.0  0.58439  0.66646  0.81520  1.0000
  S   S452      1.0  0.63775  0.98068  0.74865  1.0000
  C   C1146     1.0  0.61409  0.98304  0.71963  1.0000
  H   H1815     1.0  0.67605  0.95152  0.81708  1.0000
  C   C1147     1.0  0.66724  0.95859  0.80841  1.0000
  H   H1816     1.0  0.69837  0.98331  0.86985  1.0000
  C   C1148     1.0  0.52958  0.95618  0.71631  1.0000
  C   C1149     1.0  0.52185  0.97706  0.68896  1.0000
  C   C1150     1.0  0.62137  0.97160  0.73316  1.0000
  C   C1151     1.0  0.49907  0.96001  0.72020  1.0000
  C   C1152     1.0  0.57053  0.96327  0.76025  1.0000
  H   H1817     1.0  0.60134  0.97467  0.77624  1.0000
  C   C1153     1.0  0.70619  0.66665  0.83049  1.0000
  C   C1154     1.0  0.59189  0.96129  0.78482  1.0000
  H   H1818     1.0  0.71935  0.68268  0.89521  1.0000
  H   H1819     1.0  0.67665  0.71964  0.78551  1.0000
  C   C1155     1.0  0.69102  0.86878  0.96093  1.0000
  C   C1156     1.0  0.52594  0.87151  0.65156  1.0000
  C   C1157     1.0  0.64905  0.98029  0.80926  1.0000
  H   H1820     1.0  0.57361  0.95195  0.75229  1.0000
  H   H1821     1.0  0.67841  0.86623  0.95354  1.0000
  H   H1822     1.0  0.55443  0.68102  0.73889  1.0000
  N   N113      1.0  0.62377  0.75950  0.91819  1.0000
  C   C1158     1.0  0.61831  0.74451  0.90581  1.0000
  C   C1159     1.0  0.63282  0.77676  0.90267  1.0000
  C   C1160     1.0  0.63655  0.75505  0.93236  1.0000
  C   C1161     1.0  0.60739  0.76167  0.93189  1.0000
  H   H1823     1.0  0.61113  0.73127  0.91693  1.0000
  H   H1824     1.0  0.63036  0.74222  0.89573  1.0000
  H   H1825     1.0  0.60916  0.74765  0.89432  1.0000
  H   H1826     1.0  0.62347  0.78056  0.89184  1.0000
  H   H1827     1.0  0.63738  0.78840  0.91130  1.0000
  H   H1828     1.0  0.64503  0.77545  0.89174  1.0000
  H   H1829     1.0  0.64100  0.76602  0.94200  1.0000
  H   H1830     1.0  0.64904  0.75330  0.92249  1.0000
  H   H1831     1.0  0.63018  0.74207  0.94423  1.0000
  H   H1832     1.0  0.59743  0.76493  0.92163  1.0000
  Fe  Fe226     1.0  0.67834  0.91933  0.86286  1.0000
  N   N114      1.0  0.66113  0.97168  0.82104  1.0000
  H   H1833     1.0  0.59624  0.93014  0.72562  1.0000
  H   H1834     1.0  0.62387  0.83659  0.79925  1.0000
  S   S453      1.0  0.67631  0.85602  0.84013  1.0000
  N   N115      1.0  0.52695  0.66781  0.75572  1.0000
  C   C1162     1.0  0.61507  0.95252  0.73503  1.0000
  N   N116      1.0  0.63874  0.86500  0.79443  1.0000
  H   H1835     1.0  0.65873  0.89114  0.78733  1.0000
  H   H1836     1.0  0.66905  0.69148  0.81225  1.0000
  C   C1163     1.0  0.63336  0.86641  0.81756  1.0000
  H   H1837     1.0  0.62977  0.87064  0.76368  1.0000
  C   C1164     1.0  0.62616  0.87147  0.78129  1.0000
  H   H1838     1.0  0.61919  0.85796  0.82447  1.0000
  H   H1839     1.0  0.63403  0.88083  0.81941  1.0000
  H   H1840     1.0  0.61177  0.86319  0.78720  1.0000
  H   H1841     1.0  0.70080  0.67483  0.88123  1.0000
  H   H1842     1.0  0.62644  0.88600  0.78226  1.0000
  C   C1165     1.0  0.72509  0.67207  0.82234  1.0000
  H   H1843     1.0  0.66565  0.68889  0.74526  1.0000
  H   H1844     1.0  0.51120  0.97996  0.67967  1.0000
  H   H1845     1.0  0.65542  0.94777  0.80594  1.0000
  N   N117      1.0  0.57269  0.96073  0.78349  1.0000
  H   H1846     1.0  0.66082  0.66795  0.76480  1.0000
  H   H1847     1.0  0.67509  0.96560  0.79190  1.0000
  C   C1166     1.0  0.67718  0.98598  0.82360  1.0000
  H   H1848     1.0  0.73151  0.71837  0.81457  1.0000
  H   H1849     1.0  0.72381  0.67733  0.86825  1.0000
  C   C1167     1.0  0.71427  0.67299  0.88430  1.0000
  H   H1850     1.0  0.60838  0.67797  0.76322  1.0000
  H   H1851     1.0  0.50773  0.68390  0.75999  1.0000
  H   H1852     1.0  0.64546  0.68234  0.76604  1.0000
  H   H1853     1.0  0.55336  0.97586  0.79255  1.0000
  C   C1168     1.0  0.52067  0.66169  0.73601  1.0000
  C   C1169     1.0  0.73446  0.73655  0.97646  1.0000
  H   H1854     1.0  0.63112  0.86705  0.97771  1.0000
  H   H1855     1.0  0.53395  0.97709  0.67689  1.0000
  H   H1856     1.0  0.55636  0.96353  0.75850  1.0000
  H   H1857     1.0  0.66448  0.66944  0.80398  1.0000
  H   H1858     1.0  0.64433  0.99040  0.81824  1.0000
  H   H1859     1.0  0.50563  0.65924  0.73722  1.0000
  C   C1170     1.0  0.72472  0.99140  0.87947  1.0000
  Fe  Fe227     1.0  0.77295  0.09604  0.04285  1.0000
  S   S454      1.0  0.79418  0.08026  0.04275  1.0000
  H   H1860     1.0  0.88446  0.20775  0.99960  1.0000
  Fe  Fe228     1.0  0.76508  0.09157  0.09238  1.0000
  S   S455      1.0  0.78566  0.07538  0.09522  1.0000
  H   H1861     1.0  0.73897  0.05957  0.12276  1.0000
  Fe  Fe229     1.0  0.80420  0.09718  0.06800  1.0000
  S   S456      1.0  0.83408  0.11061  0.07100  1.0000
  Fe  Fe230     1.0  0.77325  0.06032  0.06993  1.0000
  S   S457      1.0  0.76426  0.02868  0.07833  1.0000
  S   S458      1.0  0.78399  0.11384  0.06631  1.0000
  S   S459      1.0  0.75166  0.07556  0.06872  1.0000
  Fe  Fe231     1.0  0.91452  0.21127  0.07451  1.0000
  H   H1862     1.0  0.75068  0.04341  0.11436  1.0000
  S   S460      1.0  0.89974  0.18067  0.07542  1.0000
  N   N118      1.0  0.90951  0.17107  0.00697  1.0000
  H   H1863     1.0  0.91958  0.19683  0.01729  1.0000
  H   H1864     1.0  0.88533  0.27593  0.21800  1.0000
  C   C1171     1.0  0.90043  0.23289  0.00636  1.0000
  C   C1172     1.0  0.88777  0.28640  0.31329  1.0000
  H   H1865     1.0  0.74233  0.04825  0.99535  1.0000
  H   H1866     1.0  0.75452  0.06993  0.01908  1.0000
  S   S461      1.0  0.93379  0.22202  0.09724  1.0000
  S   S462      1.0  0.93567  0.22689  0.04508  1.0000
  S   S463      1.0  0.76792  0.10945  0.01082  1.0000
  Fe  Fe232     1.0  0.95340  0.24013  0.06765  1.0000
  C   C1173     1.0  0.85143  0.13122  0.07130  1.0000
  C   C1174     1.0  0.84907  0.14911  0.06811  1.0000
  C   C1175     1.0  0.86350  0.16455  0.06943  1.0000
  C   C1176     1.0  0.88042  0.16225  0.07391  1.0000
  C   C1177     1.0  0.88256  0.14441  0.07692  1.0000
  C   C1178     1.0  0.86836  0.12920  0.07563  1.0000
  H   H1867     1.0  0.83623  0.15109  0.06453  1.0000
  H   H1868     1.0  0.86156  0.17820  0.06689  1.0000
  H   H1869     1.0  0.89539  0.14226  0.08042  1.0000
  H   H1870     1.0  0.87051  0.11563  0.07820  1.0000
  S   S464      1.0  0.90005  0.23356  0.07587  1.0000
  N   N119      1.0  0.80804  0.12524  0.12888  1.0000
  C   C1179     1.0  0.80273  0.13281  0.10850  1.0000
  C   C1180     1.0  0.79659  0.12882  0.14793  1.0000
  C   C1181     1.0  0.82750  0.13402  0.12867  1.0000
  C   C1182     1.0  0.80527  0.10525  0.13033  1.0000
  H   H1871     1.0  0.81077  0.12995  0.09380  1.0000
  H   H1872     1.0  0.80499  0.14794  0.10653  1.0000
  H   H1873     1.0  0.78802  0.12671  0.10833  1.0000
  H   H1874     1.0  0.79828  0.14379  0.14732  1.0000
  H   H1875     1.0  0.78181  0.12233  0.14837  1.0000
  H   H1876     1.0  0.80009  0.12320  0.16366  1.0000
  H   H1877     1.0  0.83029  0.14920  0.12680  1.0000
  H   H1878     1.0  0.83643  0.13106  0.11478  1.0000
  H   H1879     1.0  0.83191  0.12894  0.14401  1.0000
  H   H1880     1.0  0.80930  0.09905  0.14539  1.0000
  H   H1881     1.0  0.81350  0.10203  0.11600  1.0000
  H   H1882     1.0  0.79070  0.09819  0.13068  1.0000
  C   C1183     1.0  0.74939  0.01117  0.06789  1.0000
  H   H1883     1.0  0.85701  0.28512  0.21936  1.0000
  C   C1184     1.0  0.73929  0.04502  0.12632  1.0000
  N   N120      1.0  0.87393  0.28355  0.18965  1.0000
  C   C1185     1.0  0.75862  0.09393  0.99451  1.0000
  C   C1186     1.0  0.74664  0.06279  0.98893  1.0000
  H   H1884     1.0  0.86965  0.30682  0.20324  1.0000
  H   H1885     1.0  0.87453  0.32429  0.31316  1.0000
  H   H1886     1.0  0.89487  0.22961  0.02373  1.0000
  S   S465      1.0  0.75339  0.09707  0.12534  1.0000
  S   S466      1.0  0.92047  0.26510  0.01492  1.0000
  H   H1887     1.0  0.92139  0.32063  0.11194  1.0000
  C   C1187     1.0  0.89031  0.17138  0.01327  1.0000
  H   H1888     1.0  0.92900  0.15888  0.02053  1.0000
  Fe  Fe233     1.0  0.92023  0.24523  0.09690  1.0000
  C   C1188     1.0  0.88039  0.29404  0.16708  1.0000
  H   H1889     1.0  0.95590  0.25808  0.99561  1.0000
  C   C1189     1.0  0.88972  0.28284  0.20054  1.0000
  H   H1890     1.0  0.95816  0.26179  0.02284  1.0000
  C   C1190     1.0  0.86206  0.29263  0.20219  1.0000
  H   H1891     1.0  0.91402  0.16596  0.04009  1.0000
  C   C1191     1.0  0.96391  0.29416  0.99698  1.0000
  H   H1892     1.0  0.85003  0.29354  0.19447  1.0000
  H   H1893     1.0  0.88882  0.30818  0.16696  1.0000
  S   S467      1.0  0.91317  0.25393  0.12976  1.0000
  C   C1192     1.0  0.96597  0.26310  0.00611  1.0000
  H   H1894     1.0  0.88895  0.28727  0.15696  1.0000
  S   S468      1.0  0.98447  0.25011  0.05516  1.0000
  C   C1193     1.0  0.91300  0.24972  0.99753  1.0000
  C   C1194     1.0  0.91145  0.16309  0.98680  1.0000
  C   C1195     1.0  0.86361  0.26468  0.18881  1.0000
  S   S469      1.0  0.88135  0.30099  0.25049  1.0000
  H   H1895     1.0  0.74697  0.02842  0.03883  1.0000
  H   H1896     1.0  0.92493  0.26877  0.16659  1.0000
  H   H1897     1.0  0.88864  0.17885  0.02721  1.0000
  H   H1898     1.0  0.87229  0.25760  0.17927  1.0000
  C   C1196     1.0  0.87738  0.29407  0.27913  1.0000
  C   C1197     1.0  0.85937  0.28881  0.29055  1.0000
  S   S470      1.0  0.94055  0.26347  0.06859  1.0000
  C   C1198     1.0  0.89165  0.29324  0.29060  1.0000
  H   H1899     1.0  0.84828  0.28945  0.28176  1.0000
  H   H1900     1.0  0.86885  0.29531  0.15855  1.0000
  Fe  Fe234     1.0  0.92212  0.24954  0.04757  1.0000
  H   H1901     1.0  0.95592  0.29321  0.01361  1.0000
  C   C1199     1.0  0.92575  0.31246  0.14473  1.0000
  C   C1200     1.0  0.92723  0.29783  0.15983  1.0000
  C   C1201     1.0  0.92433  0.28011  0.15455  1.0000
  C   C1202     1.0  0.92030  0.27688  0.13398  1.0000
  C   C1203     1.0  0.91980  0.29170  0.11841  1.0000
  C   C1204     1.0  0.92245  0.30939  0.12381  1.0000
  H   H1902     1.0  0.93020  0.30004  0.17577  1.0000
  H   H1903     1.0  0.91661  0.28939  0.10254  1.0000
  C   C1205     1.0  0.75343  0.07506  0.00246  1.0000
  C   C1206     1.0  0.89467  0.22042  0.99267  1.0000
  H   H1904     1.0  0.90557  0.14570  0.02916  1.0000
  H   H1905     1.0  0.85046  0.31906  0.31280  1.0000
  H   H1906     1.0  0.88103  0.15730  0.01846  1.0000
  H   H1907     1.0  0.85155  0.26467  0.18076  1.0000
  H   H1908     1.0  0.85870  0.25630  0.20555  1.0000
  C   C1207     1.0  0.74306  0.01463  0.04819  1.0000
  H   H1909     1.0  0.93615  0.19018  0.99915  1.0000
  H   H1910     1.0  0.90559  0.29719  0.28187  1.0000
  H   H1911     1.0  0.89849  0.27521  0.19229  1.0000
  H   H1912     1.0  0.89837  0.29686  0.20040  1.0000
  C   C1208     1.0  0.92150  0.18997  0.00284  1.0000
  N   N121      1.0  0.97652  0.28229  0.99763  1.0000
  H   H1913     1.0  0.91862  0.19851  0.98858  1.0000
  H   H1914     1.0  0.74277  0.04250  0.14295  1.0000
  S   S471      1.0  0.93183  0.31955  0.21340  1.0000
  C   C1209     1.0  0.91477  0.15987  0.02492  1.0000
  Fe  Fe235     1.0  0.90681  0.32302  0.23383  1.0000
  C   C1210     1.0  0.85559  0.28282  0.31332  1.0000
  H   H1915     1.0  0.97499  0.25370  0.00736  1.0000
  H   H1916     1.0  0.98224  0.28699  0.02936  1.0000
  C   C1211     1.0  0.74407  0.99305  0.07970  1.0000
  H   H1917     1.0  0.97133  0.30880  0.99081  1.0000
  H   H1918     1.0  0.95376  0.28997  0.98626  1.0000
  H   H1919     1.0  0.88541  0.17827  0.99933  1.0000
  H   H1920     1.0  0.75399  0.00680  0.98492  1.0000
  H   H1921     1.0  0.90249  0.14888  0.98928  1.0000
  H   H1922     1.0  0.73658  0.01880  0.98412  1.0000
  H   H1923     1.0  0.76984  0.20599  0.35577  1.0000
  C   C1212     1.0  0.74426  0.23336  0.61212  1.0000
  C   C1213     1.0  0.76555  0.20924  0.62108  1.0000
  H   H1924     1.0  0.78608  0.23319  0.62426  1.0000
  H   H1925     1.0  0.80130  0.20421  0.36481  1.0000
  C   C1214     1.0  0.84761  0.21910  0.35168  1.0000
  C   C1215     1.0  0.74207  0.14137  0.43691  1.0000
  C   C1216     1.0  0.77239  0.22450  0.37910  1.0000
  H   H1926     1.0  0.77384  0.19996  0.62459  1.0000
  H   H1927     1.0  0.79561  0.25734  0.52805  1.0000
  C   C1217     1.0  0.74605  0.21900  0.40765  1.0000
  H   H1928     1.0  0.81787  0.19263  0.37246  1.0000
  H   H1929     1.0  0.76644  0.17262  0.43980  1.0000
  H   H1930     1.0  0.83770  0.24080  0.37814  1.0000
  H   H1931     1.0  0.77432  0.25900  0.54228  1.0000
  N   N122      1.0  0.73814  0.15834  0.44262  1.0000
  C   C1218     1.0  0.82546  0.23449  0.34068  1.0000
  H   H1932     1.0  0.75162  0.22080  0.53868  1.0000
  C   C1219     1.0  0.78083  0.25009  0.53306  1.0000
  C   C1220     1.0  0.74538  0.19949  0.38006  1.0000
  H   H1933     1.0  0.89878  0.28513  0.32200  1.0000
  H   H1934     1.0  0.75058  0.29310  0.61664  1.0000
  C   C1221     1.0  0.74810  0.20249  0.61631  1.0000
  N   N123      1.0  0.82896  0.22106  0.35782  1.0000
  C   C1222     1.0  0.76396  0.22896  0.39809  1.0000
  H   H1935     1.0  0.85806  0.23249  0.34984  1.0000
  C   C1223     1.0  0.78632  0.23397  0.56633  1.0000
  H   H1936     1.0  0.81152  0.23634  0.34454  1.0000
  C   C1224     1.0  0.78703  0.22053  0.53365  1.0000
  H   H1937     1.0  0.78595  0.23246  0.37141  1.0000
  C   C1225     1.0  0.86973  0.28116  0.32472  1.0000
  S   S472      1.0  0.77562  0.24603  0.41122  1.0000
  H   H1938     1.0  0.81368  0.22987  0.38395  1.0000
  C   C1226     1.0  0.77251  0.22806  0.62087  1.0000
  C   C1227     1.0  0.76321  0.20962  0.37029  1.0000
  C   C1228     1.0  0.76193  0.24018  0.61622  1.0000
  H   H1939     1.0  0.84166  0.27906  0.32188  1.0000
  H   H1940     1.0  0.84939  0.21420  0.33578  1.0000
  H   H1941     1.0  0.75716  0.17593  0.41506  1.0000
  C   C1229     1.0  0.86615  0.29691  0.64637  1.0000
  H   H1942     1.0  0.78084  0.24344  0.57561  1.0000
  H   H1943     1.0  0.75415  0.13879  0.44346  1.0000
  H   H1944     1.0  0.82692  0.23023  0.32436  1.0000
  C   C1230     1.0  0.82735  0.22758  0.37902  1.0000
  H   H1945     1.0  0.74364  0.31013  0.63033  1.0000
  N   N124      1.0  0.77812  0.23183  0.54652  1.0000
  H   H1946     1.0  0.82955  0.21764  0.39245  1.0000
  H   H1947     1.0  0.84129  0.30513  0.64602  1.0000
  H   H1948     1.0  0.77500  0.24903  0.51781  1.0000
  H   H1949     1.0  0.75132  0.23092  0.56303  1.0000
  H   H1950     1.0  0.83524  0.24814  0.33902  1.0000
  H   H1951     1.0  0.85090  0.20927  0.36434  1.0000
  H   H1952     1.0  0.73937  0.22257  0.42219  1.0000
  C   C1231     1.0  0.75837  0.22275  0.55316  1.0000
  H   H1953     1.0  0.78116  0.21858  0.51857  1.0000
  C   C1232     1.0  0.74792  0.13529  0.62385  1.0000
  C   C1233     1.0  0.75146  0.30804  0.61497  1.0000
  H   H1954     1.0  0.74482  0.14213  0.41879  1.0000
  H   H1955     1.0  0.84324  0.31598  0.48407  1.0000
  H   H1956     1.0  0.79500  0.32370  0.58702  1.0000
  H   H1957     1.0  0.74082  0.14038  0.61091  1.0000
  H   H1958     1.0  0.80196  0.22712  0.52842  1.0000
  Fe  Fe236     1.0  0.84128  0.27836  0.37242  1.0000
  S   S473      1.0  0.81492  0.27785  0.36053  1.0000
  Fe  Fe237     1.0  0.83073  0.29434  0.41297  1.0000
  S   S474      1.0  0.80389  0.29593  0.40377  1.0000
  S   S475      1.0  0.83941  0.30708  0.44166  1.0000
  Fe  Fe238     1.0  0.80194  0.26762  0.39604  1.0000
  Fe  Fe239     1.0  0.81930  0.30596  0.36936  1.0000
  H   H1959     1.0  0.75586  0.20898  0.56352  1.0000
  S   S476      1.0  0.82809  0.26552  0.40737  1.0000
  S   S477      1.0  0.84636  0.30693  0.37916  1.0000
  Fe  Fe240     1.0  0.83011  0.27280  0.56255  1.0000
  S   S478      1.0  0.80763  0.28668  0.56469  1.0000
  S   S479      1.0  0.83292  0.25777  0.53412  1.0000
  Fe  Fe241     1.0  0.84115  0.28367  0.60503  1.0000
  S   S480      1.0  0.81931  0.29836  0.61048  1.0000
  S   S481      1.0  0.86268  0.28281  0.62632  1.0000
  Fe  Fe242     1.0  0.80119  0.27424  0.60033  1.0000
  Fe  Fe243     1.0  0.82759  0.30938  0.57444  1.0000
  S   S482      1.0  0.82226  0.25838  0.59773  1.0000
  S   S483      1.0  0.85084  0.29661  0.56944  1.0000
  S   S484      1.0  0.77102  0.26399  0.61391  1.0000
  C   C1234     1.0  0.83710  0.29299  0.46725  1.0000
  C   C1235     1.0  0.83979  0.30122  0.48568  1.0000
  C   C1236     1.0  0.83825  0.29047  0.50628  1.0000
  C   C1237     1.0  0.83447  0.27140  0.50848  1.0000
  C   C1238     1.0  0.83175  0.26310  0.49010  1.0000
  C   C1239     1.0  0.83289  0.27387  0.46954  1.0000
  H   H1960     1.0  0.75140  0.18723  0.43722  1.0000
  H   H1961     1.0  0.84042  0.29698  0.52036  1.0000
  H   H1962     1.0  0.83087  0.26741  0.45542  1.0000
  H   H1963     1.0  0.74440  0.31162  0.60126  1.0000
  H   H1964     1.0  0.81611  0.19798  0.34407  1.0000
  H   H1965     1.0  0.82886  0.24836  0.49171  1.0000
  C   C1240     1.0  0.81548  0.20317  0.35988  1.0000
  S   S485      1.0  0.74035  0.17903  0.61519  1.0000
  H   H1966     1.0  0.78543  0.20674  0.54344  1.0000
  H   H1967     1.0  0.74574  0.15398  0.47443  1.0000
  S   S486      1.0  0.86493  0.27153  0.35285  1.0000
  C   C1241     1.0  0.75403  0.17419  0.43329  1.0000
  H   H1968     1.0  0.80133  0.23976  0.56220  1.0000
  H   H1969     1.0  0.77437  0.32021  0.57599  1.0000
  C   C1242     1.0  0.78038  0.31592  0.59038  1.0000
  H   H1970     1.0  0.78375  0.22059  0.57745  1.0000
  H   H1971     1.0  0.77987  0.30117  0.59112  1.0000
  H   H1972     1.0  0.77942  0.29893  0.63113  1.0000
  H   H1973     1.0  0.75757  0.14758  0.62735  1.0000
  H   H1974     1.0  0.79388  0.32188  0.62717  1.0000
  H   H1975     1.0  0.75607  0.12656  0.61682  1.0000
  C   C1243     1.0  0.73740  0.21456  0.61199  1.0000
  H   H1976     1.0  0.77227  0.31561  0.64529  1.0000
  C   C1244     1.0  0.77944  0.31366  0.62944  1.0000
  N   N125      1.0  0.77065  0.31913  0.61096  1.0000
  H   H1977     1.0  0.87433  0.32173  0.60620  1.0000
  C   C1245     1.0  0.73668  0.20452  0.39847  1.0000
  Fe  Fe244     1.0  0.75359  0.06712  0.86642  1.0000
  S   S487      1.0  0.77872  0.05693  0.85958  1.0000
  C   C1246     1.0  0.81014  0.11562  0.96637  1.0000
  Fe  Fe245     1.0  0.75193  0.05888  0.91566  1.0000
  S   S488      1.0  0.77650  0.04799  0.91186  1.0000
  H   H1978     1.0  0.92955  0.26708  0.96800  1.0000
  Fe  Fe246     1.0  0.78919  0.07296  0.88532  1.0000
  S   S489      1.0  0.81918  0.08820  0.88609  1.0000
  Fe  Fe247     1.0  0.76355  0.03333  0.88683  1.0000
  S   S490      1.0  0.76036  0.00265  0.88733  1.0000
  S   S491      1.0  0.76486  0.08457  0.89058  1.0000
  H   H1979     1.0  0.85998  0.21046  0.79074  1.0000
  Fe  Fe248     1.0  0.89569  0.19114  0.88039  1.0000
  S   S492      1.0  0.88447  0.21161  0.89647  1.0000
  S   S493      1.0  0.87141  0.17085  0.87060  1.0000
  Fe  Fe249     1.0  0.93571  0.21532  0.87987  1.0000
  H   H1980     1.0  0.84472  0.19866  0.81579  1.0000
  Fe  Fe250     1.0  0.90566  0.21241  0.91776  1.0000
  S   S494      1.0  0.89648  0.20680  0.95462  1.0000
  H   H1981     1.0  0.83646  0.10006  0.95359  1.0000
  S   S495      1.0  0.91620  0.19080  0.90320  1.0000
  S   S496      1.0  0.91637  0.21351  0.85532  1.0000
  H   H1982     1.0  0.88315  0.19438  0.80094  1.0000
  S   S497      1.0  0.73832  0.04285  0.89222  1.0000
  H   H1983     1.0  0.89541  0.32211  0.80939  1.0000
  H   H1984     1.0  0.86131  0.22507  0.84510  1.0000
  H   H1985     1.0  0.78737  0.11126  0.93779  1.0000
  S   S498      1.0  0.96637  0.21786  0.86960  1.0000
  H   H1986     1.0  0.88218  0.27818  0.82264  1.0000
  N   N126      1.0  0.87184  0.21185  0.81984  1.0000
  C   C1247     1.0  0.83329  0.11141  0.88188  1.0000
  C   C1248     1.0  0.82738  0.12667  0.87406  1.0000
  C   C1249     1.0  0.83914  0.14463  0.87096  1.0000
  C   C1250     1.0  0.85684  0.14779  0.87616  1.0000
  C   C1251     1.0  0.86260  0.13256  0.88441  1.0000
  C   C1252     1.0  0.85104  0.11457  0.88692  1.0000
  H   H1987     1.0  0.81386  0.12463  0.87001  1.0000
  H   H1988     1.0  0.83444  0.15618  0.86447  1.0000
  H   H1989     1.0  0.87620  0.13458  0.88822  1.0000
  H   H1990     1.0  0.85595  0.10299  0.89279  1.0000
  C   C1253     1.0  0.88579  0.31091  0.67052  1.0000
  H   H1991     1.0  0.81600  0.11051  0.98052  1.0000
  H   H1992     1.0  0.87763  0.21320  0.85221  1.0000
  H   H1993     1.0  0.79964  0.07573  0.94656  1.0000
  H   H1994     1.0  0.74521  0.99382  0.83143  1.0000
  H   H1995     1.0  0.89858  0.22966  0.81822  1.0000
  H   H1996     1.0  0.89004  0.19532  0.82717  1.0000
  C   C1254     1.0  0.85613  0.21103  0.80840  1.0000
  H   H1997     1.0  0.75249  0.10914  0.65446  1.0000
  H   H1998     1.0  0.74881  0.04241  0.83561  1.0000
  C   C1255     1.0  0.85733  0.31862  0.66780  1.0000
  H   H1999     1.0  0.75443  0.13014  0.66509  1.0000
  S   S499      1.0  0.73720  0.05359  0.95059  1.0000
  Fe  Fe251     1.0  0.90557  0.23364  0.87239  1.0000
  H   H2000     1.0  0.92040  0.24422  0.94401  1.0000
  H   H2001     1.0  0.82970  0.09523  0.92823  1.0000
  C   C1256     1.0  0.90211  0.22422  0.97025  1.0000
  H   H2002     1.0  0.80634  0.07913  0.97252  1.0000
  H   H2003     1.0  0.80931  0.12490  0.92306  1.0000
  H   H2004     1.0  0.85503  0.20030  0.85157  1.0000
  C   C1257     1.0  0.76444  0.02613  0.80589  1.0000
  H   H2005     1.0  0.91319  0.31083  0.83543  1.0000
  S   S500      1.0  0.89444  0.25519  0.85403  1.0000
  C   C1258     1.0  0.87844  0.19534  0.81825  1.0000
  H   H2006     1.0  0.85080  0.22327  0.80938  1.0000
  H   H2007     1.0  0.88208  0.24110  0.81038  1.0000
  C   C1259     1.0  0.80007  0.08482  0.95910  1.0000
  C   C1260     1.0  0.88668  0.22842  0.80962  1.0000
  C   C1261     1.0  0.75712  0.10048  0.97296  1.0000
  C   C1262     1.0  0.75094  0.08815  0.95916  1.0000
  H   H2008     1.0  0.90762  0.17137  0.97294  1.0000
  H   H2009     1.0  0.89715  0.29721  0.78622  1.0000
  H   H2010     1.0  0.73899  0.99535  0.80468  1.0000
  H   H2011     1.0  0.97714  0.27930  0.96390  1.0000
  H   H2012     1.0  0.89162  0.22827  0.79209  1.0000
  H   H2013     1.0  0.89821  0.31250  0.67727  1.0000
  C   C1263     1.0  0.88212  0.29893  0.65549  1.0000
  N   N127      1.0  0.74506  0.02092  0.81658  1.0000
  C   C1264     1.0  0.74563  0.01248  0.97402  1.0000
  S   S501      1.0  0.92579  0.23675  0.89557  1.0000
  N   N128      1.0  0.81023  0.10395  0.94937  1.0000
  C   C1265     1.0  0.91989  0.25401  0.97491  1.0000
  H   H2014     1.0  0.81809  0.13005  0.95968  1.0000
  C   C1266     1.0  0.74364  0.02727  0.83782  1.0000
  C   C1267     1.0  0.74562  0.06929  0.96718  1.0000
  C   C1268     1.0  0.80150  0.11082  0.93152  1.0000
  C   C1269     1.0  0.86611  0.21264  0.84315  1.0000
  H   H2015     1.0  0.79602  0.11592  0.97302  1.0000
  H   H2016     1.0  0.75669  0.00150  0.93672  1.0000
  C   C1270     1.0  0.91465  0.24114  0.96130  1.0000
  H   H2017     1.0  0.94617  0.28091  0.79281  1.0000
  H   H2018     1.0  0.73959  0.04487  0.79950  1.0000
  C   C1271     1.0  0.74464  0.11852  0.66050  1.0000
  S   S502      1.0  0.93472  0.30564  0.76266  1.0000
  H   H2019     1.0  0.86754  0.18256  0.82574  1.0000
  C   C1272     1.0  0.90563  0.26855  0.82827  1.0000
  C   C1273     1.0  0.92358  0.26913  0.81961  1.0000
  C   C1274     1.0  0.93216  0.28027  0.79924  1.0000
  C   C1275     1.0  0.92283  0.29077  0.78729  1.0000
  C   C1276     1.0  0.90466  0.28968  0.79561  1.0000
  C   C1277     1.0  0.89618  0.27879  0.81616  1.0000
  H   H2020     1.0  0.93094  0.26119  0.82873  1.0000
  H   H2021     1.0  0.77033  0.04128  0.80317  1.0000
  S   S503      1.0  0.74138  0.07622  0.83694  1.0000
  H   H2022     1.0  0.98108  0.25132  0.88893  1.0000
  H   H2023     1.0  0.74985  0.09324  0.94251  1.0000
  H   H2024     1.0  0.76614  0.02168  0.78970  1.0000
  H   H2025     1.0  0.89179  0.29134  0.65071  1.0000
  H   H2026     1.0  0.78574  0.08386  0.96622  1.0000
  H   H2027     1.0  0.93301  0.31707  0.81431  1.0000
  H   H2028     1.0  0.76093  0.11509  0.96687  1.0000
  H   H2029     1.0  0.80054  0.10186  0.91891  1.0000
  H   H2030     1.0  0.75175  0.02129  0.84877  1.0000
  H   H2031     1.0  0.77281  0.01981  0.81624  1.0000
  C   C1278     1.0  0.85372  0.30675  0.65268  1.0000
  C   C1279     1.0  0.82925  0.10450  0.94046  1.0000
  H   H2032     1.0  0.83717  0.11857  0.93204  1.0000
  C   C1280     1.0  0.87342  0.32087  0.67665  1.0000
  H   H2033     1.0  0.75499  0.02379  0.96141  1.0000
  C   C1281     1.0  0.73780  0.00075  0.82029  1.0000
  H   H2034     1.0  0.92577  0.16269  0.98147  1.0000
  C   C1282     1.0  0.92524  0.32234  0.82722  1.0000
  Fe  Fe252     1.0  0.92604  0.33924  0.18703  1.0000
  H   H2035     1.0  0.85387  0.61643  0.01962  1.0000
  Fe  Fe253     1.0  0.91727  0.36461  0.21908  1.0000
  S   S504      1.0  0.92235  0.34640  0.24750  1.0000
  S   S505      1.0  0.90777  0.38833  0.23022  1.0000
  Fe  Fe254     1.0  0.94692  0.34513  0.22419  1.0000
  S   S506      1.0  0.94277  0.36481  0.19647  1.0000
  S   S507      1.0  0.90006  0.34129  0.20681  1.0000
  S   S508      1.0  0.94381  0.46802  0.17439  1.0000
  C   C1283     1.0  0.89905  0.49395  0.27121  1.0000
  H   H2036     1.0  0.90510  0.47170  0.20401  1.0000
  C   C1284     1.0  0.88218  0.49297  0.28398  1.0000
  H   H2037     1.0  0.92135  0.48149  0.26726  1.0000
  H   H2038     1.0  0.86781  0.48004  0.20383  1.0000
  C   C1285     1.0  0.91808  0.41035  0.21461  1.0000
  C   C1286     1.0  0.91826  0.42579  0.22452  1.0000
  C   C1287     1.0  0.92668  0.44354  0.21258  1.0000
  C   C1288     1.0  0.93436  0.44597  0.19041  1.0000
  C   C1289     1.0  0.93418  0.43050  0.18054  1.0000
  C   C1290     1.0  0.92626  0.41273  0.19266  1.0000
  H   H2039     1.0  0.91206  0.42399  0.24155  1.0000
  H   H2040     1.0  0.92704  0.45532  0.22042  1.0000
  H   H2041     1.0  0.93326  0.61452  0.98381  1.0000
  H   H2042     1.0  0.92620  0.40091  0.18486  1.0000
  S   S509      1.0  0.94958  0.49202  0.22549  1.0000
  N   N129      1.0  0.87848  0.46184  0.22444  1.0000
  H   H2043     1.0  0.94158  0.39041  0.24340  1.0000
  H   H2044     1.0  0.85451  0.45651  0.20958  1.0000
  H   H2045     1.0  0.89699  0.48874  0.21649  1.0000
  H   H2046     1.0  0.88668  0.43954  0.21216  1.0000
  C   C1291     1.0  0.87451  0.47888  0.30220  1.0000
  C   C1292     1.0  0.86991  0.33796  0.27324  1.0000
  H   H2047     1.0  0.90797  0.45673  0.29967  1.0000
  C   C1293     1.0  0.84958  0.35201  0.29344  1.0000
  H   H2048     1.0  0.87277  0.62835  0.08919  1.0000
  H   H2049     1.0  0.85840  0.32641  0.27166  1.0000
  C   C1294     1.0  0.89719  0.47409  0.21917  1.0000
  C   C1295     1.0  0.90070  0.46679  0.29525  1.0000
  S   S510      1.0  0.96534  0.56353  0.15815  1.0000
  H   H2050     1.0  0.94013  0.43228  0.16339  1.0000
  H   H2051     1.0  0.83734  0.34082  0.29291  1.0000
  H   H2052     1.0  0.96068  0.43570  0.25808  1.0000
  H   H2053     1.0  0.95523  0.41970  0.21707  1.0000
  C   C1296     1.0  0.85669  0.62774  0.02845  1.0000
  N   N130      1.0  0.86599  0.34515  0.29362  1.0000
  H   H2054     1.0  0.86541  0.43288  0.23117  1.0000
  S   S511      1.0  0.97408  0.51623  0.17846  1.0000
  C   C1297     1.0  0.86868  0.46557  0.20630  1.0000
  H   H2055     1.0  0.85441  0.45680  0.24909  1.0000
  C   C1298     1.0  0.87929  0.44254  0.22728  1.0000
  H   H2056     1.0  0.87579  0.46332  0.19054  1.0000
  C   C1299     1.0  0.86883  0.46526  0.24496  1.0000
  C   C1300     1.0  0.95382  0.42081  0.25994  1.0000
  H   H2057     1.0  0.91044  0.63761  0.98902  1.0000
  H   H2058     1.0  0.95236  0.38473  0.26617  1.0000
  H   H2059     1.0  0.87249  0.34875  0.25840  1.0000
  C   C1301     1.0  0.87860  0.64957  0.04331  1.0000
  H   H2060     1.0  0.90487  0.47217  0.23276  1.0000
  H   H2061     1.0  0.88546  0.62912  0.02572  1.0000
  H   H2062     1.0  0.88657  0.43934  0.24091  1.0000
  N   N131      1.0  0.96487  0.41151  0.24655  1.0000
  C   C1302     1.0  0.90830  0.48080  0.27689  1.0000
  H   H2063     1.0  0.87552  0.46193  0.25912  1.0000
  S   S512      1.0  0.90762  0.51132  0.24785  1.0000
  H   H2064     1.0  0.98053  0.40662  0.27170  1.0000
  C   C1303     1.0  0.95495  0.39198  0.24889  1.0000
  H   H2065     1.0  0.86878  0.47995  0.24376  1.0000
  H   H2066     1.0  0.97585  0.43508  0.22076  1.0000
  H   H2067     1.0  0.87493  0.50308  0.27963  1.0000
  C   C1304     1.0  0.87467  0.63491  0.03194  1.0000
  S   S513      1.0  0.75841  0.58573  0.98562  1.0000
  N   N132      1.0  0.88538  0.60627  0.09474  1.0000
  Fe  Fe255     1.0  0.75443  0.63742  0.02936  1.0000
  Fe  Fe256     1.0  0.78905  0.62404  0.03548  1.0000
  S   S514      1.0  0.77239  0.59463  0.04050  1.0000
  S   S515      1.0  0.81985  0.62530  0.03118  1.0000
  Fe  Fe257     1.0  0.75991  0.60343  0.01190  1.0000
  H   H2068     1.0  0.89847  0.61813  0.11965  1.0000
  Fe  Fe258     1.0  0.75020  0.60248  0.06112  1.0000
  S   S516      1.0  0.77714  0.63241  0.00577  1.0000
  S   S517      1.0  0.76751  0.63146  0.05882  1.0000
  Fe  Fe259     1.0  0.95630  0.53559  0.18048  1.0000
  S   S518      1.0  0.95765  0.53704  0.21591  1.0000
  Fe  Fe260     1.0  0.97400  0.51644  0.21419  1.0000
  H   H2069     1.0  0.89454  0.61998  0.06139  1.0000
  H   H2070     1.0  0.88478  0.37153  0.28047  1.0000
  Fe  Fe261     1.0  0.93310  0.51265  0.22383  1.0000
  H   H2071     1.0  0.86911  0.57827  0.10217  1.0000
  C   C1305     1.0  0.88087  0.58740  0.10728  1.0000
  H   H2072     1.0  0.87734  0.58713  0.12520  1.0000
  S   S519      1.0  0.94293  0.64403  0.06949  1.0000
  Fe  Fe262     1.0  0.94828  0.49348  0.18979  1.0000
  C   C1306     1.0  0.96821  0.42036  0.22327  1.0000
  S   S520      1.0  0.92824  0.62568  0.02811  1.0000
  H   H2073     1.0  0.97365  0.59814  0.12945  1.0000
  C   C1307     1.0  0.84622  0.64961  0.04769  1.0000
  S   S521      1.0  0.97123  0.63274  0.03300  1.0000
  H   H2074     1.0  0.96274  0.38455  0.23882  1.0000
  Fe  Fe263     1.0  0.95534  0.64197  0.00827  1.0000
  H   H2075     1.0  0.90484  0.63218  0.09288  1.0000
  Fe  Fe264     1.0  0.94404  0.61918  0.05460  1.0000
  S   S522      1.0  0.93341  0.59037  0.07458  1.0000
  S   S523      1.0  0.97385  0.34835  0.23627  1.0000
  C   C1308     1.0  0.86964  0.61411  0.09861  1.0000
  C   C1309     1.0  0.88990  0.60588  0.07112  1.0000
  H   H2076     1.0  0.91349  0.61245  0.09868  1.0000
  H   H2077     1.0  0.85741  0.60588  0.09334  1.0000
  H   H2078     1.0  0.89268  0.58132  0.10466  1.0000
  H   H2079     1.0  0.86585  0.61475  0.11625  1.0000
  H   H2080     1.0  0.87795  0.59825  0.06484  1.0000
  C   C1310     1.0  0.90124  0.61776  0.10181  1.0000
  S   S524      1.0  0.93031  0.51281  0.18840  1.0000
  H   H2081     1.0  0.90110  0.59920  0.06765  1.0000
  C   C1311     1.0  0.95598  0.57066  0.13519  1.0000
  C   C1312     1.0  0.94205  0.55877  0.12787  1.0000
  C   C1313     1.0  0.93526  0.56500  0.10927  1.0000
  C   C1314     1.0  0.94235  0.58312  0.09785  1.0000
  C   C1315     1.0  0.95619  0.59503  0.10526  1.0000
  C   C1316     1.0  0.96296  0.58881  0.12385  1.0000
  H   H2082     1.0  0.93661  0.54476  0.13643  1.0000
  H   H2083     1.0  0.92459  0.55569  0.10360  1.0000
  H   H2084     1.0  0.96172  0.60902  0.09664  1.0000
  C   C1317     1.0  0.84229  0.63499  0.03628  1.0000
  H   H2085     1.0  0.88226  0.33273  0.27286  1.0000
  H   H2086     1.0  0.87922  0.36624  0.30998  1.0000
  H   H2087     1.0  0.74791  0.52754  0.03031  1.0000
  S   S525      1.0  0.92626  0.33422  0.15203  1.0000
  C   C1318     1.0  0.98249  0.41290  0.25411  1.0000
  H   H2088     1.0  0.97624  0.41353  0.21263  1.0000
  C   C1319     1.0  0.88379  0.46578  0.30794  1.0000
  H   H2089     1.0  0.95135  0.41472  0.27766  1.0000
  Fe  Fe265     1.0  0.92804  0.65107  0.04205  1.0000
  H   H2090     1.0  0.75034  0.56018  0.03103  1.0000
  H   H2091     1.0  0.85140  0.36305  0.27909  1.0000
  H   H2092     1.0  0.86142  0.47819  0.31179  1.0000
  H   H2093     1.0  0.73829  0.46235  0.25510  1.0000
  H   H2094     1.0  0.84631  0.35761  0.30857  1.0000
  H   H2095     1.0  0.74001  0.54643  0.99967  1.0000
  C   C1320     1.0  0.86274  0.33037  0.31283  1.0000
  H   H2096     1.0  0.97981  0.37711  0.19835  1.0000
  H   H2097     1.0  0.83540  0.65541  0.05382  1.0000
  H   H2098     1.0  0.94027  0.41957  0.25499  1.0000
  H   H2099     1.0  0.89431  0.35543  0.29535  1.0000
  C   C1321     1.0  0.88177  0.36028  0.29494  1.0000
  C   C1322     1.0  0.86423  0.65684  0.05110  1.0000
  C   C1323     1.0  0.91635  0.65274  0.98586  1.0000
  H   H2100     1.0  0.91392  0.65767  0.00168  1.0000
  Fe  Fe266     1.0  0.96947  0.65841  0.04610  1.0000
  S   S526      1.0  0.73637  0.60880  0.03293  1.0000
  Fe  Fe267     1.0  0.81042  0.45414  0.35582  1.0000
  H   H2101     1.0  0.91431  0.49517  0.39192  1.0000
  Fe  Fe268     1.0  0.81506  0.41998  0.38211  1.0000
  S   S527      1.0  0.84295  0.43385  0.38767  1.0000
  S   S528      1.0  0.80062  0.39088  0.39795  1.0000
  Fe  Fe269     1.0  0.83074  0.45684  0.39438  1.0000
  S   S529      1.0  0.83629  0.47356  0.42115  1.0000
  S   S530      1.0  0.80237  0.44200  0.39159  1.0000
  H   H2102     1.0  0.76439  0.34184  0.62440  1.0000
  S   S531      1.0  0.81240  0.43030  0.56635  1.0000
  S   S532      1.0  0.82710  0.45100  0.60580  1.0000
  Fe  Fe270     1.0  0.82787  0.42501  0.59333  1.0000
  S   S533      1.0  0.82142  0.39769  0.61544  1.0000
  C   C1324     1.0  0.80111  0.45691  0.51946  1.0000
  H   H2103     1.0  0.86730  0.36421  0.57704  1.0000
  H   H2104     1.0  0.79622  0.45782  0.53676  1.0000
  C   C1325     1.0  0.75736  0.46880  0.57104  1.0000
  H   H2105     1.0  0.80539  0.47109  0.50983  1.0000
  C   C1326     1.0  0.82425  0.38111  0.59952  1.0000
  C   C1327     1.0  0.82290  0.36319  0.60965  1.0000
  C   C1328     1.0  0.82502  0.34988  0.59684  1.0000
  C   C1329     1.0  0.82819  0.35441  0.57395  1.0000
  C   C1330     1.0  0.82971  0.37235  0.56390  1.0000
  C   C1331     1.0  0.82784  0.38569  0.57665  1.0000
  H   H2106     1.0  0.82032  0.35968  0.62736  1.0000
  H   H2107     1.0  0.84418  0.52212  0.57074  1.0000
  H   H2108     1.0  0.83237  0.37599  0.54618  1.0000
  H   H2109     1.0  0.82913  0.39953  0.56868  1.0000
  H   H2110     1.0  0.81806  0.48520  0.61688  1.0000
  H   H2111     1.0  0.83566  0.38298  0.44628  1.0000
  C   C1332     1.0  0.84095  0.47237  0.46394  1.0000
  C   C1333     1.0  0.84296  0.46382  0.48452  1.0000
  H   H2112     1.0  0.84460  0.47153  0.49772  1.0000
  C   C1334     1.0  0.80513  0.37464  0.38218  1.0000
  C   C1335     1.0  0.79519  0.35622  0.38867  1.0000
  C   C1336     1.0  0.79973  0.34281  0.37742  1.0000
  C   C1337     1.0  0.81388  0.34786  0.35927  1.0000
  C   C1338     1.0  0.82344  0.36635  0.35236  1.0000
  C   C1339     1.0  0.81921  0.37971  0.36395  1.0000
  H   H2113     1.0  0.78410  0.35226  0.40255  1.0000
  H   H2114     1.0  0.81346  0.45171  0.51933  1.0000
  H   H2115     1.0  0.82701  0.39387  0.35895  1.0000
  C   C1340     1.0  0.91044  0.49938  0.37587  1.0000
  H   H2116     1.0  0.84327  0.34525  0.41636  1.0000
  H   H2117     1.0  0.83281  0.38253  0.41835  1.0000
  H   H2118     1.0  0.79786  0.45879  0.47732  1.0000
  C   C1341     1.0  0.74158  0.43177  0.41423  1.0000
  C   C1342     1.0  0.76710  0.44100  0.57733  1.0000
  H   H2119     1.0  0.77703  0.43398  0.58183  1.0000
  H   H2120     1.0  0.75890  0.44222  0.50685  1.0000
  C   C1343     1.0  0.77107  0.45386  0.33632  1.0000
  C   C1344     1.0  0.88942  0.49214  0.35102  1.0000
  Fe  Fe271     1.0  0.84778  0.44684  0.35204  1.0000
  N   N133      1.0  0.82639  0.35597  0.43879  1.0000
  H   H2121     1.0  0.81991  0.33217  0.42349  1.0000
  H   H2122     1.0  0.82875  0.49528  0.63779  1.0000
  C   C1345     1.0  0.83238  0.34692  0.45782  1.0000
  C   C1346     1.0  0.80687  0.35521  0.44475  1.0000
  C   C1347     1.0  0.73756  0.43989  0.56668  1.0000
  C   C1348     1.0  0.83103  0.49376  0.62027  1.0000
  C   C1349     1.0  0.82901  0.34638  0.42008  1.0000
  H   H2123     1.0  0.80194  0.36218  0.43097  1.0000
  H   H2124     1.0  0.78565  0.34756  0.60562  1.0000
  H   H2125     1.0  0.85322  0.33880  0.62161  1.0000
  H   H2126     1.0  0.87496  0.49760  0.39030  1.0000
  S   S534      1.0  0.82004  0.33113  0.34550  1.0000
  H   H2127     1.0  0.90088  0.36703  0.61515  1.0000
  C   C1350     1.0  0.83723  0.37532  0.43255  1.0000
  C   C1351     1.0  0.74957  0.42392  0.34084  1.0000
  H   H2128     1.0  0.86533  0.51514  0.60787  1.0000
  C   C1352     1.0  0.85442  0.52241  0.61033  1.0000
  H   H2129     1.0  0.85590  0.46138  0.63322  1.0000
  C   C1353     1.0  0.87234  0.35180  0.58065  1.0000
  C   C1354     1.0  0.89869  0.49453  0.64615  1.0000
  S   S535      1.0  0.83043  0.33802  0.55747  1.0000
  H   H2130     1.0  0.82404  0.33245  0.46324  1.0000
  H   H2131     1.0  0.80563  0.43901  0.48541  1.0000
  H   H2132     1.0  0.89053  0.33274  0.62155  1.0000
  H   H2133     1.0  0.90798  0.51318  0.37577  1.0000
  H   H2134     1.0  0.77764  0.42550  0.54080  1.0000
  C   C1355     1.0  0.86776  0.47075  0.63666  1.0000
  C   C1356     1.0  0.83894  0.46250  0.44666  1.0000
  S   S536      1.0  0.83789  0.47112  0.35918  1.0000
  C   C1357     1.0  0.77077  0.45998  0.57593  1.0000
  S   S537      1.0  0.82078  0.43084  0.34590  1.0000
  S   S538      1.0  0.85553  0.43649  0.57237  1.0000
  Fe  Fe272     1.0  0.81432  0.45760  0.57663  1.0000
  Fe  Fe273     1.0  0.84006  0.44357  0.54582  1.0000
  C   C1358     1.0  0.84305  0.44536  0.48785  1.0000
  C   C1359     1.0  0.83909  0.44407  0.44999  1.0000
  S   S539      1.0  0.84479  0.43373  0.51348  1.0000
  S   S540      1.0  0.79253  0.47291  0.57850  1.0000
  C   C1360     1.0  0.84129  0.43559  0.47047  1.0000
  H   H2135     1.0  0.83752  0.43634  0.43681  1.0000
  S   S541      1.0  0.87491  0.44830  0.33115  1.0000
  C   C1361     1.0  0.83985  0.50889  0.58246  1.0000
  H   H2136     1.0  0.87011  0.35069  0.63551  1.0000
  H   H2137     1.0  0.86623  0.47411  0.38814  1.0000
  H   H2138     1.0  0.84139  0.42131  0.47297  1.0000
  H   H2139     1.0  0.74822  0.41643  0.57283  1.0000
  H   H2140     1.0  0.84149  0.48599  0.61824  1.0000
  C   C1362     1.0  0.76701  0.43475  0.34175  1.0000
  H   H2141     1.0  0.76006  0.48349  0.57006  1.0000
  C   C1363     1.0  0.89512  0.36726  0.59972  1.0000
  C   C1364     1.0  0.79358  0.44469  0.48724  1.0000
  Fe  Fe274     1.0  0.85371  0.46314  0.58271  1.0000
  N   N134      1.0  0.87955  0.35107  0.60138  1.0000
  N   N135      1.0  0.83706  0.51172  0.60545  1.0000
  H   H2142     1.0  0.74648  0.40914  0.34503  1.0000
  C   C1365     1.0  0.75065  0.43103  0.57251  1.0000
  H   H2143     1.0  0.85292  0.52459  0.62764  1.0000
  C   C1366     1.0  0.75773  0.46205  0.32979  1.0000
  N   N136      1.0  0.89411  0.48595  0.37241  1.0000
  H   H2144     1.0  0.83442  0.37036  0.33840  1.0000
  C   C1367     1.0  0.86506  0.35101  0.61963  1.0000
  C   C1368     1.0  0.89596  0.49459  0.62430  1.0000
  S   S542      1.0  0.87710  0.48364  0.59191  1.0000
  C   C1369     1.0  0.87864  0.48438  0.39012  1.0000
  C   C1370     1.0  0.77132  0.33882  0.60903  1.0000
  C   C1371     1.0  0.82290  0.52169  0.60872  1.0000
  N   N137      1.0  0.78687  0.44477  0.51054  1.0000
  H   H2145     1.0  0.78295  0.43617  0.47979  1.0000
  S   S543      1.0  0.84090  0.47149  0.55387  1.0000
  C   C1372     1.0  0.78252  0.42592  0.52312  1.0000
  H   H2146     1.0  0.88162  0.47989  0.40661  1.0000
  C   C1373     1.0  0.77031  0.45151  0.51237  1.0000
  H   H2147     1.0  0.92236  0.50084  0.36277  1.0000
  H   H2148     1.0  0.87719  0.48228  0.34792  1.0000
  H   H2149     1.0  0.79823  0.34079  0.44903  1.0000
  H   H2150     1.0  0.86071  0.33962  0.58133  1.0000
  S   S544      1.0  0.79255  0.46787  0.33778  1.0000
  H   H2151     1.0  0.77162  0.41638  0.51712  1.0000
  H   H2152     1.0  0.82713  0.50049  0.57834  1.0000
  H   H2153     1.0  0.76533  0.45240  0.52962  1.0000
  H   H2154     1.0  0.84095  0.48668  0.46139  1.0000
  H   H2155     1.0  0.79476  0.42044  0.52199  1.0000
  H   H2156     1.0  0.90632  0.36780  0.58609  1.0000
  H   H2157     1.0  0.83116  0.35407  0.47209  1.0000
  H   H2158     1.0  0.79210  0.32859  0.38259  1.0000
  H   H2159     1.0  0.80438  0.36209  0.45900  1.0000
  C   C1374     1.0  0.74072  0.45876  0.56648  1.0000
  H   H2160     1.0  0.77299  0.46546  0.50249  1.0000
  H   H2161     1.0  0.77732  0.42832  0.34655  1.0000
  H   H2162     1.0  0.89692  0.33391  0.59251  1.0000
  H   H2163     1.0  0.85200  0.37635  0.42776  1.0000
  H   H2164     1.0  0.73882  0.44818  0.37516  1.0000
  C   C1375     1.0  0.88051  0.48267  0.61946  1.0000
  H   H2165     1.0  0.88631  0.50569  0.35025  1.0000
  H   H2166     1.0  0.85993  0.36344  0.61685  1.0000
  H   H2167     1.0  0.76461  0.34337  0.59541  1.0000
  H   H2168     1.0  0.75332  0.43249  0.40113  1.0000
  H   H2169     1.0  0.90590  0.50386  0.61109  1.0000
  C   C1376     1.0  0.88564  0.33418  0.60559  1.0000
  H   H2170     1.0  0.85944  0.53606  0.59945  1.0000
  H   H2171     1.0  0.74514  0.44437  0.42156  1.0000
  C   C1377     1.0  0.89788  0.46783  0.37262  1.0000
  H   H2172     1.0  0.89093  0.38024  0.59665  1.0000
  H   H2173     1.0  0.82425  0.33621  0.60468  1.0000
  H   H2174     1.0  0.90067  0.49331  0.33716  1.0000
  H   H2175     1.0  0.85063  0.50161  0.57936  1.0000
  H   H2176     1.0  0.88554  0.45724  0.37095  1.0000
  H   H2177     1.0  0.90208  0.46299  0.38821  1.0000
  H   H2178     1.0  0.82611  0.35367  0.40493  1.0000
  H   H2179     1.0  0.84685  0.34648  0.45374  1.0000
  H   H2180     1.0  0.90881  0.46818  0.35875  1.0000
  H   H2181     1.0  0.82697  0.53533  0.59778  1.0000
  H   H2182     1.0  0.80970  0.51384  0.60506  1.0000
  H   H2183     1.0  0.88290  0.35198  0.56646  1.0000
  C   C1378     1.0  0.74019  0.45126  0.32946  1.0000
  H   H2184     1.0  0.74038  0.41974  0.42712  1.0000
  H   H2185     1.0  0.82033  0.52395  0.62595  1.0000
  H   H2186     1.0  0.86021  0.33546  0.32852  1.0000
  H   H2187     1.0  0.76089  0.47683  0.32540  1.0000
  Fe  Fe275     1.0  0.91383  0.36307  0.74784  1.0000
  S   S545      1.0  0.91562  0.37086  0.71179  1.0000
  S   S546      1.0  0.90786  0.38218  0.77057  1.0000
  H   H2188     1.0  0.96079  0.63191  0.71585  1.0000
  H   H2189     1.0  0.79792  0.59186  0.77617  1.0000
  Fe  Fe276     1.0  0.94166  0.36241  0.70891  1.0000
  S   S547      1.0  0.73787  0.57898  0.86031  1.0000
  Fe  Fe277     1.0  0.90182  0.34122  0.71246  1.0000
  C   C1379     1.0  0.91504  0.44454  0.69523  1.0000
  S   S548      1.0  0.94077  0.35662  0.74511  1.0000
  H   H2190     1.0  0.92242  0.44180  0.67998  1.0000
  S   S549      1.0  0.91431  0.64495  0.86853  1.0000
  S   S550      1.0  0.95601  0.46372  0.73524  1.0000
  H   H2191     1.0  0.97695  0.35821  0.71810  1.0000
  H   H2192     1.0  0.94440  0.60740  0.76110  1.0000
  H   H2193     1.0  0.80116  0.59103  0.89080  1.0000
  H   H2194     1.0  0.92418  0.44498  0.70762  1.0000
  C   C1380     1.0  0.92124  0.40484  0.76081  1.0000
  C   C1381     1.0  0.91626  0.41943  0.76911  1.0000
  C   C1382     1.0  0.92657  0.43762  0.76095  1.0000
  C   C1383     1.0  0.94211  0.44124  0.74474  1.0000
  C   C1384     1.0  0.94707  0.42666  0.73644  1.0000
  C   C1385     1.0  0.93665  0.40852  0.74438  1.0000
  H   H2195     1.0  0.90431  0.41666  0.78176  1.0000
  H   H2196     1.0  0.92269  0.44881  0.76750  1.0000
  H   H2197     1.0  0.95880  0.42938  0.72352  1.0000
  H   H2198     1.0  0.94048  0.39740  0.73763  1.0000
  N   N138      1.0  0.89746  0.43052  0.70334  1.0000
  C   C1386     1.0  0.95663  0.58686  0.73421  1.0000
  S   S551      1.0  0.88822  0.48206  0.69116  1.0000
  C   C1387     1.0  0.98454  0.55925  0.71632  1.0000
  C   C1388     1.0  0.88835  0.43463  0.72374  1.0000
  H   H2199     1.0  0.86012  0.46193  0.67166  1.0000
  H   H2200     1.0  0.94405  0.34837  0.79334  1.0000
  S   S552      1.0  0.97381  0.54456  0.68099  1.0000
  H   H2201     1.0  0.97707  0.43686  0.76534  1.0000
  S   S553      1.0  0.96583  0.38292  0.68700  1.0000
  C   C1389     1.0  0.91161  0.65470  0.94836  1.0000
  H   H2202     1.0  0.77255  0.55933  0.82683  1.0000
  H   H2203     1.0  0.89693  0.43467  0.73670  1.0000
  H   H2204     1.0  0.96623  0.65014  0.92565  1.0000
  N   N139      1.0  0.96392  0.60681  0.73307  1.0000
  S   S554      1.0  0.73867  0.65662  0.81811  1.0000
  H   H2205     1.0  0.90957  0.41152  0.72039  1.0000
  C   C1390     1.0  0.74625  0.59014  0.96447  1.0000
  H   H2206     1.0  0.93137  0.65542  0.98080  1.0000
  C   C1391     1.0  0.88577  0.48277  0.66334  1.0000
  H   H2207     1.0  0.80811  0.58625  0.91675  1.0000
  H   H2208     1.0  0.87229  0.42032  0.69208  1.0000
  H   H2209     1.0  0.91811  0.34927  0.84776  1.0000
  N   N140      1.0  0.91967  0.33854  0.81773  1.0000
  H   H2210     1.0  0.89220  0.42795  0.67084  1.0000
  C   C1392     1.0  0.90076  0.41220  0.70780  1.0000
  H   H2211     1.0  0.88159  0.64337  0.97998  1.0000
  H   H2212     1.0  0.79107  0.56006  0.76829  1.0000
  C   C1393     1.0  0.88567  0.43075  0.68657  1.0000
  Fe  Fe278     1.0  0.92505  0.32798  0.74365  1.0000
  Fe  Fe279     1.0  0.94119  0.48574  0.72980  1.0000
  N   N141      1.0  0.77475  0.56966  0.79246  1.0000
  H   H2213     1.0  0.96435  0.62657  0.75466  1.0000
  H   H2214     1.0  0.79882  0.58303  0.80407  1.0000
  S   S555      1.0  0.91176  0.48473  0.73992  1.0000
  H   H2215     1.0  0.95895  0.61356  0.70038  1.0000
  C   C1394     1.0  0.93588  0.61898  0.96624  1.0000
  S   S556      1.0  0.75111  0.62288  0.86255  1.0000
  H   H2216     1.0  0.77418  0.61228  0.90616  1.0000
  S   S557      1.0  0.75066  0.60955  0.81533  1.0000
  Fe  Fe280     1.0  0.76232  0.60282  0.84555  1.0000
  S   S558      1.0  0.78923  0.59491  0.84705  1.0000
  H   H2217     1.0  0.79035  0.63448  0.90020  1.0000
  H   H2218     1.0  0.93407  0.32561  0.83959  1.0000
  H   H2219     1.0  0.87505  0.42433  0.73039  1.0000
  H   H2220     1.0  0.98327  0.41353  0.72991  1.0000
  H   H2221     1.0  0.92710  0.58526  0.88283  1.0000
  Fe  Fe281     1.0  0.92191  0.51402  0.74463  1.0000
  S   S559      1.0  0.92091  0.52593  0.71000  1.0000
  S   S560      1.0  0.90744  0.52424  0.77268  1.0000
  C   C1395     1.0  0.78863  0.61977  0.89906  1.0000
  Fe  Fe282     1.0  0.94982  0.52376  0.70296  1.0000
  H   H2222     1.0  0.75647  0.58527  0.78242  1.0000
  H   H2223     1.0  0.91872  0.57257  0.85036  1.0000
  S   S561      1.0  0.95142  0.51377  0.73787  1.0000
  Fe  Fe283     1.0  0.89938  0.63178  0.84366  1.0000
  S   S562      1.0  0.90181  0.60342  0.85569  1.0000
  H   H2224     1.0  0.91516  0.32866  0.78798  1.0000
  H   H2225     1.0  0.93822  0.53494  0.87111  1.0000
  S   S563      1.0  0.94521  0.62263  0.85686  1.0000
  H   H2226     1.0  0.89709  0.33447  0.84400  1.0000
  Fe  Fe284     1.0  0.92866  0.61161  0.83217  1.0000
  S   S564      1.0  0.94252  0.59495  0.81113  1.0000
  Fe  Fe285     1.0  0.91816  0.61711  0.87900  1.0000
  S   S565      1.0  0.91275  0.60411  0.91474  1.0000
  S   S566      1.0  0.92537  0.63918  0.81838  1.0000
  H   H2227     1.0  0.96576  0.60458  0.76730  1.0000
  H   H2228     1.0  0.94055  0.61308  0.72183  1.0000
  H   H2229     1.0  0.96222  0.57284  0.87052  1.0000
  Fe  Fe286     1.0  0.91278  0.49668  0.70464  1.0000
  S   S567      1.0  0.92826  0.33321  0.70662  1.0000
  C   C1396     1.0  0.91734  0.54414  0.78283  1.0000
  C   C1397     1.0  0.93626  0.55106  0.78021  1.0000
  C   C1398     1.0  0.94368  0.56645  0.78933  1.0000
  C   C1399     1.0  0.93231  0.57537  0.80062  1.0000
  C   C1400     1.0  0.91338  0.56851  0.80322  1.0000
  C   C1401     1.0  0.90596  0.55283  0.79455  1.0000
  H   H2230     1.0  0.94515  0.54429  0.77155  1.0000
  H   H2231     1.0  0.95834  0.57146  0.78762  1.0000
  H   H2232     1.0  0.90447  0.57526  0.81186  1.0000
  H   H2233     1.0  0.89130  0.54748  0.79672  1.0000
  C   C1402     1.0  0.92765  0.61547  0.93050  1.0000
  C   C1403     1.0  0.94276  0.63004  0.92058  1.0000
  C   C1404     1.0  0.95452  0.63891  0.93344  1.0000
  C   C1405     1.0  0.95105  0.63348  0.95630  1.0000
  H   H2234     1.0  0.88563  0.44837  0.72093  1.0000
  C   C1406     1.0  0.92426  0.60993  0.95335  1.0000
  H   H2235     1.0  0.94545  0.63447  0.90298  1.0000
  H   H2236     1.0  0.75259  0.55034  0.81526  1.0000
  H   H2237     1.0  0.78448  0.58444  0.91547  1.0000
  H   H2238     1.0  0.91264  0.59860  0.96108  1.0000
  C   C1407     1.0  0.81251  0.60767  0.84372  1.0000
  C   C1408     1.0  0.82568  0.59821  0.84788  1.0000
  C   C1409     1.0  0.84424  0.60768  0.84605  1.0000
  C   C1410     1.0  0.84994  0.62678  0.83981  1.0000
  C   C1411     1.0  0.83674  0.63621  0.83561  1.0000
  C   C1412     1.0  0.81815  0.62677  0.83761  1.0000
  H   H2239     1.0  0.82153  0.58344  0.85262  1.0000
  H   H2240     1.0  0.85418  0.60020  0.84930  1.0000
  C   C1413     1.0  0.98397  0.61199  0.72612  1.0000
  H   H2241     1.0  0.80828  0.63429  0.83428  1.0000
  H   H2242     1.0  0.74100  0.65595  0.88169  1.0000
  H   H2243     1.0  0.90546  0.63962  0.95079  1.0000
  C   C1414     1.0  0.93604  0.35319  0.80648  1.0000
  H   H2244     1.0  0.75756  0.57318  0.82065  1.0000
  H   H2245     1.0  0.91296  0.45849  0.69144  1.0000
  H   H2246     1.0  0.90768  0.40865  0.69278  1.0000
  H   H2247     1.0  0.83053  0.61689  0.90860  1.0000
  H   H2248     1.0  0.90578  0.55148  0.86772  1.0000
  S   S568      1.0  0.87315  0.63957  0.83717  1.0000
  H   H2249     1.0  0.82304  0.63716  0.90158  1.0000
  H   H2250     1.0  0.97141  0.55133  0.72557  1.0000
  H   H2251     1.0  0.90307  0.34519  0.79443  1.0000
  S   S569      1.0  0.94162  0.49568  0.69431  1.0000
  H   H2252     1.0  0.95143  0.58563  0.85293  1.0000
  H   H2253     1.0  0.94521  0.35775  0.81810  1.0000
  N   N142      1.0  0.80147  0.61206  0.91046  1.0000
  C   C1415     1.0  0.95141  0.57149  0.86022  1.0000
  H   H2254     1.0  0.95544  0.56474  0.84634  1.0000
  H   H2255     1.0  0.82348  0.62151  0.88280  1.0000
  C   C1416     1.0  0.82044  0.62236  0.90048  1.0000
  H   H2256     1.0  0.88780  0.40126  0.71402  1.0000
  H   H2257     1.0  0.79075  0.61881  0.88132  1.0000
  H   H2258     1.0  0.91443  0.56430  0.90044  1.0000
  C   C1417     1.0  0.79812  0.61350  0.93393  1.0000
  H   H2259     1.0  0.80747  0.60769  0.94311  1.0000
  H   H2260     1.0  0.92070  0.53487  0.89342  1.0000
  C   C1418     1.0  0.78276  0.55529  0.78507  1.0000
  C   C1419     1.0  0.92802  0.57150  0.89024  1.0000
  N   N143      1.0  0.93331  0.56124  0.87316  1.0000
  H   H2261     1.0  0.92323  0.55146  0.84531  1.0000
  H   H2262     1.0  0.80008  0.62801  0.93619  1.0000
  H   H2263     1.0  0.93809  0.57375  0.90147  1.0000
  H   H2264     1.0  0.94428  0.54414  0.89487  1.0000
  C   C1420     1.0  0.79870  0.59258  0.90832  1.0000
  C   C1421     1.0  0.78952  0.58613  0.79274  1.0000
  C   C1422     1.0  0.74840  0.58196  0.94586  1.0000
  C   C1423     1.0  0.91964  0.55903  0.85855  1.0000
  C   C1424     1.0  0.93417  0.54298  0.88361  1.0000
  S   S570      1.0  0.89764  0.33398  0.74937  1.0000
  H   H2265     1.0  0.78393  0.60593  0.94202  1.0000
  H   H2266     1.0  0.77032  0.57958  0.76026  1.0000
  H   H2267     1.0  0.77196  0.54269  0.78468  1.0000
  Fe  Fe287     1.0  0.94053  0.64972  0.84454  1.0000
  H   H2268     1.0  0.97388  0.40556  0.75847  1.0000
  H   H2269     1.0  0.79183  0.55134  0.79623  1.0000
  H   H2270     1.0  0.78396  0.59717  0.79855  1.0000
  H   H2271     1.0  0.74053  0.57869  0.91446  1.0000
  H   H2272     1.0  0.88282  0.44435  0.68297  1.0000
  C   C1425     1.0  0.76393  0.56274  0.81478  1.0000
  H   H2273     1.0  0.75119  0.56240  0.77709  1.0000
  C   C1426     1.0  0.76274  0.57444  0.77733  1.0000
  S   S571      1.0  0.87771  0.33679  0.69456  1.0000
  C   C1427     1.0  0.90957  0.34523  0.83532  1.0000
  H   H2274     1.0  0.84098  0.65098  0.83069  1.0000
  S   S572      1.0  0.96563  0.64539  0.97201  1.0000
  H   H2275     1.0  0.96293  0.57893  0.74569  1.0000
  H   H2276     1.0  0.90515  0.35742  0.82856  1.0000
  C   C1428     1.0  0.95940  0.61157  0.75492  1.0000
  C   C1429     1.0  0.87026  0.47100  0.65847  1.0000
  H   H2277     1.0  0.93223  0.36539  0.79855  1.0000
  H   H2278     1.0  0.94159  0.58230  0.74009  1.0000
  C   C1430     1.0  0.95569  0.61680  0.71706  1.0000
  H   H2279     1.0  0.75735  0.57303  0.94480  1.0000
  C   C1431     1.0  0.90778  0.33339  0.80171  1.0000
  H   H2280     1.0  0.95944  0.58281  0.71790  1.0000
  H   H2281     1.0  0.98268  0.51166  0.70187  1.0000
  C   C1432     1.0  0.73890  0.58515  0.92869  1.0000
  H   H2282     1.0  0.92648  0.65721  0.94216  1.0000
  Fe  Fe288     1.0  0.73709  0.62750  0.83374  1.0000
  H   H2283     1.0  0.91068  0.50367  0.64968  1.0000
  C   C1433     1.0  0.88848  0.65834  0.97656  1.0000
  H   H2284     1.0  0.84762  0.32615  0.67263  1.0000
  H   H2285     1.0  0.98618  0.44584  0.73696  1.0000
  C   C1434     1.0  0.98607  0.38489  0.69758  1.0000
  H   H2286     1.0  0.88557  0.66366  0.99203  1.0000
  S   S573      1.0  0.95448  0.66819  0.02027  1.0000
  H   H2287     1.0  0.74594  0.67639  0.05759  1.0000
  H   H2288     1.0  0.74007  0.76070  0.00384  1.0000
  H   H2289     1.0  0.73717  0.71055  0.00943  1.0000
  H   H2290     1.0  0.74900  0.99006  0.09481  1.0000
  H   H2291     1.0  0.86701  0.66819  0.05987  1.0000
  S   S574      1.0  0.90108  0.65934  0.04824  1.0000
  H   H2292     1.0  0.75190  0.73263  0.01022  1.0000
  C   C1435     1.0  0.73741  0.72445  0.01317  1.0000
  S   S575      1.0  0.73963  0.65903  0.01941  1.0000
  C   C1436     1.0  0.74737  0.99061  0.94989  1.0000
  C   C1437     1.0  0.91697  0.68187  0.96489  1.0000
  S   S576      1.0  0.96283  0.67693  0.83586  1.0000
  H   H2293     1.0  0.74865  0.74558  0.97302  1.0000
  H   H2294     1.0  0.75475  0.96532  0.88065  1.0000
  C   C1438     1.0  0.74229  0.96916  0.87880  1.0000
  C   C1439     1.0  0.74099  0.98674  0.88184  1.0000
  H   H2295     1.0  0.98403  0.71300  0.81872  1.0000
  H   H2296     1.0  0.73973  0.98002  0.94155  1.0000
  N   N144      1.0  0.90833  0.66191  0.96889  1.0000
  H   H2297     1.0  0.91127  0.68930  0.95217  1.0000
  C   C1440     1.0  0.98522  0.68850  0.83933  1.0000
  H   H2298     1.0  0.74840  0.69518  0.81003  1.0000
  H   H2299     1.0  0.90575  0.66126  0.93511  1.0000
  H   H2300     1.0  0.93198  0.68497  0.95913  1.0000
  H   H2301     1.0  0.88191  0.66497  0.96415  1.0000
  H   H2302     1.0  0.75600  0.98423  0.95968  1.0000
  H   H2303     1.0  0.91486  0.68770  0.98013  1.0000
  H   H2304     1.0  0.73666  0.66098  0.90889  1.0000
