data_image0
_chemical_formula_structural       CFeS2H4FeHSH4C3H2C2FeCSHFeHNCHSH3C3H2C2SHNHCHCSC2H3CHCFeHCHSHCHSCHC4H4FeSFeSFe2SHSC2HSNHCHC2H2CHCH4NH3CHC3HCHCHCH2C3H2FeCH6SNH2CHCHCH3CNH2C2SFeHFeHSCNH2CHCHSCH2SHSC2SHC4FeHCHCHCH7S2HCH2SH5CH4CNH2CFeSC2HCS3Fe3SCH3SHCHC2SHCH2NCH3CH2CHCH2FeCSHSFe2S2CH2S3HC2HCH2CHCHC2H3SCH2C2NH3CHCH2CHSCH2CH2CHNCHCHCHCH3C2H5C2SC3H5C2NC3H3CH3C2H2S2CHFeHC2H2CS2FeCHSH4S2H4FeHCFeSH2CH3CH3CH2NC3H2SHCHCHCH2CHNCSCHFeCSC2H3SCHSC4HSH2CH3FeHFeHCH2SH2CHCH2SHFeHNCH2CH11C3HSFeHSFeSCSHFeSFeSH5SHC4H3NHC2HFeSCFeSCSFeSCSHSH2C2H3CSH2CH3FeSCHC2HCHCHNH2CH2CH5CHCH3CH2CH2C2H2CFeCSC2HS2HCHCH4C3HCH2NSHCH3NH3C2HCH3CSHCH2C3H4SC2H2FeHNCFeC2SHCHFeH4SHSH5C2FeS2HSH2C3FeSCH2CH4C2H3CHCSC2H6NC2H6C2SCFeSCFeCFeCHSCSHCHSHCH2NH4C2H4C2HCH3SC3H2Fe2SCHCS2H3C6HSHCH2NCHSCS2FeHCH3SH2SHFeC2H3CH2CNCHCH5NH3CH3CSFe3S2H2FeSHFeHCHC4H2SCSCSCH2NHSC2HSH5CSH4CHCHCFeH2CSHCS2CSFe2HSCFeH2C2H2CSHSCH3C2SFeC3H2CN2HC3H2CH4NHCH8CHCH6CH2CNFeC2SNCHNHCH2CHC2H3CHCH2CHCHCH5CHCH3CHFeSCFeSHFeCFeS4HC2H2CHS2C3HC2H5CH2CH6C
_chemical_formula_sum              "C320 Fe64 S128 H512 N32"
_cell_length_a       30.6472
_cell_length_b       22.5334
_cell_length_c       36.9256
_cell_angle_alpha    90.3935
_cell_angle_beta     89.9795
_cell_angle_gamma    90.1452

_space_group_name_H-M_alt    "P 1"
_space_group_IT_number       1

loop_
  _space_group_symop_operation_xyz
  'x, y, z'

loop_
  _atom_site_type_symbol
  _atom_site_label
  _atom_site_symmetry_multiplicity
  _atom_site_fract_x
  _atom_site_fract_y
  _atom_site_fract_z
  _atom_site_occupancy
  C   C1        1.0  0.35627  0.56666  0.09109  1.0000
  Fe  Fe1       1.0  0.42838  0.54303  0.16378  1.0000
  S   S1        1.0  0.36735  0.51687  0.19326  1.0000
  S   S2        1.0  0.43482  0.60666  0.11760  1.0000
  H   H1        1.0  0.32370  0.48721  0.26831  1.0000
  H   H2        1.0  0.37293  0.81518  0.18102  1.0000
  H   H3        1.0  0.58806  0.60935  0.13920  1.0000
  H   H4        1.0  0.35485  0.44391  0.12396  1.0000
  Fe  Fe2       1.0  0.40897  0.52481  0.24300  1.0000
  H   H5        1.0  0.36362  0.65377  0.16147  1.0000
  S   S3        1.0  0.46746  0.56007  0.21397  1.0000
  H   H6        1.0  0.33457  0.78922  0.21392  1.0000
  H   H7        1.0  0.53646  0.45719  0.11456  1.0000
  H   H8        1.0  0.43424  0.74870  0.16121  1.0000
  H   H9        1.0  0.46636  0.48880  0.08407  1.0000
  C   C2        1.0  0.59143  0.48561  0.19157  1.0000
  C   C3        1.0  0.57404  0.53189  0.17112  1.0000
  C   C4        1.0  0.60175  0.57309  0.15446  1.0000
  H   H10       1.0  0.53923  0.53601  0.16800  1.0000
  H   H11       1.0  0.34916  0.55198  0.11820  1.0000
  C   C5        1.0  0.39569  0.59540  0.08359  1.0000
  C   C6        1.0  0.55187  0.45412  0.08736  1.0000
  Fe  Fe3       1.0  0.48707  0.46489  0.20909  1.0000
  C   C7        1.0  0.37500  0.41166  0.07167  1.0000
  S   S4        1.0  0.45260  0.45029  0.15673  1.0000
  H   H12       1.0  0.35918  0.72651  0.14249  1.0000
  Fe  Fe4       1.0  0.39512  0.42486  0.19069  1.0000
  H   H13       1.0  0.58720  0.46468  0.09080  1.0000
  N   N1        1.0  0.53086  0.49456  0.06127  1.0000
  C   C8        1.0  0.32573  0.55693  0.06333  1.0000
  H   H14       1.0  0.43994  0.67732  0.18151  1.0000
  S   S5        1.0  0.43195  0.43040  0.24308  1.0000
  H   H15       1.0  0.29528  0.53452  0.06915  1.0000
  H   H16       1.0  0.31974  0.70192  0.17489  1.0000
  H   H17       1.0  0.47859  0.43275  0.05087  1.0000
  C   C9        1.0  0.28090  0.82865  0.10244  1.0000
  C   C10       1.0  0.27581  0.88566  0.08830  1.0000
  C   C11       1.0  0.35506  0.70064  0.16787  1.0000
  H   H18       1.0  0.51924  0.58820  0.05582  1.0000
  H   H19       1.0  0.38552  0.64146  0.22532  1.0000
  C   C12       1.0  0.40443  0.61485  0.04843  1.0000
  C   C13       1.0  0.42873  0.72351  0.18664  1.0000
  S   S6        1.0  0.55647  0.43462  0.21305  1.0000
  H   H20       1.0  0.45021  0.74276  0.20801  1.0000
  N   N2        1.0  0.38234  0.72484  0.19756  1.0000
  H   H21       1.0  0.34160  0.68838  0.23947  1.0000
  C   C14       1.0  0.28627  0.78029  0.07883  1.0000
  H   H22       1.0  0.39655  0.70482  0.25333  1.0000
  C   C15       1.0  0.37621  0.68846  0.23034  1.0000
  S   S7        1.0  0.28146  0.81810  0.14956  1.0000
  C   C16       1.0  0.36937  0.78674  0.20540  1.0000
  C   C17       1.0  0.27610  0.89435  0.05074  1.0000
  H   H23       1.0  0.29022  0.73604  0.08956  1.0000
  H   H24       1.0  0.38950  0.80677  0.22743  1.0000
  H   H25       1.0  0.52203  0.56273  0.10152  1.0000
  C   C18       1.0  0.63681  0.48031  0.19486  1.0000
  H   H26       1.0  0.37562  0.45507  0.05946  1.0000
  C   C19       1.0  0.48388  0.48019  0.05824  1.0000
  Fe  Fe5       1.0  0.28988  0.90577  0.17771  1.0000
  H   H27       1.0  0.57123  0.56939  0.07551  1.0000
  C   C20       1.0  0.53615  0.55649  0.07398  1.0000
  H   H28       1.0  0.15150  0.88043  0.23147  1.0000
  S   S8        1.0  0.38876  0.57226  0.29344  1.0000
  H   H29       1.0  0.35586  0.58502  0.36506  1.0000
  C   C21       1.0  0.44360  0.46943  0.35955  1.0000
  H   H30       1.0  0.41870  0.50493  0.35711  1.0000
  S   S9        1.0  0.22718  0.45800  0.37299  1.0000
  C   C22       1.0  0.27269  0.48749  0.35046  1.0000
  H   H31       1.0  0.26432  0.71651  0.48547  1.0000
  C   C23       1.0  0.34358  0.53971  0.31451  1.0000
  C   C24       1.0  0.33512  0.55379  0.35071  1.0000
  C   C25       1.0  0.30038  0.52682  0.36880  1.0000
  C   C26       1.0  0.28122  0.47289  0.31419  1.0000
  H   H32       1.0  0.45797  0.46262  0.33213  1.0000
  H   H33       1.0  0.61180  0.85237  0.49488  1.0000
  H   H34       1.0  0.26011  0.44204  0.29996  1.0000
  H   H35       1.0  0.42782  0.44276  0.42947  1.0000
  Fe  Fe6       1.0  0.27455  0.58524  0.47614  1.0000
  S   S10       1.0  0.27240  0.48642  0.47059  1.0000
  Fe  Fe7       1.0  0.17622  0.59875  0.47059  1.0000
  S   S11       1.0  0.16540  0.50076  0.46403  1.0000
  Fe  Fe8       1.0  0.21523  0.49297  0.50826  1.0000
  Fe  Fe9       1.0  0.22338  0.50384  0.42707  1.0000
  S   S12       1.0  0.22976  0.60282  0.42970  1.0000
  H   H36       1.0  0.36400  0.42354  0.34481  1.0000
  S   S13       1.0  0.22156  0.59127  0.51766  1.0000
  C   C27       1.0  0.40366  0.42609  0.40926  1.0000
  C   C28       1.0  0.24508  0.75514  0.49552  1.0000
  H   H37       1.0  0.29530  0.53664  0.39707  1.0000
  S   S14       1.0  0.33774  0.63483  0.47907  1.0000
  N   N3        1.0  0.26347  0.77930  0.52962  1.0000
  H   H38       1.0  0.56986  0.85136  0.52878  1.0000
  C   C29       1.0  0.39625  0.67289  0.52924  1.0000
  H   H39       1.0  0.14518  0.46312  0.33429  1.0000
  C   C30       1.0  0.31702  0.49861  0.29626  1.0000
  C   C31       1.0  0.57720  0.86439  0.50042  1.0000
  H   H40       1.0  0.41155  0.69652  0.50718  1.0000
  H   H41       1.0  0.32955  0.76084  0.51363  1.0000
  C   C32       1.0  0.30908  0.79836  0.52354  1.0000
  H   H42       1.0  0.31109  0.83437  0.50314  1.0000
  C   C33       1.0  0.36048  0.63590  0.52250  1.0000
  H   H43       1.0  0.21079  0.73960  0.49917  1.0000
  H   H44       1.0  0.46976  0.48676  0.37766  1.0000
  H   H45       1.0  0.15658  0.54006  0.38133  1.0000
  H   H46       1.0  0.55615  0.83677  0.48242  1.0000
  N   N4        1.0  0.42433  0.41407  0.37376  1.0000
  H   H47       1.0  0.24508  0.78895  0.47372  1.0000
  H   H48       1.0  0.37738  0.45997  0.40706  1.0000
  H   H49       1.0  0.23825  0.86723  0.52170  1.0000
  C   C34       1.0  0.23725  0.83067  0.54180  1.0000
  H   H50       1.0  0.26124  0.72161  0.79215  1.0000
  C   C35       1.0  0.25754  0.51936  0.63512  1.0000
  C   C36       1.0  0.33585  0.61600  0.76973  1.0000
  C   C37       1.0  0.35655  0.61272  0.58653  1.0000
  H   H51       1.0  0.48148  0.61722  0.60140  1.0000
  C   C38       1.0  0.24112  0.50385  0.60085  1.0000
  H   H52       1.0  0.27032  0.56347  0.64003  1.0000
  C   C39       1.0  0.45350  0.51505  0.63057  1.0000
  H   H53       1.0  0.46596  0.56630  0.56618  1.0000
  C   C40       1.0  0.49135  0.57578  0.58704  1.0000
  H   H54       1.0  0.60666  0.74990  0.77645  1.0000
  H   H55       1.0  0.51953  0.58145  0.65596  1.0000
  C   C41       1.0  0.58298  0.78792  0.71026  1.0000
  C   C42       1.0  0.25961  0.47662  0.66227  1.0000
  C   C43       1.0  0.61572  0.81563  0.59942  1.0000
  H   H56       1.0  0.62073  0.82696  0.77188  1.0000
  H   H57       1.0  0.53357  0.50428  0.65973  1.0000
  Fe  Fe10      1.0  0.37831  0.88978  0.61738  1.0000
  C   C44       1.0  0.26250  0.73292  0.55772  1.0000
  H   H58       1.0  0.61662  0.68067  0.72423  1.0000
  H   H59       1.0  0.34089  0.58992  0.60875  1.0000
  H   H60       1.0  0.33568  0.57338  0.75420  1.0000
  H   H61       1.0  0.63410  0.85606  0.59517  1.0000
  H   H62       1.0  0.24083  0.53639  0.57985  1.0000
  H   H63       1.0  0.30447  0.68867  0.71886  1.0000
  S   S15       1.0  0.28767  0.49058  0.70259  1.0000
  N   N5        1.0  0.49588  0.52601  0.61261  1.0000
  H   H64       1.0  0.52259  0.58507  0.57271  1.0000
  H   H65       1.0  0.22668  0.62382  0.78565  1.0000
  C   C45       1.0  0.24376  0.41937  0.65560  1.0000
  H   H66       1.0  0.32424  0.81559  0.54896  1.0000
  C   C46       1.0  0.39024  0.65329  0.59346  1.0000
  H   H67       1.0  0.28150  0.69335  0.54907  1.0000
  C   C47       1.0  0.29379  0.69980  0.79100  1.0000
  H   H68       1.0  0.44267  0.55436  0.64663  1.0000
  H   H69       1.0  0.42561  0.70106  0.78021  1.0000
  H   H70       1.0  0.22858  0.71775  0.56330  1.0000
  C   C48       1.0  0.41657  0.79253  0.76548  1.0000
  N   N6        1.0  0.29242  0.64440  0.76933  1.0000
  H   H71       1.0  0.58061  0.78350  0.68027  1.0000
  H   H72       1.0  0.24767  0.67960  0.73020  1.0000
  C   C49       1.0  0.34154  0.60407  0.55094  1.0000
  C   C50       1.0  0.40319  0.84886  0.77704  1.0000
  S   S16       1.0  0.54308  0.88620  0.60215  1.0000
  Fe  Fe11      1.0  0.41541  0.77062  0.64038  1.0000
  H   H73       1.0  0.20244  0.81816  0.54593  1.0000
  Fe  Fe12      1.0  0.47572  0.87196  0.62426  1.0000
  H   H74       1.0  0.36103  0.64513  0.75732  1.0000
  S   S17       1.0  0.42449  0.82635  0.59077  1.0000
  C   C51       1.0  0.61396  0.70898  0.60864  1.0000
  N   N7        1.0  0.62765  0.77504  0.72312  1.0000
  H   H75       1.0  0.51143  0.76615  0.60866  1.0000
  H   H76       1.0  0.55011  0.67094  0.61536  1.0000
  C   C52       1.0  0.57025  0.81781  0.60269  1.0000
  H   H77       1.0  0.27696  0.74916  0.58364  1.0000
  C   C53       1.0  0.54661  0.76523  0.60732  1.0000
  H   H78       1.0  0.57283  0.83395  0.71743  1.0000
  S   S18       1.0  0.36405  0.82961  0.66382  1.0000
  C   C54       1.0  0.28030  0.65822  0.73157  1.0000
  H   H79       1.0  0.25759  0.56139  0.76906  1.0000
  H   H80       1.0  0.56143  0.55060  0.62755  1.0000
  S   S19       1.0  0.46955  0.81238  0.67238  1.0000
  H   H81       1.0  0.48578  0.46018  0.57100  1.0000
  S   S20       1.0  0.20669  0.42408  0.55136  1.0000
  C   C55       1.0  0.56846  0.71105  0.61056  1.0000
  C   C56       1.0  0.22643  0.44597  0.59393  1.0000
  S   S21       1.0  0.40459  0.67198  0.63799  1.0000
  H   H82       1.0  0.43890  0.70988  0.56967  1.0000
  C   C57       1.0  0.52909  0.54122  0.64020  1.0000
  C   C58       1.0  0.41117  0.68140  0.56466  1.0000
  C   C59       1.0  0.50956  0.47209  0.59264  1.0000
  C   C60       1.0  0.63756  0.76114  0.60227  1.0000
  Fe  Fe13      1.0  0.41894  0.87736  0.69102  1.0000
  H   H83       1.0  0.42872  0.78602  0.73838  1.0000
  C   C61       1.0  0.62954  0.78123  0.76297  1.0000
  H   H84       1.0  0.54190  0.47831  0.57946  1.0000
  C   C62       1.0  0.41461  0.74432  0.78915  1.0000
  H   H85       1.0  0.51216  0.43316  0.61099  1.0000
  C   C63       1.0  0.25979  0.60350  0.78500  1.0000
  H   H86       1.0  0.27904  0.61725  0.71451  1.0000
  H   H87       1.0  0.24972  0.84913  0.56788  1.0000
  H   H88       1.0  0.55859  0.75701  0.72220  1.0000
  H   H89       1.0  0.31760  0.73216  0.77968  1.0000
  H   H90       1.0  0.31447  0.57435  0.54573  1.0000
  H   H91       1.0  0.45529  0.47661  0.64936  1.0000
  H   H92       1.0  0.42732  0.50547  0.61045  1.0000
  S   S22       1.0  0.64053  0.64137  0.61642  1.0000
  S   S23       1.0  0.40632  0.90945  0.74753  1.0000
  H   H93       1.0  0.63944  0.70780  0.68281  1.0000
  C   C64       1.0  0.63966  0.71377  0.71270  1.0000
  H   H94       1.0  0.39115  0.41351  0.55517  1.0000
  H   H95       1.0  0.26821  0.59183  0.81338  1.0000
  S   S24       1.0  0.29629  0.56364  0.99345  1.0000
  H   H96       1.0  0.46749  0.50753  0.03729  1.0000
  H   H97       1.0  0.41247  0.89658  0.98430  1.0000
  H   H98       1.0  0.37686  0.90014  0.82134  1.0000
  H   H99       1.0  0.37353  0.87637  0.01822  1.0000
  H   H100      1.0  0.28425  0.43827  0.95091  1.0000
  C   C65       1.0  0.33456  0.57608  0.02808  1.0000
  H   H101      1.0  0.22511  0.86706  0.92176  1.0000
  H   H102      1.0  0.53797  0.51890  0.00536  1.0000
  H   H103      1.0  0.43059  0.87776  0.02914  1.0000
  H   H104      1.0  0.35755  0.46167  0.97268  1.0000
  C   C66       1.0  0.36851  0.46666  0.94405  1.0000
  N   N8        1.0  0.34274  0.42840  0.91933  1.0000
  H   H105      1.0  0.29038  0.49136  0.91560  1.0000
  H   H106      1.0  0.27545  0.41599  0.90450  1.0000
  C   C67       1.0  0.16745  0.85427  0.97668  1.0000
  Fe  Fe14      1.0  0.29447  0.64033  0.95514  1.0000
  S   S25       1.0  0.29177  0.62511  0.89524  1.0000
  C   C68       1.0  0.37408  0.60471  0.02066  1.0000
  C   C69       1.0  0.38707  0.85660  0.81223  1.0000
  H   H107      1.0  0.17219  0.78592  0.91686  1.0000
  C   C70       1.0  0.55172  0.48748  0.02543  1.0000
  S   S26       1.0  0.39238  0.68981  0.85212  1.0000
  S   S27       1.0  0.34624  0.71077  0.95270  1.0000
  S   S28       1.0  0.28679  0.77073  0.88834  1.0000
  Fe  Fe15      1.0  0.33859  0.70127  0.89259  1.0000
  Fe  Fe16      1.0  0.28959  0.77309  0.94905  1.0000
  Fe  Fe17      1.0  0.24028  0.69506  0.89550  1.0000
  S   S29       1.0  0.23795  0.70356  0.95602  1.0000
  C   C71       1.0  0.35747  0.43741  0.88163  1.0000
  H   H108      1.0  0.29233  0.75169  0.02319  1.0000
  H   H109      1.0  0.58762  0.49516  0.02701  1.0000
  H   H110      1.0  0.36495  0.51448  0.93730  1.0000
  S   S30       1.0  0.18447  0.69140  0.85627  1.0000
  H   H111      1.0  0.35394  0.48454  0.87336  1.0000
  C   C72       1.0  0.28250  0.84630  0.02715  1.0000
  H   H112      1.0  0.37167  0.81412  0.86283  1.0000
  C   C73       1.0  0.39773  0.75176  0.82406  1.0000
  C   C74       1.0  0.38393  0.80791  0.83563  1.0000
  S   S31       1.0  0.28606  0.85894  0.98035  1.0000
  H   H113      1.0  0.40380  0.45527  0.94319  1.0000
  C   C75       1.0  0.19775  0.89938  0.92305  1.0000
  H   H114      1.0  0.15819  0.64619  0.92626  1.0000
  H   H115      1.0  0.38179  0.61780  0.99336  1.0000
  N   N9        1.0  0.15829  0.87225  0.93899  1.0000
  C   C76       1.0  0.14562  0.81951  0.91743  1.0000
  H   H116      1.0  0.19405  0.82077  0.97778  1.0000
  H   H117      1.0  0.54689  0.44174  0.01457  1.0000
  H   H118      1.0  0.17814  0.89272  0.99362  1.0000
  C   C77       1.0  0.28734  0.78914  0.04120  1.0000
  H   H119      1.0  0.30381  0.69098  0.81940  1.0000
  H   H120      1.0  0.34670  0.60638  0.79787  1.0000
  C   C78       1.0  0.29608  0.44404  0.92258  1.0000
  H   H121      1.0  0.39236  0.42480  0.87823  1.0000
  C   C79       1.0  0.40464  0.90091  0.01364  1.0000
  H   H122      1.0  0.43495  0.63696  0.04250  1.0000
  H   H123      1.0  0.39324  0.10286  0.23271  1.0000
  Fe  Fe18      1.0  0.35281  0.98113  0.22213  1.0000
  C   C80       1.0  0.38775  0.09776  0.13224  1.0000
  S   S32       1.0  0.41673  0.98206  0.25165  1.0000
  H   H124      1.0  0.21808  0.33726  0.12687  1.0000
  S   S33       1.0  0.24008  0.97808  0.17394  1.0000
  Fe  Fe19      1.0  0.29808  0.03633  0.16401  1.0000
  Fe  Fe20      1.0  0.25551  0.99401  0.23261  1.0000
  S   S34       1.0  0.20845  0.01605  0.27708  1.0000
  S   S35       1.0  0.34688  0.96253  0.16272  1.0000
  C   C81       1.0  0.36345  0.40524  0.10810  1.0000
  H   H125      1.0  0.38032  0.08018  0.15867  1.0000
  H   H126      1.0  0.33828  0.15699  0.05845  1.0000
  S   S36       1.0  0.29955  0.10599  0.12156  1.0000
  S   S37       1.0  0.49551  0.12614  0.07168  1.0000
  S   S38       1.0  0.30850  0.05982  0.22219  1.0000
  H   H127      1.0  0.17227  0.28236  0.17175  1.0000
  C   C82       1.0  0.42994  0.05136  0.27094  1.0000
  C   C83       1.0  0.41224  0.10388  0.25729  1.0000
  H   H128      1.0  0.24606  0.21143  0.10463  1.0000
  C   C84       1.0  0.43124  0.10036  0.12052  1.0000
  H   H129      1.0  0.21399  0.29639  0.20497  1.0000
  H   H130      1.0  0.41486  0.94699  0.08097  1.0000
  C   C85       1.0  0.35412  0.11722  0.10959  1.0000
  H   H131      1.0  0.26066  0.34797  0.15992  1.0000
  C   C86       1.0  0.38867  0.36249  0.05164  1.0000
  H   H132      1.0  0.45708  0.08395  0.13771  1.0000
  C   C87       1.0  0.44123  0.12427  0.08665  1.0000
  C   C88       1.0  0.49573  0.18755  0.19608  1.0000
  H   H133      1.0  0.52540  0.32850  0.17419  1.0000
  H   H134      1.0  0.49625  0.22466  0.12692  1.0000
  H   H135      1.0  0.19567  0.22195  0.19635  1.0000
  S   S39       1.0  0.50749  0.29143  0.05131  1.0000
  C   C89       1.0  0.36415  0.14184  0.07604  1.0000
  H   H136      1.0  0.18298  0.06188  0.20723  1.0000
  H   H137      1.0  0.27143  0.92321  0.10624  1.0000
  C   C90       1.0  0.40763  0.14532  0.06465  1.0000
  C   C91       1.0  0.37538  0.29936  0.10355  1.0000
  N   N10       1.0  0.48840  0.24863  0.18307  1.0000
  H   H138      1.0  0.46502  0.16102  0.19546  1.0000
  H   H139      1.0  0.55556  0.26112  0.16769  1.0000
  H   H140      1.0  0.37591  0.25599  0.11583  1.0000
  C   C92       1.0  0.36457  0.34935  0.12426  1.0000
  H   H141      1.0  0.28971  0.26202  0.19371  1.0000
  C   C93       1.0  0.20331  0.26508  0.18325  1.0000
  H   H142      1.0  0.40406  0.19810  0.26566  1.0000
  H   H143      1.0  0.27113  0.18819  0.18265  1.0000
  C   C94       1.0  0.22116  0.21762  0.12633  1.0000
  H   H144      1.0  0.27274  0.31268  0.11758  1.0000
  S   S40       1.0  0.35899  0.34425  0.17130  1.0000
  C   C95       1.0  0.38841  0.30618  0.06737  1.0000
  H   H145      1.0  0.30379  0.22892  0.15107  1.0000
  H   H146      1.0  0.19093  0.23475  0.11343  1.0000
  C   C96       1.0  0.47233  0.24653  0.14535  1.0000
  H   H147      1.0  0.44126  0.22117  0.14332  1.0000
  H   H148      1.0  0.21373  0.17274  0.13726  1.0000
  C   C97       1.0  0.45562  0.27810  0.20632  1.0000
  H   H149      1.0  0.42367  0.25450  0.20532  1.0000
  N   N11       1.0  0.23723  0.25815  0.15505  1.0000
  C   C98       1.0  0.41911  0.15797  0.27554  1.0000
  H   H150      1.0  0.46592  0.29185  0.13474  1.0000
  C   C99       1.0  0.52976  0.28252  0.18447  1.0000
  H   H151      1.0  0.54236  0.28664  0.21268  1.0000
  C   C100      1.0  0.24746  0.31662  0.13916  1.0000
  H   H152      1.0  0.44966  0.32434  0.19729  1.0000
  C   C101      1.0  0.17370  0.07410  0.26465  1.0000
  H   H153      1.0  0.46636  0.28008  0.23513  1.0000
  H   H154      1.0  0.52002  0.16376  0.17891  1.0000
  H   H155      1.0  0.50791  0.18746  0.22451  1.0000
  C   C102      1.0  0.27712  0.23321  0.17144  1.0000
  C   C103      1.0  0.16649  0.08685  0.22811  1.0000
  H   H156      1.0  0.39895  0.26818  0.05174  1.0000
  H   H157      1.0  0.54976  0.40711  0.07813  1.0000
  H   H158      1.0  0.38516  0.01389  0.07274  1.0000
  H   H159      1.0  0.16144  0.95508  0.21730  1.0000
  H   H160      1.0  0.35803  0.94375  0.06931  1.0000
  C   C104      1.0  0.15246  0.10729  0.29148  1.0000
  C   C105      1.0  0.38926  0.96716  0.06365  1.0000
  S   S41       1.0  0.30050  0.91629  0.23756  1.0000
  C   C106      1.0  0.62266  0.11213  0.38430  1.0000
  C   C107      1.0  0.57906  0.94355  0.45677  1.0000
  C   C108      1.0  0.27610  0.06171  0.37042  1.0000
  H   H161      1.0  0.61623  0.12222  0.35619  1.0000
  H   H162      1.0  0.63341  0.95490  0.51317  1.0000
  H   H163      1.0  0.48429  0.38406  0.39775  1.0000
  H   H164      1.0  0.47118  0.01346  0.31190  1.0000
  H   H165      1.0  0.34584  0.13240  0.38079  1.0000
  C   C109      1.0  0.63891  0.08578  0.45686  1.0000
  C   C110      1.0  0.46366  0.10778  0.31981  1.0000
  N   N12       1.0  0.31301  0.07089  0.34526  1.0000
  C   C111      1.0  0.30150  0.11712  0.31873  1.0000
  C   C112      1.0  0.32269  0.01475  0.32596  1.0000
  C   C113      1.0  0.35186  0.09005  0.36595  1.0000
  H   H166      1.0  0.48416  0.10916  0.34360  1.0000
  H   H167      1.0  0.59246  0.01159  0.51653  1.0000
  H   H168      1.0  0.29413  0.16012  0.33239  1.0000
  C   C114      1.0  0.44378  0.15962  0.30744  1.0000
  H   H169      1.0  0.33797  0.34224  0.51868  1.0000
  H   H170      1.0  0.57154  0.99083  0.45120  1.0000
  H   H171      1.0  0.40533  0.38252  0.32095  1.0000
  C   C115      1.0  0.29020  0.03189  0.50809  1.0000
  C   C116      1.0  0.29882  0.23516  0.51437  1.0000
  H   H172      1.0  0.47550  0.35934  0.35177  1.0000
  H   H173      1.0  0.26108  0.04531  0.49375  1.0000
  S   S42       1.0  0.49929  0.24432  0.43147  1.0000
  S   S43       1.0  0.33357  0.10046  0.45981  1.0000
  C   C117      1.0  0.59769  0.10633  0.44658  1.0000
  H   H174      1.0  0.36143  0.05640  0.38639  1.0000
  Fe  Fe21      1.0  0.39777  0.14645  0.45235  1.0000
  H   H175      1.0  0.37654  0.34890  0.35781  1.0000
  C   C118      1.0  0.58965  0.11999  0.41030  1.0000
  C   C119      1.0  0.36861  0.03562  0.51589  1.0000
  H   H176      1.0  0.55786  0.13571  0.40211  1.0000
  H   H177      1.0  0.40029  0.05168  0.50744  1.0000
  C   C120      1.0  0.45900  0.36924  0.37801  1.0000
  S   S44       1.0  0.45152  0.11368  0.41643  1.0000
  S   S45       1.0  0.55589  0.11040  0.47902  1.0000
  Fe  Fe22      1.0  0.49577  0.15511  0.45805  1.0000
  C   C121      1.0  0.33101  0.05291  0.49713  1.0000
  H   H178      1.0  0.29392  0.99866  0.31032  1.0000
  S   S46       1.0  0.42830  0.35243  0.49394  1.0000
  H   H179      1.0  0.32872  0.12504  0.29936  1.0000
  H   H180      1.0  0.24615  0.04721  0.35565  1.0000
  H   H181      1.0  0.38876  0.38523  0.42078  1.0000
  H   H182      1.0  0.28391  0.02740  0.39098  1.0000
  S   S47       1.0  0.44164  0.17926  0.49654  1.0000
  S   S48       1.0  0.44646  0.22531  0.33318  1.0000
  H   H183      1.0  0.32605  0.24007  0.49462  1.0000
  H   H184      1.0  0.33214  0.97911  0.34510  1.0000
  H   H185      1.0  0.61410  0.93650  0.45001  1.0000
  H   H186      1.0  0.29613  0.18700  0.52071  1.0000
  Fe  Fe23      1.0  0.45038  0.20519  0.39276  1.0000
  H   H187      1.0  0.38031  0.09717  0.34787  1.0000
  C   C122      1.0  0.59837  0.96311  0.51920  1.0000
  Fe  Fe24      1.0  0.44153  0.26522  0.46649  1.0000
  S   S49       1.0  0.39282  0.23458  0.42544  1.0000
  H   H188      1.0  0.26820  0.10318  0.38562  1.0000
  H   H189      1.0  0.15796  0.09762  0.31977  1.0000
  C   C123      1.0  0.45670  0.05373  0.30161  1.0000
  H   H190      1.0  0.26819  0.24858  0.50050  1.0000
  H   H191      1.0  0.44540  0.32667  0.38797  1.0000
  H   H192      1.0  0.27224  0.10410  0.30262  1.0000
  C   C124      1.0  0.39107  0.39131  0.34818  1.0000
  H   H193      1.0  0.28012  0.35065  0.52405  1.0000
  H   H194      1.0  0.35008  0.02029  0.30648  1.0000
  H   H195      1.0  0.51686  0.99095  0.49944  1.0000
  C   C125      1.0  0.52351  0.94273  0.50320  1.0000
  H   H196      1.0  0.48844  0.28045  0.53464  1.0000
  H   H197      1.0  0.55916  0.91645  0.43763  1.0000
  N   N13       1.0  0.56953  0.92843  0.49488  1.0000
  C   C126      1.0  0.43858  0.34706  0.54052  1.0000
  C   C127      1.0  0.28672  0.99403  0.53780  1.0000
  C   C128      1.0  0.31028  0.33448  0.53757  1.0000
  H   H198      1.0  0.51529  0.93204  0.53182  1.0000
  H   H199      1.0  0.50067  0.91754  0.48543  1.0000
  S   S50       1.0  0.43034  0.94190  0.64602  1.0000
  H   H200      1.0  0.38138  0.10318  0.71826  1.0000
  C   C129      1.0  0.16953  0.17604  0.73639  1.0000
  H   H201      1.0  0.26263  0.07729  0.70469  1.0000
  C   C130      1.0  0.18411  0.15388  0.66286  1.0000
  H   H202      1.0  0.18987  0.14448  0.63448  1.0000
  C   C131      1.0  0.20828  0.19557  0.71999  1.0000
  H   H203      1.0  0.23866  0.28000  0.56098  1.0000
  H   H204      1.0  0.16410  0.18439  0.76494  1.0000
  C   C132      1.0  0.32409  0.97614  0.55641  1.0000
  H   H205      1.0  0.34122  0.12147  0.66108  1.0000
  N   N14       1.0  0.32904  0.04899  0.69735  1.0000
  C   C133      1.0  0.29513  0.08126  0.71799  1.0000
  S   S51       1.0  0.28313  0.32881  0.74044  1.0000
  C   C134      1.0  0.33212  0.07358  0.66040  1.0000
  H   H206      1.0  0.30285  0.12950  0.72007  1.0000
  Fe  Fe25      1.0  0.31822  0.40207  0.71216  1.0000
  C   C135      1.0  0.36517  0.99674  0.54548  1.0000
  S   S52       1.0  0.36889  0.24563  0.72090  1.0000
  C   C136      1.0  0.14840  0.31952  0.66653  1.0000
  C   C137      1.0  0.31736  0.98539  0.69508  1.0000
  H   H207      1.0  0.37042  0.03714  0.74384  1.0000
  H   H208      1.0  0.29195  0.06400  0.74603  1.0000
  H   H209      1.0  0.31558  0.96496  0.72244  1.0000
  S   S53       1.0  0.38239  0.38905  0.73973  1.0000
  C   C138      1.0  0.37152  0.05571  0.71596  1.0000
  H   H210      1.0  0.39790  0.03172  0.70128  1.0000
  S   S54       1.0  0.33507  0.34609  0.66376  1.0000
  C   C139      1.0  0.41456  0.38160  0.56505  1.0000
  C   C140      1.0  0.47592  0.30061  0.59083  1.0000
  C   C141      1.0  0.22772  0.40394  0.62142  1.0000
  C   C142      1.0  0.26977  0.26358  0.57280  1.0000
  H   H211      1.0  0.24505  0.38628  0.67657  1.0000
  S   S55       1.0  0.45922  0.32501  0.66213  1.0000
  H   H212      1.0  0.30039  0.06993  0.64583  1.0000
  H   H213      1.0  0.35691  0.04961  0.64382  1.0000
  C   C143      1.0  0.45080  0.33347  0.61542  1.0000
  H   H214      1.0  0.21735  0.35899  0.61604  1.0000
  H   H215      1.0  0.25490  0.97860  0.54637  1.0000
  H   H216      1.0  0.26515  0.21617  0.58024  1.0000
  Fe  Fe26      1.0  0.39643  0.32646  0.69359  1.0000
  H   H217      1.0  0.17551  0.29363  0.65410  1.0000
  Fe  Fe27      1.0  0.30572  0.27099  0.69461  1.0000
  H   H218      1.0  0.31549  0.36304  0.56195  1.0000
  C   C144      1.0  0.42014  0.37406  0.60245  1.0000
  H   H219      1.0  0.49997  0.26957  0.60072  1.0000
  H   H220      1.0  0.35477  0.27829  0.58959  1.0000
  S   S56       1.0  0.26409  0.20752  0.66208  1.0000
  H   H221      1.0  0.40136  0.40059  0.62124  1.0000
  H   H222      1.0  0.27549  0.28875  0.59843  1.0000
  C   C145      1.0  0.21559  0.18455  0.68318  1.0000
  H   H223      1.0  0.34205  0.95996  0.67937  1.0000
  C   C146      1.0  0.46934  0.30669  0.55344  1.0000
  H   H224      1.0  0.23269  0.21832  0.73603  1.0000
  H   H225      1.0  0.28540  0.97860  0.68132  1.0000
  S   S57       1.0  0.31773  0.92813  0.59317  1.0000
  H   H226      1.0  0.39416  0.98305  0.55988  1.0000
  Fe  Fe28      1.0  0.34894  0.31039  0.76441  1.0000
  H   H227      1.0  0.14668  0.32138  0.59328  1.0000
  N   N15       1.0  0.30658  0.27116  0.54739  1.0000
  C   C147      1.0  0.14515  0.13495  0.67918  1.0000
  H   H228      1.0  0.34539  0.20416  0.57317  1.0000
  H   H229      1.0  0.16063  0.36521  0.67205  1.0000
  C   C148      1.0  0.34740  0.25149  0.56488  1.0000
  H   H230      1.0  0.37577  0.25585  0.54626  1.0000
  H   H231      1.0  0.59257  0.95178  0.54812  1.0000
  H   H232      1.0  0.43740  0.29328  0.79444  1.0000
  H   H233      1.0  0.36986  0.23463  0.88971  1.0000
  H   H234      1.0  0.27155  0.93850  0.04011  1.0000
  H   H235      1.0  0.33838  0.40944  0.86226  1.0000
  H   H236      1.0  0.46945  0.97539  0.03570  1.0000
  H   H237      1.0  0.62337  0.20919  0.92888  1.0000
  H   H238      1.0  0.33456  0.96993  0.00630  1.0000
  H   H239      1.0  0.63302  0.19255  0.86356  1.0000
  H   H240      1.0  0.33066  0.33528  0.91039  1.0000
  C   C149      1.0  0.34882  0.36543  0.92911  1.0000
  C   C150      1.0  0.43944  0.22265  0.88983  1.0000
  C   C151      1.0  0.47863  0.23131  0.87129  1.0000
  H   H241      1.0  0.38386  0.35249  0.92783  1.0000
  S   S58       1.0  0.62035  0.36148  0.02684  1.0000
  Fe  Fe29      1.0  0.50609  0.19785  0.03052  1.0000
  H   H242      1.0  0.44081  0.04248  0.02601  1.0000
  S   S59       1.0  0.34905  0.29232  0.82394  1.0000
  Fe  Fe30      1.0  0.56355  0.30288  0.01334  1.0000
  S   S60       1.0  0.52224  0.33127  0.96678  1.0000
  C   C152      1.0  0.39992  0.24112  0.87487  1.0000
  S   S61       1.0  0.45981  0.21627  0.98506  1.0000
  H   H243      1.0  0.60451  0.28312  0.92100  1.0000
  Fe  Fe31      1.0  0.51997  0.23476  0.95232  1.0000
  S   S62       1.0  0.52831  0.21479  0.89289  1.0000
  Fe  Fe32      1.0  0.46619  0.31051  0.00299  1.0000
  S   S63       1.0  0.41041  0.37278  0.00838  1.0000
  H   H244      1.0  0.33746  0.35668  0.95722  1.0000
  H   H245      1.0  0.50801  0.26207  0.82176  1.0000
  H   H246      1.0  0.61328  0.26563  0.85515  1.0000
  H   H247      1.0  0.43932  0.20043  0.91542  1.0000
  H   H248      1.0  0.37458  0.99215  0.97378  1.0000
  S   S64       1.0  0.56635  0.20726  0.99620  1.0000
  H   H249      1.0  0.41478  0.16275  0.03835  1.0000
  C   C153      1.0  0.39911  0.26712  0.84069  1.0000
  C   C154      1.0  0.43796  0.27353  0.82106  1.0000
  C   C155      1.0  0.47785  0.25570  0.83646  1.0000
  C   C156      1.0  0.63433  0.25592  0.92526  1.0000
  H   H250      1.0  0.20930  0.93799  0.93945  1.0000
  H   H251      1.0  0.19168  0.91490  0.89496  1.0000
  H   H252      1.0  0.45333  0.99166  0.98999  1.0000
  N   N16       1.0  0.40086  0.96383  0.02482  1.0000
  H   H253      1.0  0.36198  0.04004  0.01157  1.0000
  C   C157      1.0  0.44294  0.99452  0.01883  1.0000
  C   C158      1.0  0.36651  0.99286  0.00318  1.0000
  H   H254      1.0  0.83141  0.49275  0.23522  1.0000
  Fe  Fe33      1.0  0.82470  0.61246  0.20327  1.0000
  S   S65       1.0  0.68044  0.62077  0.13616  1.0000
  C   C159      1.0  0.85043  0.49141  0.25981  1.0000
  Fe  Fe34      1.0  0.83996  0.56734  0.12653  1.0000
  S   S66       1.0  0.88029  0.50088  0.09543  1.0000
  C   C160      1.0  0.86216  0.54431  0.27748  1.0000
  S   S67       1.0  0.84472  0.61357  0.26178  1.0000
  Fe  Fe35      1.0  0.75263  0.61842  0.14740  1.0000
  S   S68       1.0  0.87679  0.63027  0.16245  1.0000
  C   C161      1.0  0.64708  0.56820  0.15789  1.0000
  S   S69       1.0  0.79144  0.54227  0.16952  1.0000
  H   H255      1.0  0.07727  0.83697  0.22454  1.0000
  S   S70       1.0  0.79889  0.63852  0.10174  1.0000
  H   H256      1.0  0.69951  0.51749  0.18094  1.0000
  H   H257      1.0  0.65049  0.44459  0.21061  1.0000
  C   C162      1.0  0.66462  0.52167  0.17812  1.0000
  C   C163      1.0  0.10874  0.90141  0.16920  1.0000
  H   H258      1.0  0.90987  0.86809  0.08496  1.0000
  H   H259      1.0  0.85876  0.87061  0.20023  1.0000
  H   H260      1.0  0.83564  0.79930  0.20963  1.0000
  C   C164      1.0  0.81536  0.79374  0.06746  1.0000
  S   S71       1.0  0.78186  0.68660  0.18479  1.0000
  H   H261      1.0  0.77705  0.81707  0.16471  1.0000
  H   H262      1.0  0.84460  0.85157  0.24587  1.0000
  C   C165      1.0  0.06430  0.88286  0.22204  1.0000
  H   H263      1.0  0.04620  0.90708  0.06183  1.0000
  H   H264      1.0  0.79209  0.76443  0.08022  1.0000
  H   H265      1.0  0.75782  0.79122  0.22809  1.0000
  Fe  Fe36      1.0  0.83170  0.69953  0.14142  1.0000
  S   S72       1.0  0.86251  0.78820  0.13034  1.0000
  C   C166      1.0  0.85209  0.81348  0.08652  1.0000
  H   H266      1.0  0.07957  0.89854  0.15127  1.0000
  C   C167      1.0  0.88158  0.85247  0.07012  1.0000
  C   C168      1.0  0.86180  0.43644  0.27493  1.0000
  H   H267      1.0  0.74440  0.88294  0.16771  1.0000
  C   C169      1.0  0.83410  0.84721  0.21713  1.0000
  H   H268      1.0  0.80102  0.88757  0.15495  1.0000
  C   C170      1.0  0.77742  0.86462  0.17309  1.0000
  H   H269      1.0  0.76697  0.84407  0.26388  1.0000
  N   N17       1.0  0.78987  0.87159  0.21157  1.0000
  H   H270      1.0  0.93227  0.64628  0.08862  1.0000
  H   H271      1.0  0.12399  0.85668  0.17010  1.0000
  C   C171      1.0  0.90914  0.66021  0.06707  1.0000
  H   H272      1.0  0.89115  0.69967  0.07730  1.0000
  H   H273      1.0  0.03412  0.88045  0.20527  1.0000
  C   C172      1.0  0.75841  0.83946  0.23467  1.0000
  H   H274      1.0  0.72466  0.85662  0.23110  1.0000
  H   H275      1.0  0.05456  0.89831  0.24960  1.0000
  H   H276      1.0  0.98815  0.70997  0.05932  1.0000
  H   H277      1.0  0.94670  0.76300  0.04795  1.0000
  H   H278      1.0  0.88505  0.62376  0.06367  1.0000
  C   C173      1.0  0.87426  0.49873  0.04817  1.0000
  H   H279      1.0  0.81698  0.55385  0.04657  1.0000
  C   C174      1.0  0.99989  0.67671  0.44223  1.0000
  H   H280      1.0  0.88877  0.74882  0.35533  1.0000
  H   H281      1.0  0.97676  0.70997  0.43362  1.0000
  H   H282      1.0  0.91640  0.48689  0.34913  1.0000
  C   C175      1.0  0.88471  0.43467  0.30771  1.0000
  H   H283      1.0  0.05271  0.73927  0.44835  1.0000
  H   H284      1.0  0.74837  0.44816  0.54107  1.0000
  C   C176      1.0  0.86423  0.58388  0.52535  1.0000
  H   H285      1.0  0.86585  0.85673  0.53367  1.0000
  H   H286      1.0  0.83378  0.61059  0.52728  1.0000
  C   C177      1.0  0.82237  0.84275  0.48859  1.0000
  C   C178      1.0  0.04972  0.53006  0.35743  1.0000
  H   H287      1.0  0.04995  0.56573  0.33674  1.0000
  H   H288      1.0  0.85141  0.75827  0.41463  1.0000
  C   C179      1.0  0.84279  0.71033  0.41239  1.0000
  Fe  Fe37      1.0  0.92555  0.49870  0.43407  1.0000
  C   C180      1.0  0.98716  0.61729  0.44455  1.0000
  S   S73       1.0  0.93374  0.59719  0.43302  1.0000
  C   C181      1.0  0.01708  0.57453  0.45607  1.0000
  C   C182      1.0  0.09229  0.46048  0.39214  1.0000
  H   H289      1.0  0.09094  0.44383  0.32011  1.0000
  S   S74       1.0  0.92582  0.44705  0.48542  1.0000
  S   S75       1.0  0.86353  0.45858  0.41365  1.0000
  H   H290      1.0  0.86903  0.68483  0.42592  1.0000
  C   C183      1.0  0.94057  0.57675  0.54089  1.0000
  H   H291      1.0  0.82016  0.61306  0.34405  1.0000
  C   C184      1.0  0.90909  0.67213  0.52715  1.0000
  H   H292      1.0  0.00719  0.52863  0.45854  1.0000
  H   H293      1.0  0.08292  0.55831  0.47378  1.0000
  H   H294      1.0  0.91801  0.66736  0.49806  1.0000
  H   H295      1.0  0.77085  0.72169  0.37183  1.0000
  C   C185      1.0  0.07311  0.65053  0.46128  1.0000
  C   C186      1.0  0.76694  0.76732  0.49684  1.0000
  C   C187      1.0  0.06006  0.59122  0.46452  1.0000
  H   H296      1.0  0.83804  0.87581  0.47192  1.0000
  C   C188      1.0  0.04281  0.69329  0.45060  1.0000
  H   H297      1.0  0.81220  0.70358  0.42811  1.0000
  H   H298      1.0  0.87143  0.57660  0.49608  1.0000
  N   N18       1.0  0.09408  0.50689  0.36404  1.0000
  S   S76       1.0  0.96968  0.43669  0.40394  1.0000
  H   H299      1.0  0.03525  0.54917  0.38259  1.0000
  C   C189      1.0  0.11170  0.48107  0.33016  1.0000
  H   H300      1.0  0.89709  0.58272  0.32247  1.0000
  H   H301      1.0  0.07949  0.47827  0.41827  1.0000
  H   H302      1.0  0.79735  0.71419  0.32846  1.0000
  N   N19       1.0  0.83734  0.69178  0.37418  1.0000
  H   H303      1.0  0.87556  0.68814  0.32540  1.0000
  H   H304      1.0  0.12528  0.44169  0.39748  1.0000
  H   H305      1.0  0.02729  0.49449  0.34761  1.0000
  C   C190      1.0  0.80244  0.72733  0.35731  1.0000
  C   C191      1.0  0.87870  0.70133  0.35444  1.0000
  H   H306      1.0  0.81037  0.77560  0.35815  1.0000
  C   C192      1.0  0.89793  0.48764  0.32434  1.0000
  H   H307      1.0  0.90566  0.67471  0.36637  1.0000
  H   H308      1.0  0.73947  0.74215  0.48650  1.0000
  H   H309      1.0  0.85717  0.53967  0.53735  1.0000
  C   C193      1.0  0.83797  0.83208  0.52364  1.0000
  S   S77       1.0  0.76833  0.82108  0.43081  1.0000
  H   H310      1.0  0.11085  0.57617  0.40206  1.0000
  C   C194      1.0  0.78189  0.75765  0.53219  1.0000
  H   H311      1.0  0.79477  0.61917  0.38772  1.0000
  H   H312      1.0  0.85150  0.59988  0.38432  1.0000
  C   C195      1.0  0.82541  0.62818  0.37254  1.0000
  C   C196      1.0  0.78700  0.81010  0.47510  1.0000
  C   C197      1.0  0.81390  0.41412  0.53827  1.0000
  H   H313      1.0  0.94972  0.56953  0.51205  1.0000
  H   H314      1.0  0.87968  0.70088  0.52863  1.0000
  H   H315      1.0  0.99515  0.41178  0.53436  1.0000
  H   H316      1.0  0.07073  0.42291  0.38392  1.0000
  S   S78       1.0  0.12721  0.67231  0.46945  1.0000
  C   C198      1.0  0.88681  0.54219  0.30925  1.0000
  C   C199      1.0  0.12278  0.55589  0.37636  1.0000
  H   H317      1.0  0.12485  0.59183  0.35594  1.0000
  H   H318      1.0  0.11382  0.51479  0.30836  1.0000
  Fe  Fe38      1.0  0.79374  0.90635  0.40792  1.0000
  H   H319      1.0  0.93615  0.69644  0.54087  1.0000
  N   N20       1.0  0.90100  0.61377  0.54399  1.0000
  C   C200      1.0  0.87428  0.81354  0.75496  1.0000
  Fe  Fe39      1.0  0.71052  0.65298  0.63346  1.0000
  C   C201      1.0  0.77944  0.44453  0.55481  1.0000
  C   C202      1.0  0.82571  0.46786  0.60622  1.0000
  S   S79       1.0  0.76807  0.62869  0.59887  1.0000
  H   H320      1.0  0.86531  0.83727  0.65702  1.0000
  C   C203      1.0  0.78547  0.47187  0.58864  1.0000
  H   H321      1.0  0.88299  0.57930  0.59612  1.0000
  Fe  Fe40      1.0  0.79429  0.58725  0.64938  1.0000
  H   H322      1.0  0.65798  0.81376  0.67638  1.0000
  H   H323      1.0  0.76571  0.72536  0.54897  1.0000
  H   H324      1.0  0.93550  0.53230  0.55327  1.0000
  H   H325      1.0  0.75880  0.49574  0.60118  1.0000
  S   S80       1.0  0.83380  0.50370  0.64784  1.0000
  H   H326      1.0  0.86087  0.65092  0.58591  1.0000
  S   S81       1.0  0.73396  0.60342  0.68222  1.0000
  H   H327      1.0  0.89964  0.82476  0.73577  1.0000
  H   H328      1.0  0.81097  0.86212  0.64790  1.0000
  H   H329      1.0  0.91717  0.64434  0.59768  1.0000
  H   H330      1.0  0.96902  0.59806  0.55450  1.0000
  H   H331      1.0  0.89099  0.43264  0.60378  1.0000
  C   C204      1.0  0.80491  0.76619  0.76827  1.0000
  C   C205      1.0  0.85982  0.43588  0.59023  1.0000
  Fe  Fe41      1.0  0.79755  0.71240  0.62114  1.0000
  S   S82       1.0  0.83822  0.77598  0.58898  1.0000
  S   S83       1.0  0.73788  0.74073  0.65159  1.0000
  H   H332      1.0  0.67300  0.70231  0.72234  1.0000
  S   S84       1.0  0.75925  0.72471  0.75438  1.0000
  H   H333      1.0  0.67256  0.75952  0.59921  1.0000
  H   H334      1.0  0.83437  0.76859  0.71543  1.0000
  C   C206      1.0  0.84214  0.87464  0.66142  1.0000
  C   C207      1.0  0.83753  0.78131  0.74349  1.0000
  C   C208      1.0  0.89008  0.62233  0.58264  1.0000
  Fe  Fe42      1.0  0.76598  0.68949  0.69760  1.0000
  S   S85       1.0  0.82863  0.66903  0.66897  1.0000
  C   C209      1.0  0.87856  0.83062  0.79129  1.0000
  H   H335      1.0  0.83586  0.87827  0.69104  1.0000
  H   H336      1.0  0.65068  0.86390  0.71385  1.0000
  C   C210      1.0  0.65866  0.81719  0.70649  1.0000
  H   H337      1.0  0.89148  0.88961  0.60117  1.0000
  H   H338      1.0  0.69276  0.80847  0.71552  1.0000
  H   H339      1.0  0.66300  0.77177  0.77336  1.0000
  H   H340      1.0  0.92635  0.90904  0.65978  1.0000
  C   C211      1.0  0.81761  0.78973  0.54554  1.0000
  C   C212      1.0  0.89921  0.46159  0.98985  1.0000
  H   H341      1.0  0.97405  0.62751  0.99509  1.0000
  H   H342      1.0  0.93045  0.44246  0.04056  1.0000
  H   H343      1.0  0.97852  0.60309  0.04114  1.0000
  C   C213      1.0  0.83659  0.52663  0.99300  1.0000
  H   H344      1.0  0.11606  0.79757  0.92874  1.0000
  C   C214      1.0  0.86553  0.49204  0.97257  1.0000
  S   S86       1.0  0.85837  0.48424  0.92573  1.0000
  C   C215      1.0  0.84057  0.52927  0.03086  1.0000
  C   C216      1.0  0.89971  0.69060  0.00501  1.0000
  H   H345      1.0  0.09944  0.72806  0.83360  1.0000
  H   H346      1.0  0.13815  0.83441  0.98971  1.0000
  H   H347      1.0  0.89810  0.89998  0.02161  1.0000
  H   H348      1.0  0.92209  0.43554  0.97412  1.0000
  H   H349      1.0  0.92704  0.65665  0.80857  1.0000
  H   H350      1.0  0.81006  0.54946  0.97975  1.0000
  N   N21       1.0  0.93190  0.67297  0.03272  1.0000
  C   C217      1.0  0.80836  0.81256  0.03182  1.0000
  C   C218      1.0  0.80884  0.78406  0.80451  1.0000
  H   H351      1.0  0.85289  0.56591  0.81334  1.0000
  H   H352      1.0  0.90202  0.71235  0.83638  1.0000
  H   H353      1.0  0.84969  0.68276  0.88481  1.0000
  H   H354      1.0  0.87518  0.65485  0.00016  1.0000
  H   H355      1.0  0.81798  0.64297  0.85179  1.0000
  H   H356      1.0  0.92861  0.66104  0.89192  1.0000
  C   C219      1.0  0.90380  0.46535  0.02752  1.0000
  C   C220      1.0  0.96342  0.72184  0.03857  1.0000
  S   S87       1.0  0.95844  0.85363  0.96798  1.0000
  C   C221      1.0  0.05688  0.71408  0.87928  1.0000
  Fe  Fe43      1.0  0.93544  0.86373  0.86539  1.0000
  S   S88       1.0  0.90680  0.79162  0.89956  1.0000
  C   C222      1.0  0.84610  0.63920  0.87074  1.0000
  Fe  Fe44      1.0  0.89467  0.86478  0.93961  1.0000
  C   C223      1.0  0.09680  0.71089  0.86082  1.0000
  Fe  Fe45      1.0  0.97319  0.78751  0.92424  1.0000
  C   C224      1.0  0.87513  0.87014  0.03422  1.0000
  H   H357      1.0  0.95405  0.60591  0.86396  1.0000
  S   S89       1.0  0.00343  0.85363  0.88680  1.0000
  C   C225      1.0  0.89681  0.66788  0.82383  1.0000
  S   S90       1.0  0.00474  0.70163  0.93899  1.0000
  H   H358      1.0  0.91617  0.58400  0.89852  1.0000
  C   C226      1.0  0.08985  0.66735  0.93133  1.0000
  H   H359      1.0  0.87203  0.52912  0.85326  1.0000
  S   S91       1.0  0.83143  0.86935  0.96959  1.0000
  H   H360      1.0  0.77997  0.79714  0.01704  1.0000
  C   C227      1.0  0.05351  0.69299  0.91470  1.0000
  H   H361      1.0  0.02869  0.73272  0.86600  1.0000
  H   H362      1.0  0.09164  0.89582  0.94953  1.0000
  N   N22       1.0  0.88652  0.62248  0.85134  1.0000
  H   H363      1.0  0.91004  0.55000  0.81863  1.0000
  H   H364      1.0  0.08730  0.65056  0.95864  1.0000
  H   H365      1.0  0.84800  0.83102  0.84383  1.0000
  H   H366      1.0  0.78340  0.77318  0.82370  1.0000
  C   C228      1.0  0.92289  0.61820  0.87753  1.0000
  C   C229      1.0  0.83864  0.84989  0.01498  1.0000
  H   H367      1.0  0.98122  0.73266  0.01316  1.0000
  H   H368      1.0  0.83733  0.60558  0.89158  1.0000
  H   H369      1.0  0.91589  0.70031  0.97869  1.0000
  H   H370      1.0  0.93212  0.58234  0.01433  1.0000
  C   C230      1.0  0.88010  0.56436  0.83328  1.0000
  C   C231      1.0  0.84560  0.81631  0.81601  1.0000
  H   H371      1.0  0.88157  0.73115  0.01348  1.0000
  C   C232      1.0  0.95523  0.61919  0.02031  1.0000
  H   H372      1.0  0.86984  0.67260  0.80381  1.0000
  H   H373      1.0  0.13831  0.83111  0.88881  1.0000
  H   H374      1.0  0.03375  0.90329  0.99568  1.0000
  S   S92       1.0  0.92562  0.86871  0.80544  1.0000
  C   C233      1.0  0.13003  0.66518  0.91310  1.0000
  C   C234      1.0  0.13363  0.68757  0.87797  1.0000
  C   C235      1.0  0.07833  0.98335  0.20315  1.0000
  H   H375      1.0  0.82902  0.12410  0.23990  1.0000
  H   H376      1.0  0.75713  0.95566  0.21672  1.0000
  Fe  Fe46      1.0  0.03481  0.09454  0.12731  1.0000
  Fe  Fe47      1.0  0.95463  0.15249  0.15883  1.0000
  S   S93       1.0  0.05975  0.00547  0.11039  1.0000
  C   C236      1.0  0.91083  0.03700  0.20748  1.0000
  H   H377      1.0  0.93330  0.03372  0.18502  1.0000
  C   C237      1.0  0.88220  0.08507  0.20998  1.0000
  S   S94       1.0  0.01078  0.10514  0.18408  1.0000
  S   S95       1.0  0.97525  0.13438  0.10169  1.0000
  H   H378      1.0  0.93203  0.95515  0.23163  1.0000
  H   H379      1.0  0.81415  0.96066  0.20559  1.0000
  H   H380      1.0  0.80614  0.32116  0.06019  1.0000
  C   C238      1.0  0.90991  0.99236  0.23373  1.0000
  C   C239      1.0  0.88067  0.99596  0.26277  1.0000
  C   C240      1.0  0.85131  0.04334  0.26482  1.0000
  C   C241      1.0  0.85175  0.08750  0.23820  1.0000
  C   C242      1.0  0.05558  0.00179  0.06327  1.0000
  C   C243      1.0  0.78961  0.93523  0.22151  1.0000
  H   H381      1.0  0.91843  0.25919  0.05468  1.0000
  S   S96       1.0  0.88604  0.14391  0.17925  1.0000
  H   H382      1.0  0.81596  0.36325  0.10104  1.0000
  C   C244      1.0  0.89027  0.28903  0.04964  1.0000
  H   H383      1.0  0.84099  0.38507  0.05944  1.0000
  H   H384      1.0  0.88302  0.22597  0.11110  1.0000
  N   N23       1.0  0.86954  0.30812  0.08392  1.0000
  C   C245      1.0  0.95930  0.15671  0.26995  1.0000
  H   H385      1.0  0.95714  0.26477  0.23953  1.0000
  S   S97       1.0  0.07470  0.17816  0.12760  1.0000
  C   C246      1.0  0.83145  0.34592  0.07583  1.0000
  S   S98       1.0  0.98674  0.24143  0.16220  1.0000
  S   S99       1.0  0.01074  0.29290  0.06671  1.0000
  Fe  Fe48      1.0  0.01291  0.21942  0.10706  1.0000
  H   H386      1.0  0.04744  0.98290  0.18729  1.0000
  C   C247      1.0  0.12429  0.15349  0.28177  1.0000
  H   H387      1.0  0.83932  0.26826  0.13040  1.0000
  H   H388      1.0  0.79747  0.94173  0.25071  1.0000
  H   H389      1.0  0.07114  0.00273  0.23032  1.0000
  S   S100      1.0  0.87995  0.93926  0.29509  1.0000
  H   H390      1.0  0.06480  0.09580  0.05602  1.0000
  H   H391      1.0  0.13070  0.14009  0.19013  1.0000
  S   S101      1.0  0.07927  0.22066  0.23317  1.0000
  H   H392      1.0  0.95211  0.30621  0.28090  1.0000
  Fe  Fe49      1.0  0.04500  0.19256  0.18244  1.0000
  C   C248      1.0  0.85506  0.25538  0.10433  1.0000
  C   C249      1.0  0.11611  0.16500  0.24524  1.0000
  H   H393      1.0  0.10105  0.01424  0.18911  1.0000
  H   H394      1.0  0.83098  0.22865  0.08856  1.0000
  H   H395      1.0  0.88685  0.35860  0.13158  1.0000
  C   C250      1.0  0.13634  0.92500  0.22881  1.0000
  H   H396      1.0  0.93049  0.31476  0.11257  1.0000
  H   H397      1.0  0.91379  0.38145  0.09102  1.0000
  C   C251      1.0  0.13688  0.13127  0.21841  1.0000
  N   N24       1.0  0.09694  0.92311  0.20581  1.0000
  C   C252      1.0  0.96385  0.26356  0.26911  1.0000
  H   H398      1.0  0.99531  0.15306  0.27344  1.0000
  C   C253      1.0  0.90147  0.34206  0.10584  1.0000
  H   H399      1.0  0.99992  0.26215  0.27266  1.0000
  H   H400      1.0  0.82766  0.04545  0.28649  1.0000
  H   H401      1.0  0.95247  0.15507  0.24040  1.0000
  H   H402      1.0  0.85146  0.39560  0.26195  1.0000
  H   H403      1.0  0.12889  0.94179  0.25658  1.0000
  N   N25       1.0  0.94236  0.21210  0.28629  1.0000
  H   H404      1.0  0.13230  0.93191  0.15573  1.0000
  H   H405      1.0  0.88663  0.21468  0.25093  1.0000
  H   H406      1.0  0.94382  0.11679  0.28217  1.0000
  C   C254      1.0  0.89472  0.21545  0.28035  1.0000
  H   H407      1.0  0.88854  0.09476  0.05249  1.0000
  H   H408      1.0  0.87743  0.17752  0.29318  1.0000
  H   H409      1.0  0.88087  0.25706  0.29195  1.0000
  C   C255      1.0  0.04776  0.94733  0.04608  1.0000
  S   S102      1.0  0.70392  0.07862  0.36118  1.0000
  Fe  Fe50      1.0  0.84170  0.96151  0.34534  1.0000
  Fe  Fe51      1.0  0.90749  0.39179  0.38733  1.0000
  Fe  Fe52      1.0  0.96411  0.38042  0.45333  1.0000
  S   S103      1.0  0.82863  0.05399  0.36456  1.0000
  S   S104      1.0  0.77658  0.99363  0.43333  1.0000
  H   H410      1.0  0.83107  0.26377  0.48463  1.0000
  H   H411      1.0  0.85691  0.21173  0.45459  1.0000
  Fe  Fe53      1.0  0.84512  0.01949  0.41964  1.0000
  S   S105      1.0  0.88008  0.08503  0.45532  1.0000
  H   H412      1.0  0.88042  0.38454  0.54385  1.0000
  Fe  Fe54      1.0  0.76109  0.02168  0.37676  1.0000
  H   H413      1.0  0.70324  0.06208  0.43913  1.0000
  C   C256      1.0  0.99483  0.36690  0.54448  1.0000
  H   H414      1.0  0.98728  0.21041  0.33100  1.0000
  C   C257      1.0  0.91127  0.99550  0.49870  1.0000
  C   C258      1.0  0.90757  0.05667  0.49313  1.0000
  C   C259      1.0  0.67170  0.07763  0.43085  1.0000
  C   C260      1.0  0.93392  0.97432  0.52908  1.0000
  H   H415      1.0  0.89709  0.96462  0.47948  1.0000
  H   H416      1.0  0.92366  0.14378  0.51371  1.0000
  S   S106      1.0  0.80709  0.38462  0.49467  1.0000
  C   C261      1.0  0.92612  0.09645  0.51807  1.0000
  S   S107      1.0  0.89486  0.36716  0.32950  1.0000
  C   C262      1.0  0.82650  0.22075  0.47019  1.0000
  S   S108      1.0  0.86443  0.92893  0.39953  1.0000
  C   C263      1.0  0.95159  0.21264  0.32558  1.0000
  H   H417      1.0  0.64549  0.07593  0.48493  1.0000
  H   H418      1.0  0.74329  0.20129  0.48941  1.0000
  N   N26       1.0  0.78780  0.22170  0.44626  1.0000
  H   H419      1.0  0.82386  0.18533  0.49095  1.0000
  S   S109      1.0  0.77244  0.93174  0.35208  1.0000
  C   C264      1.0  0.00871  0.26209  0.53553  1.0000
  C   C265      1.0  0.00819  0.31998  0.52211  1.0000
  H   H420      1.0  0.77866  0.12726  0.44885  1.0000
  S   S110      1.0  0.02133  0.33340  0.47680  1.0000
  H   H421      1.0  0.01849  0.22563  0.51811  1.0000
  H   H422      1.0  0.79737  0.31257  0.43063  1.0000
  H   H423      1.0  0.93913  0.25390  0.33873  1.0000
  H   H424      1.0  0.93706  0.92705  0.53326  1.0000
  H   H425      1.0  0.75395  0.16179  0.41016  1.0000
  C   C266      1.0  0.78275  0.16313  0.42857  1.0000
  S   S111      1.0  0.90579  0.32886  0.43399  1.0000
  H   H426      1.0  0.75108  0.27922  0.48145  1.0000
  H   H427      1.0  0.71859  0.23539  0.45070  1.0000
  H   H428      1.0  0.82317  0.25910  0.40153  1.0000
  H   H429      1.0  0.76508  0.26924  0.39963  1.0000
  C   C267      1.0  0.79360  0.26766  0.41826  1.0000
  H   H430      1.0  0.81211  0.15195  0.41226  1.0000
  C   C268      1.0  0.74842  0.23499  0.46793  1.0000
  H   H431      1.0  0.10816  0.17943  0.30258  1.0000
  C   C269      1.0  0.66357  0.09007  0.39443  1.0000
  Fe  Fe55      1.0  0.86770  0.40023  0.46220  1.0000
  H   H432      1.0  0.93587  0.17435  0.33940  1.0000
  H   H433      1.0  0.88336  0.24635  0.70130  1.0000
  C   C270      1.0  0.09412  0.25877  0.63714  1.0000
  S   S112      1.0  0.98907  0.03353  0.69368  1.0000
  H   H434      1.0  0.11946  0.23087  0.62380  1.0000
  C   C271      1.0  0.85158  0.21440  0.79037  1.0000
  S   S113      1.0  0.03250  0.13416  0.64000  1.0000
  S   S114      1.0  0.92559  0.11822  0.64268  1.0000
  C   C272      1.0  0.78114  0.17993  0.76902  1.0000
  S   S115      1.0  0.97861  0.98787  0.59304  1.0000
  Fe  Fe56      1.0  0.93346  0.09643  0.70112  1.0000
  Fe  Fe57      1.0  0.98388  0.05969  0.63525  1.0000
  H   H435      1.0  0.08552  0.23738  0.66331  1.0000
  S   S116      1.0  0.97619  0.17450  0.71297  1.0000
  C   C273      1.0  0.80609  0.21986  0.78948  1.0000
  Fe  Fe58      1.0  0.03183  0.11395  0.69941  1.0000
  H   H436      1.0  0.84162  0.02258  0.64421  1.0000
  H   H437      1.0  0.82220  0.98464  0.68352  1.0000
  C   C274      1.0  0.82863  0.97932  0.65397  1.0000
  C   C275      1.0  0.12060  0.34678  0.60747  1.0000
  H   H438      1.0  0.79689  0.97101  0.64023  1.0000
  H   H439      1.0  0.74598  0.18409  0.76836  1.0000
  C   C276      1.0  0.80154  0.13318  0.75049  1.0000
  S   S117      1.0  0.08922  0.12263  0.73699  1.0000
  H   H440      1.0  0.87268  0.25130  0.65371  1.0000
  S   S118      1.0  0.87188  0.06872  0.72850  1.0000
  C   C277      1.0  0.84699  0.12783  0.75125  1.0000
  H   H441      1.0  0.94832  0.06002  0.77950  1.0000
  H   H442      1.0  0.78211  0.10124  0.73552  1.0000
  H   H443      1.0  0.83076  0.22557  0.68409  1.0000
  C   C278      1.0  0.82348  0.32684  0.72249  1.0000
  C   C279      1.0  0.80952  0.33360  0.65830  1.0000
  S   S119      1.0  0.96605  0.28527  0.63823  1.0000
  Fe  Fe59      1.0  0.97424  0.19014  0.65341  1.0000
  C   C280      1.0  0.98151  0.35591  0.58009  1.0000
  C   C281      1.0  0.85794  0.25802  0.68103  1.0000
  C   C282      1.0  0.87210  0.16911  0.77058  1.0000
  H   H444      1.0  0.81127  0.37279  0.72703  1.0000
  H   H445      1.0  0.99448  0.20605  0.58102  1.0000
  C   C283      1.0  0.86700  0.92467  0.60745  1.0000
  N   N27       1.0  0.85982  0.93069  0.64689  1.0000
  N   N28       1.0  0.10952  0.32020  0.64284  1.0000
  H   H446      1.0  0.79544  0.29607  0.72655  1.0000
  C   C284      1.0  0.98136  0.29792  0.59330  1.0000
  C   C285      1.0  0.99492  0.25098  0.57106  1.0000
  C   C286      1.0  0.07465  0.35541  0.66032  1.0000
  H   H447      1.0  0.87033  0.40765  0.68768  1.0000
  H   H448      1.0  0.91572  0.98632  0.65428  1.0000
  C   C287      1.0  0.88006  0.36092  0.68216  1.0000
  H   H449      1.0  0.06435  0.33547  0.68649  1.0000
  H   H450      1.0  0.09179  0.34758  0.58902  1.0000
  H   H451      1.0  0.96264  0.10632  0.56754  1.0000
  H   H452      1.0  0.04513  0.35767  0.64283  1.0000
  N   N29       1.0  0.84274  0.31979  0.68600  1.0000
  H   H453      1.0  0.84779  0.31748  0.74408  1.0000
  C   C288      1.0  0.95218  0.01427  0.55415  1.0000
  H   H454      1.0  0.89774  0.94963  0.69470  1.0000
  H   H455      1.0  0.97129  0.39232  0.59731  1.0000
  H   H456      1.0  0.82308  0.32917  0.63040  1.0000
  H   H457      1.0  0.79755  0.38005  0.66126  1.0000
  H   H458      1.0  0.06461  0.25748  0.61968  1.0000
  H   H459      1.0  0.78080  0.30350  0.66032  1.0000
  H   H460      1.0  0.90718  0.16514  0.77113  1.0000
  H   H461      1.0  0.90709  0.34956  0.70097  1.0000
  C   C289      1.0  0.13772  0.14611  0.71597  1.0000
  H   H462      1.0  0.12139  0.11038  0.66347  1.0000
  C   C290      1.0  0.90171  0.94438  0.66484  1.0000
  H   H463      1.0  0.87949  0.96671  0.59560  1.0000
  H   H464      1.0  0.89360  0.35944  0.65420  1.0000
  H   H465      1.0  0.08551  0.40177  0.66577  1.0000
  H   H466      1.0  0.14109  0.29862  0.69313  1.0000
  H   H467      1.0  0.13243  0.39332  0.61056  1.0000
  H   H468      1.0  0.99135  0.15378  0.79055  1.0000
  C   C291      1.0  0.94814  0.07530  0.54861  1.0000
  H   H469      1.0  0.83639  0.91252  0.59296  1.0000
  H   H470      1.0  0.02856  0.05749  0.78340  1.0000
  C   C292      1.0  0.85399  0.40926  0.55615  1.0000
  N   N30       1.0  0.89032  0.07284  0.99573  1.0000
  Fe  Fe60      1.0  0.98303  0.92055  0.92826  1.0000
  C   C293      1.0  0.00583  0.21185  0.01051  1.0000
  C   C294      1.0  0.00490  0.27162  0.02119  1.0000
  S   S120      1.0  0.02689  0.99686  0.94245  1.0000
  N   N31       1.0  0.66491  0.26124  0.89452  1.0000
  C   C295      1.0  0.70424  0.22527  0.90163  1.0000
  H   H471      1.0  0.95279  0.09234  0.87833  1.0000
  N   N32       1.0  0.98566  0.08069  0.82734  1.0000
  H   H472      1.0  0.69585  0.17759  0.90515  1.0000
  C   C296      1.0  0.04011  0.94532  0.00869  1.0000
  H   H473      1.0  0.70444  0.40041  0.00262  1.0000
  H   H474      1.0  0.69287  0.34203  0.91539  1.0000
  C   C297      1.0  0.04110  0.99754  0.98842  1.0000
  H   H475      1.0  0.99755  0.15021  0.96582  1.0000
  C   C298      1.0  0.94708  0.05404  0.80939  1.0000
  C   C299      1.0  0.70932  0.23040  0.01818  1.0000
  H   H476      1.0  0.94485  0.00538  0.81440  1.0000
  H   H477      1.0  0.12993  0.95543  0.95567  1.0000
  H   H478      1.0  0.02579  0.00365  0.81890  1.0000
  C   C300      1.0  0.93198  0.04031  0.99861  1.0000
  H   H479      1.0  0.91556  0.13685  0.95799  1.0000
  C   C301      1.0  0.98732  0.14503  0.81994  1.0000
  H   H480      1.0  0.82149  0.05356  0.99608  1.0000
  H   H481      1.0  0.05405  0.09150  0.98960  1.0000
  C   C302      1.0  0.98268  0.07154  0.86684  1.0000
  H   H482      1.0  0.72118  0.24028  0.92677  1.0000
  C   C303      1.0  0.05177  0.05133  0.00532  1.0000
  H   H483      1.0  0.93563  0.00702  0.97643  1.0000
  C   C304      1.0  0.88724  0.11669  0.02558  1.0000
  H   H484      1.0  0.96040  0.07097  0.99695  1.0000
  H   H485      1.0  0.01103  0.09171  0.88136  1.0000
  H   H486      1.0  0.64875  0.35229  0.88414  1.0000
  H   H487      1.0  0.99632  0.36177  0.00360  1.0000
  H   H488      1.0  0.70146  0.32959  0.86767  1.0000
  C   C305      1.0  0.88851  0.10407  0.96067  1.0000
  H   H489      1.0  0.85470  0.99693  0.97573  1.0000
  C   C306      1.0  0.85350  0.03047  0.99802  1.0000
  H   H490      1.0  0.89102  0.07250  0.93746  1.0000
  H   H491      1.0  0.72812  0.22839  0.87893  1.0000
  H   H492      1.0  0.66553  0.24321  0.83723  1.0000
  C   C307      1.0  0.05801  0.05372  0.04287  1.0000
  H   H493      1.0  0.98135  0.33403  0.93986  1.0000
  Fe  Fe61      1.0  0.85690  0.38630  0.91402  1.0000
  S   S121      1.0  0.88355  0.31865  0.95223  1.0000
  C   C308      1.0  0.66927  0.32307  0.02052  1.0000
  Fe  Fe62      1.0  0.82155  0.29445  0.86274  1.0000
  S   S122      1.0  0.84528  0.21796  0.89552  1.0000
  H   H494      1.0  0.98212  0.02355  0.87355  1.0000
  Fe  Fe63      1.0  0.82144  0.26981  0.94318  1.0000
  C   C309      1.0  0.70580  0.35301  0.00706  1.0000
  Fe  Fe64      1.0  0.90609  0.27177  0.90191  1.0000
  S   S123      1.0  0.96842  0.22071  0.90579  1.0000
  S   S124      1.0  0.79160  0.34181  0.90986  1.0000
  S   S125      1.0  0.88518  0.34403  0.86399  1.0000
  S   S126      1.0  0.91757  0.93769  0.90334  1.0000
  H   H495      1.0  0.93459  0.01624  0.02475  1.0000
  C   C310      1.0  0.98824  0.24020  0.94881  1.0000
  C   C311      1.0  0.74363  0.32137  0.99815  1.0000
  H   H496      1.0  0.77163  0.34465  0.98741  1.0000
  H   H497      1.0  0.71050  0.18293  0.02230  1.0000
  C   C312      1.0  0.98867  0.29986  0.95938  1.0000
  H   H498      1.0  0.01239  0.17781  0.03021  1.0000
  S   S127      1.0  0.79046  0.21963  0.98852  1.0000
  S   S128      1.0  0.78044  0.27651  0.81395  1.0000
  C   C313      1.0  0.67126  0.26194  0.02664  1.0000
  C   C314      1.0  0.99704  0.31554  0.99546  1.0000
  C   C315      1.0  0.99781  0.19624  0.97416  1.0000
  H   H499      1.0  0.87096  0.24540  0.80607  1.0000
  C   C316      1.0  0.74511  0.25997  0.00322  1.0000
  C   C317      1.0  0.12224  0.91562  0.93878  1.0000
  H   H500      1.0  0.95713  0.16778  0.82941  1.0000
  H   H501      1.0  0.85734  0.12892  0.95772  1.0000
  H   H502      1.0  0.91457  0.14934  0.02443  1.0000
  H   H503      1.0  0.85385  0.00564  0.02399  1.0000
  H   H504      1.0  0.01521  0.16671  0.83422  1.0000
  C   C318      1.0  0.02565  0.05213  0.81327  1.0000
  H   H505      1.0  0.91616  0.07444  0.81916  1.0000
  H   H506      1.0  0.05551  0.07193  0.82561  1.0000
  C   C319      1.0  0.67758  0.32411  0.89020  1.0000
  H   H507      1.0  0.85613  0.14205  0.02418  1.0000
  H   H508      1.0  0.90311  0.32775  0.03429  1.0000
  H   H509      1.0  0.86673  0.26525  0.03174  1.0000
  H   H510      1.0  0.64955  0.27102  0.95108  1.0000
  H   H511      1.0  0.11490  0.93127  0.91092  1.0000
  H   H512      1.0  0.64346  0.23895  0.03790  1.0000
  C   C320      1.0  0.64339  0.23976  0.86107  1.0000
