data_image0
_chemical_formula_structural       H3C2SH2CH5CHNCH5C2H3FeS2FeS2FeSFeHS2FeS2FeSFeSFeS3C3HC6H4C4H2CH2CH3NCHCH3C2HC3HCH4SCH3NH3CH2FeS3CFeS2FeSHFeHFeHS2HC2HCH2C7H4CH2NCHNC3H3CSCH2CSCH5SC2H2FeS2FeHNSHSC2SCFeH4CHCHCHCH4CH3CH4CH9CHC2H3CH2CFeSCFeS2FeSFeS2FeS2FeSHFeSFeS3CH2C6H5CH2CSHCNHCHCH2CH3CHC2HCNCH2CHNH4NCHSHCH2CH4C2HCH5C4HFeS2H2FeS2FeSHFeCFeCS2H2NSHC7H4C2H3C3SHNC2SCSCH2CHNH4SH3CH4CH4C2H2CHCHFeSCH4FeCHCFeCSH2SH2CHC2H2CH3CH4CFeS2CHC3HC3H3CHCHCH3C3H2SH2CH3CH2CH2CHSFeCSH2CH2CHCH2FeS2FeS2FeS2FeCFeHS2C2H3C3FeHNHNSCHC3H2CSCH4C2HCH3C2HCSCHCH2C2NCH3CHCHCH3CH3CH3C2H5CNSCH2CHCHFeS3C6H4C4HCHCHCH4CH4SHNC2HCH3CH2SHFe2H3CSH3C2HFeS2FeS2FeS2FeHFeHS2C2HCNH2C4H4C6H4CNCSCHSH2CHCH2C2H7CHCHNC3H5SHCH3CHCH3SCHC2HCH2CHCH2CHCH8C4HCSHCH2FeSHFeS2FeS2FeSFeCS2H2SH2SH2C6H4C6H6NC4H7SCHC2H3SH2C4NCHSNC5H6CH2NHFeS2C2H2C2NH3CH2FeCHC7H4CFeH6CHCHSH8C2H4CH5CH3C2HC2HCH3C2H2CS2FeS2FeS2FeHFeS4HCHC3HC6H4C6H2CSHCHCNH3CHNCH2CH2CH2NC2FeCHCHNCHCH2CNHCH5CH2SHCH5FeHCH2CH3SHFeSC2HC2H2SC7H2SFeSH5CH15FeS2C2H2CHCHCHC2HCHCFeSCHCHCH2NHC2HCH3FeHSH7CHCH2NCFeS2FeS2FeS2FeHFeCS2HSCH6C6H4CHC2HCNH4SHCH4CH2NHC3HCH9CH5NH3NH4SFeSHFeSFeSFeHS2FeS2FeH2FeHS2HC6H5CH2C2SCHCHCH5CS2FeH2SH2NSH3CH2CH3CH2C2H2C2NHCSH2CH4CFeS2CNHSH3CHCHSNHSC3HCHCH5SFeHSCHFeHCHCH7CHCH2FeS2FeS2FeS2FeCFeHS2H5CH3C6H4C2HCHCNC2HCSH2NH5C2H4FeSHFeS2FeSFeS3NH2FeS2FeHFeHFeHS2H3CH2C7H4C2HCH3NCH3C2SHSH4NCSCH7C2H2CH3C3NH5C4HSCH2CHCH3CH2C2NH10
_chemical_formula_sum              "H768 C480 S192 N48 Fe96"
_cell_length_a       50.6773
_cell_length_b       50.7948
_cell_length_c       48.2397
_cell_angle_alpha    90.072
_cell_angle_beta     89.764
_cell_angle_gamma    120.017

_space_group_name_H-M_alt    "P 1"
_space_group_IT_number       1

loop_
  _space_group_symop_operation_xyz
  'x, y, z'

loop_
  _atom_site_type_symbol
  _atom_site_label
  _atom_site_symmetry_multiplicity
  _atom_site_fract_x
  _atom_site_fract_y
  _atom_site_fract_z
  _atom_site_occupancy
  H   H1        1.0  0.27854  0.32316  0.18545  1.0000
  H   H2        1.0  0.06854  0.48305  0.14670  1.0000
  H   H3        1.0  0.06052  0.31071  0.15450  1.0000
  C   C1        1.0  0.02971  0.35746  0.01424  1.0000
  C   C2        1.0  0.39957  0.02993  0.01892  1.0000
  S   S1        1.0  0.38098  0.00798  0.07192  1.0000
  H   H4        1.0  0.02753  0.48639  0.06748  1.0000
  H   H5        1.0  0.39251  0.33739  0.23705  1.0000
  C   C3        1.0  0.11572  0.34151  0.17755  1.0000
  H   H6        1.0  0.12150  0.36469  0.17062  1.0000
  H   H7        1.0  0.09326  0.36759  0.21098  1.0000
  H   H8        1.0  0.11534  0.32882  0.15854  1.0000
  H   H9        1.0  0.27686  0.29788  0.21232  1.0000
  H   H10       1.0  0.06541  0.33373  0.22824  1.0000
  C   C4        1.0  0.08766  0.34419  0.21701  1.0000
  H   H11       1.0  0.27188  0.45940  0.12531  1.0000
  N   N1        1.0  0.08618  0.32611  0.19242  1.0000
  C   C5        1.0  0.28868  0.46520  0.10816  1.0000
  H   H12       1.0  0.10538  0.34639  0.23187  1.0000
  H   H13       1.0  0.13477  0.34406  0.19078  1.0000
  H   H14       1.0  0.05789  0.46664  0.02332  1.0000
  H   H15       1.0  0.33147  0.38062  0.21110  1.0000
  H   H16       1.0  0.07794  0.28129  0.18300  1.0000
  C   C6        1.0  0.30763  0.37457  0.21585  1.0000
  C   C7        1.0  0.33101  0.48571  0.13996  1.0000
  H   H17       1.0  0.29776  0.37781  0.19646  1.0000
  H   H18       1.0  0.03429  0.45491  0.06970  1.0000
  H   H19       1.0  0.32679  0.34357  0.24802  1.0000
  Fe  Fe1       1.0  0.34629  0.38203  0.10071  1.0000
  S   S2        1.0  0.33505  0.41965  0.10069  1.0000
  S   S3        1.0  0.33666  0.34961  0.06419  1.0000
  Fe  Fe2       1.0  0.36534  0.39226  0.16219  1.0000
  S   S4        1.0  0.35637  0.43112  0.16636  1.0000
  S   S5        1.0  0.37901  0.36959  0.19599  1.0000
  Fe  Fe3       1.0  0.31310  0.40257  0.14227  1.0000
  S   S6        1.0  0.27360  0.40681  0.16070  1.0000
  Fe  Fe4       1.0  0.37867  0.44601  0.12461  1.0000
  H   H20       1.0  0.33012  0.30967  0.01917  1.0000
  S   S7        1.0  0.32052  0.36242  0.14085  1.0000
  S   S8        1.0  0.39156  0.40954  0.12188  1.0000
  Fe  Fe5       1.0  0.11244  0.39508  0.12000  1.0000
  S   S9        1.0  0.06174  0.36471  0.11292  1.0000
  S   S10       1.0  0.14318  0.37455  0.11273  1.0000
  Fe  Fe6       1.0  0.10501  0.44989  0.13214  1.0000
  S   S11       1.0  0.05442  0.42367  0.12627  1.0000
  Fe  Fe7       1.0  0.05608  0.38717  0.15124  1.0000
  S   S12       1.0  0.01784  0.35819  0.18198  1.0000
  Fe  Fe8       1.0  0.06386  0.40339  0.08850  1.0000
  S   S13       1.0  0.03856  0.40490  0.04965  1.0000
  S   S14       1.0  0.10643  0.41478  0.15983  1.0000
  S   S15       1.0  0.11482  0.43229  0.09290  1.0000
  C   C8        1.0  0.01681  0.35954  0.21878  1.0000
  C   C9        1.0  0.28945  0.32185  0.20499  1.0000
  C   C10       1.0  0.02577  0.38249  0.01893  1.0000
  H   H21       1.0  0.31307  0.32720  0.19961  1.0000
  C   C11       1.0  0.18029  0.38559  0.12535  1.0000
  C   C12       1.0  0.19733  0.37409  0.11227  1.0000
  C   C13       1.0  0.22619  0.38088  0.12234  1.0000
  C   C14       1.0  0.23805  0.39869  0.14613  1.0000
  C   C15       1.0  0.22105  0.41021  0.15924  1.0000
  C   C16       1.0  0.19250  0.40400  0.14878  1.0000
  H   H22       1.0  0.18808  0.35973  0.09419  1.0000
  H   H23       1.0  0.23888  0.37177  0.11202  1.0000
  H   H24       1.0  0.23000  0.42407  0.17763  1.0000
  H   H25       1.0  0.17975  0.41304  0.15910  1.0000
  C   C17       1.0  0.07939  0.29548  0.20119  1.0000
  C   C18       1.0  0.04295  0.37735  0.23450  1.0000
  C   C19       1.0  0.38650  0.37626  0.23214  1.0000
  C   C20       1.0  0.30349  0.33977  0.25195  1.0000
  H   H26       1.0  0.38185  0.41606  0.23454  1.0000
  H   H27       1.0  0.08714  0.46386  0.06233  1.0000
  C   C21       1.0  0.35842  0.35576  0.03329  1.0000
  H   H28       1.0  0.06593  0.34607  0.16757  1.0000
  H   H29       1.0  0.05723  0.28335  0.21249  1.0000
  C   C22       1.0  0.06185  0.32333  0.17382  1.0000
  H   H30       1.0  0.39071  0.40282  0.04108  1.0000
  H   H31       1.0  0.42075  0.04626  0.02860  1.0000
  H   H32       1.0  0.29099  0.44477  0.10462  1.0000
  N   N2        1.0  0.28966  0.34303  0.22618  1.0000
  C   C23       1.0  0.38373  0.38402  0.02685  1.0000
  H   H33       1.0  0.06435  0.39208  0.22418  1.0000
  C   C24       1.0  0.35497  0.01139  0.25432  1.0000
  H   H34       1.0  0.04101  0.35118  0.02966  1.0000
  H   H35       1.0  0.44184  0.48498  0.15192  1.0000
  H   H36       1.0  0.03906  0.31155  0.18411  1.0000
  C   C25       1.0  0.38577  0.40009  0.24606  1.0000
  C   C26       1.0  0.34967  0.33162  0.01441  1.0000
  H   H37       1.0  0.25749  0.35139  0.24791  1.0000
  C   C27       1.0  0.39193  0.35594  0.24756  1.0000
  C   C28       1.0  0.04458  0.47975  0.07344  1.0000
  C   C29       1.0  0.37596  0.00769  0.03542  1.0000
  H   H38       1.0  0.09736  0.29670  0.21521  1.0000
  C   C30       1.0  0.25810  0.33599  0.23179  1.0000
  H   H39       1.0  0.04821  0.48331  0.09613  1.0000
  H   H40       1.0  0.33475  0.46625  0.13633  1.0000
  H   H41       1.0  0.24364  0.31217  0.23915  1.0000
  H   H42       1.0  0.27860  0.46889  0.08915  1.0000
  S   S16       1.0  0.40495  0.49572  0.11251  1.0000
  C   C31       1.0  0.09552  0.48822  0.06694  1.0000
  H   H43       1.0  0.33884  0.01933  0.25260  1.0000
  H   H44       1.0  0.34358  0.48024  0.08678  1.0000
  H   H45       1.0  0.31533  0.47963  0.15808  1.0000
  N   N3        1.0  0.31831  0.49218  0.11506  1.0000
  H   H46       1.0  0.30857  0.39131  0.23128  1.0000
  H   H47       1.0  0.24736  0.33886  0.21276  1.0000
  H   H48       1.0  0.09958  0.49131  0.08962  1.0000
  C   C32       1.0  0.06761  0.49132  0.02794  1.0000
  H   H49       1.0  0.39826  0.11802  0.01391  1.0000
  H   H50       1.0  0.33609  0.08081  0.29334  1.0000
  Fe  Fe9       1.0  0.42391  0.31103  0.37881  1.0000
  S   S17       1.0  0.38054  0.31348  0.37656  1.0000
  S   S18       1.0  0.43390  0.27497  0.36079  1.0000
  S   S19       1.0  0.36728  0.03802  0.30634  1.0000
  C   C33       1.0  0.01106  0.36825  0.47840  1.0000
  Fe  Fe10      1.0  0.41875  0.10754  0.38679  1.0000
  S   S20       1.0  0.37876  0.05950  0.38595  1.0000
  S   S21       1.0  0.40736  0.14378  0.40157  1.0000
  Fe  Fe11      1.0  0.46265  0.08621  0.36737  1.0000
  S   S22       1.0  0.42546  0.03741  0.36488  1.0000
  H   H51       1.0  0.37377  0.03804  0.47337  1.0000
  Fe  Fe12      1.0  0.39773  0.05523  0.34480  1.0000
  H   H52       1.0  0.47960  0.31041  0.44399  1.0000
  Fe  Fe13      1.0  0.40996  0.04581  0.40635  1.0000
  H   H53       1.0  0.39881  0.13313  0.33924  1.0000
  S   S23       1.0  0.43586  0.10382  0.34477  1.0000
  S   S24       1.0  0.44910  0.09400  0.40982  1.0000
  H   H54       1.0  0.47338  0.46986  0.37609  1.0000
  C   C34       1.0  0.48271  0.04728  0.42196  1.0000
  C   C35       1.0  0.33427  0.10068  0.30078  1.0000
  H   H55       1.0  0.34321  0.07033  0.34180  1.0000
  C   C36       1.0  0.37249  0.01768  0.27862  1.0000
  H   H56       1.0  0.41289  0.38269  0.47124  1.0000
  H   H57       1.0  0.49126  0.01792  0.46378  1.0000
  C   C37       1.0  0.39013  0.40326  0.27504  1.0000
  C   C38       1.0  0.42631  0.23858  0.37267  1.0000
  C   C39       1.0  0.40930  0.22501  0.39665  1.0000
  C   C40       1.0  0.40405  0.19618  0.40521  1.0000
  C   C41       1.0  0.41586  0.18060  0.39011  1.0000
  C   C42       1.0  0.43315  0.19432  0.36627  1.0000
  C   C43       1.0  0.43820  0.22304  0.35759  1.0000
  H   H58       1.0  0.39990  0.23653  0.40848  1.0000
  H   H59       1.0  0.39058  0.18580  0.42366  1.0000
  H   H60       1.0  0.44267  0.18287  0.35452  1.0000
  H   H61       1.0  0.45147  0.23333  0.33903  1.0000
  C   C44       1.0  0.39325  0.00721  0.28046  1.0000
  H   H62       1.0  0.35839  0.15838  0.31986  1.0000
  H   H63       1.0  0.31671  0.08188  0.35315  1.0000
  N   N4        1.0  0.48957  0.45970  0.33850  1.0000
  C   C45       1.0  0.34959  0.13996  0.33569  1.0000
  H   H64       1.0  0.00243  0.46703  0.31358  1.0000
  N   N5        1.0  0.35236  0.11374  0.32621  1.0000
  C   C46       1.0  0.37525  0.02103  0.48568  1.0000
  C   C47       1.0  0.38467  0.12391  0.32027  1.0000
  C   C48       1.0  0.48253  0.29644  0.42779  1.0000
  H   H65       1.0  0.02147  0.41860  0.30825  1.0000
  H   H66       1.0  0.35424  0.09946  0.36772  1.0000
  H   H67       1.0  0.36288  0.14997  0.35503  1.0000
  C   C49       1.0  0.34110  0.09031  0.34818  1.0000
  S   S25       1.0  0.39964  0.00854  0.43865  1.0000
  C   C50       1.0  0.47395  0.47070  0.31998  1.0000
  H   H68       1.0  0.44994  0.45253  0.31606  1.0000
  H   H69       1.0  0.40038  0.34323  0.28803  1.0000
  C   C51       1.0  0.04147  0.37579  0.26371  1.0000
  S   S26       1.0  0.01341  0.35601  0.31441  1.0000
  C   C52       1.0  0.01367  0.35735  0.27759  1.0000
  H   H70       1.0  0.46595  0.41446  0.32165  1.0000
  H   H71       1.0  0.38937  0.42168  0.28559  1.0000
  H   H72       1.0  0.44898  0.43254  0.36242  1.0000
  H   H73       1.0  0.03615  0.45320  0.28853  1.0000
  H   H74       1.0  0.30970  0.09263  0.30443  1.0000
  S   S27       1.0  0.43467  0.32910  0.42243  1.0000
  C   C53       1.0  0.39637  0.35916  0.27652  1.0000
  C   C54       1.0  0.03877  0.38667  0.49211  1.0000
  H   H75       1.0  0.48573  0.05785  0.40117  1.0000
  H   H76       1.0  0.47321  0.49043  0.32916  1.0000
  Fe  Fe14      1.0  0.46007  0.37521  0.40256  1.0000
  S   S28       1.0  0.41986  0.38222  0.40205  1.0000
  S   S29       1.0  0.45283  0.35746  0.35913  1.0000
  Fe  Fe15      1.0  0.41030  0.36090  0.35950  1.0000
  H   H77       1.0  0.05697  0.40595  0.48137  1.0000
  N   N6        1.0  0.48278  0.01829  0.42021  1.0000
  S   S30       1.0  0.36085  0.32383  0.45590  1.0000
  H   H78       1.0  0.32548  0.13321  0.34027  1.0000
  S   S31       1.0  0.40047  0.38787  0.32699  1.0000
  C   C55       1.0  0.39538  0.38280  0.29047  1.0000
  C   C56       1.0  0.39629  0.37527  0.48787  1.0000
  S   S32       1.0  0.00658  0.37824  0.44421  1.0000
  C   C57       1.0  0.01772  0.42899  0.28940  1.0000
  Fe  Fe16      1.0  0.39371  0.33512  0.41928  1.0000
  H   H79       1.0  0.26846  0.39744  0.50527  1.0000
  H   H80       1.0  0.48559  0.47786  0.29949  1.0000
  H   H81       1.0  0.48690  0.32926  0.38245  1.0000
  H   H82       1.0  0.06195  0.38920  0.27568  1.0000
  C   C58       1.0  0.36910  0.34750  0.48565  1.0000
  H   H83       1.0  0.34233  0.11766  0.28366  1.0000
  C   C59       1.0  0.47323  0.45041  0.36533  1.0000
  H   H84       1.0  0.46150  0.28597  0.41496  1.0000
  C   C60       1.0  0.47482  0.00326  0.44763  1.0000
  H   H85       1.0  0.48374  0.44104  0.37959  1.0000
  C   C61       1.0  0.38725  0.00404  0.47388  1.0000
  H   H86       1.0  0.48356  0.27750  0.43834  1.0000
  H   H87       1.0  0.39427  0.14210  0.30425  1.0000
  H   H88       1.0  0.38748  0.10476  0.31253  1.0000
  H   H89       1.0  0.46088  0.04397  0.43044  1.0000
  C   C62       1.0  0.46013  0.99834  0.39949  1.0000
  H   H90       1.0  0.40689  0.01178  0.29893  1.0000
  H   H91       1.0  0.30560  0.35648  0.26799  1.0000
  H   H92       1.0  0.46553  0.00905  0.37854  1.0000
  C   C63       1.0  0.48959  0.43332  0.32556  1.0000
  H   H93       1.0  0.26836  0.36212  0.50833  1.0000
  H   H94       1.0  0.32679  0.31678  0.50612  1.0000
  H   H95       1.0  0.02058  0.41727  0.27110  1.0000
  H   H96       1.0  0.49299  0.28466  0.37576  1.0000
  C   C64       1.0  0.34783  0.33829  0.50759  1.0000
  H   H97       1.0  0.45171  0.99833  0.45443  1.0000
  H   H98       1.0  0.28988  0.31658  0.26095  1.0000
  H   H99       1.0  0.00013  0.46366  0.26188  1.0000
  H   H100      1.0  0.04527  0.44788  0.56666  1.0000
  H   H101      1.0  0.37332  0.33506  0.60204  1.0000
  H   H102      1.0  0.42670  0.39999  0.60563  1.0000
  H   H103      1.0  0.39202  0.33003  0.72695  1.0000
  H   H104      1.0  0.37861  0.36196  0.62857  1.0000
  H   H105      1.0  0.42114  0.37260  0.57967  1.0000
  C   C65       1.0  0.31627  0.40585  0.53587  1.0000
  H   H106      1.0  0.00243  0.42942  0.60292  1.0000
  C   C66       1.0  0.43099  0.38105  0.60062  1.0000
  C   C67       1.0  0.00693  0.35758  0.72294  1.0000
  H   H107      1.0  0.35490  0.02855  0.52211  1.0000
  H   H108      1.0  0.14722  0.39822  0.66179  1.0000
  H   H109      1.0  0.28216  0.43202  0.54594  1.0000
  C   C68       1.0  0.03716  0.37322  0.73207  1.0000
  H   H110      1.0  0.20086  0.42985  0.67930  1.0000
  H   H111      1.0  0.00383  0.45799  0.53167  1.0000
  C   C69       1.0  0.01989  0.35578  0.53386  1.0000
  Fe  Fe17      1.0  0.36627  0.40939  0.60311  1.0000
  S   S33       1.0  0.34815  0.44140  0.60995  1.0000
  C   C70       1.0  0.14966  0.39774  0.73202  1.0000
  Fe  Fe18      1.0  0.35734  0.38947  0.66477  1.0000
  S   S34       1.0  0.33755  0.41911  0.67594  1.0000
  S   S35       1.0  0.36903  0.35911  0.69101  1.0000
  Fe  Fe19      1.0  0.31146  0.40370  0.63565  1.0000
  S   S36       1.0  0.26005  0.38354  0.62907  1.0000
  Fe  Fe20      1.0  0.37550  0.45459  0.64932  1.0000
  S   S37       1.0  0.32826  0.37082  0.62643  1.0000
  S   S38       1.0  0.39654  0.42593  0.64058  1.0000
  Fe  Fe21      1.0  0.12371  0.42449  0.62004  1.0000
  S   S39       1.0  0.08776  0.37650  0.63039  1.0000
  S   S40       1.0  0.17548  0.44366  0.61800  1.0000
  Fe  Fe22      1.0  0.07715  0.44697  0.62119  1.0000
  S   S41       1.0  0.03878  0.40054  0.63266  1.0000
  H   H112      1.0  0.16457  0.44875  0.68025  1.0000
  Fe  Fe23      1.0  0.07128  0.39774  0.66232  1.0000
  S   S42       1.0  0.06866  0.38703  0.70873  1.0000
  Fe  Fe24      1.0  0.05826  0.38375  0.59955  1.0000
  S   S43       1.0  0.02364  0.34865  0.56931  1.0000
  S   S44       1.0  0.10842  0.44554  0.65301  1.0000
  S   S45       1.0  0.09539  0.43033  0.58689  1.0000
  C   C71       1.0  0.14116  0.38839  0.68298  1.0000
  H   H113      1.0  0.03084  0.40827  0.56243  1.0000
  H   H114      1.0  0.06473  0.39488  0.52980  1.0000
  C   C72       1.0  0.19849  0.42632  0.62076  1.0000
  C   C73       1.0  0.18608  0.39474  0.62108  1.0000
  C   C74       1.0  0.20527  0.38216  0.62386  1.0000
  C   C75       1.0  0.23706  0.40087  0.62645  1.0000
  C   C76       1.0  0.24949  0.43243  0.62608  1.0000
  C   C77       1.0  0.23031  0.44502  0.62318  1.0000
  H   H115      1.0  0.16174  0.37998  0.61890  1.0000
  H   H116      1.0  0.19538  0.35771  0.62394  1.0000
  H   H117      1.0  0.27387  0.44717  0.62799  1.0000
  H   H118      1.0  0.24020  0.46947  0.62295  1.0000
  H   H119      1.0  0.45609  0.39090  0.59910  1.0000
  C   C78       1.0  0.43037  0.36915  0.64921  1.0000
  H   H120      1.0  0.03556  0.43172  0.53277  1.0000
  H   H121      1.0  0.25337  0.35305  0.57062  1.0000
  C   C79       1.0  0.37301  0.35970  0.72780  1.0000
  S   S46       1.0  0.05990  0.48007  0.61444  1.0000
  H   H122      1.0  0.35457  0.38895  0.73608  1.0000
  C   C80       1.0  0.38079  0.38451  0.53344  1.0000
  N   N7        1.0  0.41734  0.35664  0.62168  1.0000
  H   H123      1.0  0.41365  0.31337  0.62986  1.0000
  C   C81       1.0  0.40203  0.39361  0.51158  1.0000
  H   H124      1.0  0.19539  0.39918  0.70140  1.0000
  C   C82       1.0  0.35365  0.35661  0.53142  1.0000
  H   H125      1.0  0.11656  0.38047  0.68619  1.0000
  H   H126      1.0  0.44874  0.34075  0.61355  1.0000
  C   C83       1.0  0.37054  0.00230  0.72694  1.0000
  H   H127      1.0  0.42001  0.35148  0.66573  1.0000
  H   H128      1.0  0.29174  0.42139  0.57821  1.0000
  H   H129      1.0  0.33184  0.41422  0.55401  1.0000
  C   C84       1.0  0.36393  0.37590  0.74508  1.0000
  H   H130      1.0  0.12535  0.39128  0.73551  1.0000
  C   C85       1.0  0.38404  0.34414  0.62255  1.0000
  C   C86       1.0  0.19236  0.41939  0.70007  1.0000
  H   H131      1.0  0.17136  0.45606  0.71674  1.0000
  C   C87       1.0  0.38503  0.34277  0.74003  1.0000
  N   N8        1.0  0.28390  0.39049  0.54456  1.0000
  C   C88       1.0  0.26421  0.37874  0.51986  1.0000
  H   H132      1.0  0.32224  0.42577  0.52230  1.0000
  H   H133      1.0  0.14392  0.36801  0.68348  1.0000
  C   C89       1.0  0.27754  0.41231  0.55927  1.0000
  H   H134      1.0  0.13319  0.43286  0.70433  1.0000
  N   N9        1.0  0.16014  0.41098  0.70412  1.0000
  H   H135      1.0  0.45545  0.37865  0.64957  1.0000
  H   H136      1.0  0.42585  0.38770  0.65538  1.0000
  H   H137      1.0  0.25335  0.40135  0.56630  1.0000
  H   H138      1.0  0.35756  0.99929  0.70829  1.0000
  N   N10       1.0  0.99705  0.42171  0.55892  1.0000
  C   C90       1.0  0.15723  0.43839  0.70125  1.0000
  H   H139      1.0  0.20736  0.43615  0.71584  1.0000
  S   S47       1.0  0.38964  0.40905  0.56256  1.0000
  H   H140      1.0  0.33718  0.34913  0.54814  1.0000
  C   C91       1.0  0.04324  0.38043  0.51959  1.0000
  H   H141      1.0  0.41415  0.32223  0.59371  1.0000
  H   H142      1.0  0.32170  0.39019  0.52423  1.0000
  C   C92       1.0  0.42379  0.33215  0.61436  1.0000
  H   H143      1.0  0.37283  0.32566  0.63826  1.0000
  H   H144      1.0  0.15128  0.37686  0.73482  1.0000
  H   H145      1.0  0.29189  0.37311  0.58212  1.0000
  H   H146      1.0  0.01146  0.46842  0.56766  1.0000
  C   C93       1.0  0.36812  0.01862  0.74965  1.0000
  C   C94       1.0  0.02848  0.42763  0.55494  1.0000
  H   H147      1.0  0.00222  0.35453  0.70096  1.0000
  C   C95       1.0  0.27749  0.36493  0.56327  1.0000
  H   H148      1.0  0.23963  0.36699  0.52574  1.0000
  H   H149      1.0  0.16335  0.41416  0.74856  1.0000
  H   H150      1.0  0.35314  0.02798  0.74822  1.0000
  H   H151      1.0  0.42311  0.41510  0.51288  1.0000
  H   H152      1.0  0.28201  0.34794  0.55300  1.0000
  C   C96       1.0  0.36450  0.01555  0.51335  1.0000
  C   C97       1.0  0.99620  0.44985  0.55323  1.0000
  C   C98       1.0  0.39833  0.16149  0.80665  1.0000
  C   C99       1.0  0.38722  0.10435  0.99503  1.0000
  H   H153      1.0  0.41684  0.01321  0.79438  1.0000
  Fe  Fe25      1.0  0.41081  0.28873  0.88166  1.0000
  S   S48       1.0  0.37801  0.30661  0.88686  1.0000
  S   S49       1.0  0.39051  0.23689  0.88241  1.0000
  H   H154      1.0  0.40129  0.11181  0.92584  1.0000
  H   H155      1.0  0.38814  0.07832  0.94683  1.0000
  Fe  Fe26      1.0  0.43675  0.10563  0.88526  1.0000
  S   S50       1.0  0.38758  0.07133  0.87833  1.0000
  S   S51       1.0  0.45482  0.15626  0.89288  1.0000
  Fe  Fe27      1.0  0.45590  0.05724  0.88093  1.0000
  S   S52       1.0  0.40761  0.01986  0.87358  1.0000
  H   H156      1.0  0.40177  0.16992  0.82840  1.0000
  Fe  Fe28      1.0  0.40456  0.05264  0.84444  1.0000
  C   C100      1.0  0.33371  0.38642  0.87747  1.0000
  Fe  Fe29      1.0  0.39570  0.04184  0.90817  1.0000
  C   C101      1.0  0.40394  0.01036  0.77570  1.0000
  S   S53       1.0  0.45366  0.08894  0.84969  1.0000
  S   S54       1.0  0.44399  0.07729  0.91718  1.0000
  H   H157      1.0  0.41434  0.04824  0.97760  1.0000
  H   H158      1.0  0.36512  0.09573  0.94329  1.0000
  N   N11       1.0  0.39370  0.13036  0.80520  1.0000
  S   S55       1.0  0.38106  0.04368  0.80219  1.0000
  H   H159      1.0  0.41795  0.10720  0.81564  1.0000
  C   C102      1.0  0.36634  0.37471  0.77417  1.0000
  C   C103      1.0  0.40899  0.21500  0.88515  1.0000
  C   C104      1.0  0.39118  0.18301  0.88509  1.0000
  C   C105      1.0  0.40478  0.16468  0.88715  1.0000
  C   C106      1.0  0.43645  0.17816  0.88933  1.0000
  C   C107      1.0  0.45422  0.21008  0.88962  1.0000
  C   C108      1.0  0.44064  0.22842  0.88742  1.0000
  H   H160      1.0  0.36665  0.17241  0.88354  1.0000
  H   H161      1.0  0.39072  0.14021  0.88741  1.0000
  H   H162      1.0  0.47873  0.22080  0.89148  1.0000
  H   H163      1.0  0.45467  0.25294  0.88754  1.0000
  C   C109      1.0  0.01104  0.39028  0.99855  1.0000
  C   C110      1.0  0.42046  0.13021  0.81705  1.0000
  H   H164      1.0  0.34539  0.10863  0.81266  1.0000
  H   H165      1.0  0.36811  0.11617  0.84328  1.0000
  H   H166      1.0  0.32119  0.33513  0.90447  1.0000
  C   C111      1.0  0.04278  0.37666  0.76079  1.0000
  C   C112      1.0  0.36826  0.01089  0.97748  1.0000
  C   C113      1.0  0.48111  0.38098  0.97827  1.0000
  S   S56       1.0  0.36132  0.01337  0.94175  1.0000
  H   H167      1.0  0.35899  0.31670  0.97532  1.0000
  N   N12       1.0  0.40427  0.11994  0.96961  1.0000
  C   C114      1.0  0.39992  0.38802  0.00185  1.0000
  C   C115      1.0  0.38474  0.02271  0.77419  1.0000
  S   S57       1.0  0.44375  0.32175  0.91292  1.0000
  C   C116      1.0  0.38902  0.10062  0.94532  1.0000
  S   S58       1.0  0.48841  0.03883  0.88177  1.0000
  C   C117      1.0  0.34547  0.35073  0.89888  1.0000
  H   H168      1.0  0.44185  0.14623  0.80596  1.0000
  H   H169      1.0  0.47853  0.42184  0.94582  1.0000
  C   C118      1.0  0.39596  0.03120  0.99004  1.0000
  H   H170      1.0  0.47952  0.39380  0.92397  1.0000
  N   N13       1.0  0.35289  0.38278  0.89837  1.0000
  H   H171      1.0  0.02248  0.32142  0.98593  1.0000
  H   H172      1.0  0.46731  0.39036  0.98746  1.0000
  H   H173      1.0  0.06602  0.38862  0.76814  1.0000
  H   H174      1.0  0.30903  0.37167  0.88223  1.0000
  S   S59       1.0  0.43430  0.31828  0.84428  1.0000
  H   H175      1.0  0.41611  0.16442  0.98464  1.0000
  H   H176      1.0  0.32289  0.37678  0.93250  1.0000
  H   H177      1.0  0.44813  0.14020  0.98932  1.0000
  C   C119      1.0  0.40514  0.14933  0.96650  1.0000
  H   H178      1.0  0.39693  0.32865  0.77815  1.0000
  H   H179      1.0  0.34949  0.34351  0.87821  1.0000
  H   H180      1.0  0.41930  0.41007  0.99711  1.0000
  H   H181      1.0  0.33781  0.38007  0.85636  1.0000
  C   C120      1.0  0.43575  0.12543  0.97138  1.0000
  H   H182      1.0  0.38578  0.08186  0.99766  1.0000
  H   H183      1.0  0.38183  0.14609  0.96435  1.0000
  H   H184      1.0  0.36136  0.38859  0.94223  1.0000
  H   H185      1.0  0.33865  0.41035  0.87640  1.0000
  C   C121      1.0  0.34714  0.39132  0.92612  1.0000
  C   C122      1.0  0.01915  0.34061  0.98940  1.0000
  H   H186      1.0  0.36340  0.10000  0.99440  1.0000
  H   H187      1.0  0.02333  0.36724  0.80217  1.0000
  C   C123      1.0  0.36602  0.33555  0.98950  1.0000
  H   H188      1.0  0.35878  0.38697  0.78726  1.0000
  C   C124      1.0  0.36611  0.10933  0.82114  1.0000
  H   H189      1.0  0.39059  0.39632  0.87028  1.0000
  Fe  Fe30      1.0  0.46514  0.35238  0.87610  1.0000
  S   S60       1.0  0.43649  0.37407  0.88010  1.0000
  C   C125      1.0  0.38535  0.40249  0.89094  1.0000
  H   H190      1.0  0.35260  0.41543  0.92666  1.0000
  H   H191      1.0  0.40051  0.40042  0.90633  1.0000
  H   H192      1.0  0.35964  0.34716  0.91433  1.0000
  H   H193      1.0  0.42361  0.13688  0.83929  1.0000
  Fe  Fe31      1.0  0.40356  0.33808  0.85126  1.0000
  C   C126      1.0  0.39126  0.36384  0.98308  1.0000
  H   H194      1.0  0.43597  0.10375  0.97380  1.0000
  C   C127      1.0  0.37826  0.35771  0.78642  1.0000
  Fe  Fe32      1.0  0.41300  0.34183  0.91540  1.0000
  C   C128      1.0  0.01858  0.36459  0.78018  1.0000
  S   S61       1.0  0.41241  0.37078  0.95171  1.0000
  H   H195      1.0  0.38625  0.09678  0.77429  1.0000
  H   H196      1.0  0.44910  0.13682  0.95229  1.0000
  S   S62       1.0  0.37956  0.35617  0.82334  1.0000
  H   H197      1.0  0.39172  0.42684  0.89005  1.0000
  H   H198      1.0  0.46510  0.36070  0.96591  1.0000
  C   C129      1.0  0.38785  0.34194  0.76911  1.0000
  H   H199      1.0  0.41047  0.13537  0.76337  1.0000
  C   C130      1.0  0.00466  0.34861  0.96894  1.0000
  C   C131      1.0  0.00056  0.37351  0.97373  1.0000
  H   H200      1.0  0.41835  0.16180  0.94769  1.0000
  H   H201      1.0  0.41882  0.17790  0.79464  1.0000
  C   C132      1.0  0.49349  0.41321  0.93797  1.0000
  H   H202      1.0  0.36211  0.08567  0.82062  1.0000
  H   H203      1.0  0.48975  0.37295  0.99557  1.0000
  H   H204      1.0  0.37837  0.16243  0.79832  1.0000
  C   C133      1.0  0.38993  0.12030  0.77598  1.0000
  H   H205      1.0  0.00782  0.40954  0.00189  1.0000
  H   H206      1.0  0.36995  0.12012  0.76630  1.0000
  H   H207      1.0  0.49541  0.42160  0.86166  1.0000
  H   H208      1.0  0.38378  0.95956  0.04490  1.0000
  C   C134      1.0  0.00886  0.66187  0.24855  1.0000
  Fe  Fe33      1.0  0.08144  0.62617  0.13335  1.0000
  S   S63       1.0  0.06262  0.57507  0.13311  1.0000
  S   S64       1.0  0.04233  0.63525  0.13204  1.0000
  C   C135      1.0  0.46001  0.54868  0.11465  1.0000
  H   H209      1.0  0.29402  0.92609  0.20800  1.0000
  C   C136      1.0  0.02865  0.62965  0.23367  1.0000
  C   C137      1.0  0.08317  0.55589  0.13826  1.0000
  C   C138      1.0  0.06662  0.52426  0.14206  1.0000
  H   H210      1.0  0.46711  0.90743  0.07385  1.0000
  C   C139      1.0  0.11328  0.52185  0.14126  1.0000
  C   C140      1.0  0.12999  0.55363  0.13823  1.0000
  C   C141      1.0  0.11499  0.57066  0.13673  1.0000
  H   H211      1.0  0.04202  0.51274  0.14347  1.0000
  H   H212      1.0  0.15457  0.56507  0.13651  1.0000
  H   H213      1.0  0.12795  0.59505  0.13377  1.0000
  C   C142      1.0  0.26356  0.87427  0.23785  1.0000
  H   H214      1.0  0.29791  0.51354  0.13836  1.0000
  C   C143      1.0  0.40521  0.95922  0.04121  1.0000
  H   H215      1.0  0.00591  0.68128  0.24506  1.0000
  C   C144      1.0  0.08159  0.50734  0.14369  1.0000
  H   H216      1.0  0.35353  0.50543  0.14572  1.0000
  H   H217      1.0  0.05116  0.49808  0.02033  1.0000
  H   H218      1.0  0.10766  0.54432  0.05166  1.0000
  C   C145      1.0  0.48486  0.52713  0.15394  1.0000
  C   C146      1.0  0.08613  0.53020  0.06338  1.0000
  C   C147      1.0  0.42999  0.93740  0.01483  1.0000
  H   H219      1.0  0.26230  0.85635  0.25196  1.0000
  H   H220      1.0  0.03146  0.68590  0.12612  1.0000
  S   S65       1.0  0.04611  0.68034  0.06450  1.0000
  H   H221      1.0  0.32451  0.91291  0.23831  1.0000
  H   H222      1.0  0.27024  0.89505  0.25044  1.0000
  C   C148      1.0  0.31387  0.51832  0.12065  1.0000
  H   H223      1.0  0.04105  0.62391  0.21881  1.0000
  H   H224      1.0  0.45028  0.96025  0.01139  1.0000
  H   H225      1.0  0.02968  0.61796  0.04912  1.0000
  C   C149      1.0  0.34874  0.98660  0.02265  1.0000
  H   H226      1.0  0.26343  0.89704  0.18757  1.0000
  H   H227      1.0  0.02200  0.71074  0.14419  1.0000
  C   C150      1.0  0.02222  0.62730  0.03280  1.0000
  H   H228      1.0  0.43420  0.92773  0.03397  1.0000
  H   H229      1.0  0.33582  0.53906  0.12589  1.0000
  C   C151      1.0  0.02508  0.65483  0.22892  1.0000
  H   H230      1.0  0.30416  0.52376  0.10232  1.0000
  S   S66       1.0  0.10759  0.65988  0.09941  1.0000
  Fe  Fe34      1.0  0.06744  0.67036  0.16468  1.0000
  C   C152      1.0  0.02786  0.65715  0.03499  1.0000
  S   S67       1.0  0.10495  0.65910  0.16836  1.0000
  H   H231      1.0  0.36253  0.51938  0.09633  1.0000
  H   H232      1.0  0.02213  0.69187  0.01491  1.0000
  C   C153      1.0  0.23536  0.78104  0.13331  1.0000
  H   H233      1.0  0.24564  0.76683  0.13407  1.0000
  H   H234      1.0  0.16587  0.77583  0.13310  1.0000
  C   C154      1.0  0.24126  0.83167  0.13066  1.0000
  H   H235      1.0  0.33029  0.96950  0.03507  1.0000
  C   C155      1.0  0.25421  0.81298  0.13166  1.0000
  H   H236      1.0  0.19890  0.83207  0.13061  1.0000
  H   H237      1.0  0.30206  0.90903  0.17916  1.0000
  Fe  Fe35      1.0  0.12894  0.69414  0.13434  1.0000
  S   S68       1.0  0.18080  0.72676  0.13631  1.0000
  S   S69       1.0  0.09302  0.70761  0.13313  1.0000
  Fe  Fe36      1.0  0.31534  0.90487  0.12612  1.0000
  S   S70       1.0  0.33187  0.95388  0.13837  1.0000
  S   S71       1.0  0.26379  0.87224  0.13002  1.0000
  Fe  Fe37      1.0  0.38050  0.91877  0.11349  1.0000
  S   S72       1.0  0.40075  0.96732  0.12632  1.0000
  S   S73       1.0  0.41194  0.90508  0.09235  1.0000
  Fe  Fe38      1.0  0.36789  0.95017  0.16233  1.0000
  C   C156      1.0  0.27571  0.85246  0.19875  1.0000
  Fe  Fe39      1.0  0.36321  0.96680  0.10106  1.0000
  H   H238      1.0  0.27872  0.82305  0.13116  1.0000
  S   S74       1.0  0.35047  0.90091  0.15127  1.0000
  S   S75       1.0  0.34374  0.91842  0.08704  1.0000
  C   C157      1.0  0.44360  0.90855  0.11080  1.0000
  C   C158      1.0  0.44454  0.91002  0.13973  1.0000
  H   H239      1.0  0.25260  0.84380  0.18972  1.0000
  H   H240      1.0  0.27505  0.83399  0.21160  1.0000
  H   H241      1.0  0.42596  0.90972  0.15113  1.0000
  C   C159      1.0  0.01608  0.69547  0.12587  1.0000
  C   C160      1.0  0.20925  0.81793  0.13133  1.0000
  C   C161      1.0  0.46897  0.91061  0.15402  1.0000
  Fe  Fe40      1.0  0.06982  0.67103  0.10053  1.0000
  H   H242      1.0  0.29138  0.85651  0.18096  1.0000
  N   N14       1.0  0.28541  0.88055  0.21499  1.0000
  H   H243      1.0  0.41059  0.95134  0.06077  1.0000
  N   N15       1.0  0.40193  0.93928  0.01760  1.0000
  S   S76       1.0  0.38334  0.96237  0.20753  1.0000
  C   C162      1.0  0.45512  0.50798  0.14416  1.0000
  H   H244      1.0  0.46893  0.91063  0.17643  1.0000
  C   C163      1.0  0.20332  0.76724  0.13378  1.0000
  C   C164      1.0  0.19040  0.78597  0.13275  1.0000
  C   C165      1.0  0.46778  0.90873  0.09623  1.0000
  H   H245      1.0  0.34477  0.99054  0.21354  1.0000
  H   H246      1.0  0.08897  0.50397  0.01560  1.0000
  C   C166      1.0  0.44256  0.51876  0.12456  1.0000
  S   S77       1.0  0.04035  0.67800  0.19885  1.0000
  C   C167      1.0  0.31615  0.89131  0.22649  1.0000
  H   H247      1.0  0.33320  0.89616  0.20978  1.0000
  H   H248      1.0  0.45040  0.55712  0.09947  1.0000
  H   H249      1.0  0.37856  0.89847  0.04207  1.0000
  H   H250      1.0  0.31654  0.87418  0.24054  1.0000
  C   C168      1.0  0.01789  0.66882  0.01350  1.0000
  C   C169      1.0  0.28619  0.90427  0.19677  1.0000
  H   H251      1.0  0.02167  0.70947  0.10667  1.0000
  C   C170      1.0  0.37894  0.98442  0.23407  1.0000
  H   H252      1.0  0.09151  0.53550  0.08573  1.0000
  H   H253      1.0  0.06980  0.53791  0.05771  1.0000
  H   H254      1.0  0.24019  0.86624  0.22974  1.0000
  C   C171      1.0  0.37565  0.90853  0.02261  1.0000
  C   C172      1.0  0.48989  0.56775  0.12423  1.0000
  H   H255      1.0  0.42356  0.98312  0.03764  1.0000
  C   C173      1.0  0.49267  0.91019  0.11052  1.0000
  S   S78       1.0  0.13224  0.50059  0.14054  1.0000
  C   C174      1.0  0.33972  0.49950  0.09157  1.0000
  H   H256      1.0  0.11797  0.50178  0.05646  1.0000
  C   C175      1.0  0.49307  0.91063  0.13951  1.0000
  H   H257      1.0  0.33110  0.50475  0.07241  1.0000
  H   H258      1.0  0.35404  0.90909  0.02475  1.0000
  C   C176      1.0  0.01617  0.61177  0.25769  1.0000
  C   C177      1.0  0.35827  0.99502  0.23210  1.0000
  N   N16       1.0  0.07346  0.49740  0.05791  1.0000
  C   C178      1.0  0.39625  0.99054  0.25844  1.0000
  H   H259      1.0  0.49432  0.51869  0.16925  1.0000
  H   H260      1.0  0.05154  0.65755  0.30687  1.0000
  H   H261      1.0  0.45928  0.97610  0.39778  1.0000
  C   C179      1.0  0.05271  0.64626  0.36065  1.0000
  H   H262      1.0  0.09818  0.58141  0.50734  1.0000
  C   C180      1.0  0.38877  0.98191  0.49026  1.0000
  H   H263      1.0  0.09979  0.70304  0.36591  1.0000
  C   C181      1.0  0.99987  0.61868  0.27727  1.0000
  H   H264      1.0  0.39777  0.96845  0.48138  1.0000
  H   H265      1.0  0.07501  0.64699  0.36086  1.0000
  H   H266      1.0  0.04409  0.64288  0.38241  1.0000
  C   C182      1.0  0.01391  0.65075  0.46758  1.0000
  H   H267      1.0  0.43680  0.99362  0.40504  1.0000
  H   H268      1.0  0.03657  0.62575  0.34856  1.0000
  H   H269      1.0  0.01919  0.59239  0.26108  1.0000
  C   C183      1.0  0.07678  0.70074  0.36524  1.0000
  H   H270      1.0  0.05171  0.69637  0.47227  1.0000
  H   H271      1.0  0.02622  0.69253  0.33939  1.0000
  H   H272      1.0  0.06805  0.69793  0.30939  1.0000
  C   C184      1.0  0.06681  0.67774  0.31968  1.0000
  C   C185      1.0  0.02524  0.67199  0.34859  1.0000
  H   H273      1.0  0.07934  0.72223  0.35666  1.0000
  H   H274      1.0  0.01606  0.66936  0.37008  1.0000
  H   H275      1.0  0.06849  0.69860  0.38706  1.0000
  H   H276      1.0  0.08988  0.68021  0.31882  1.0000
  H   H277      1.0  0.00847  0.65207  0.33635  1.0000
  C   C186      1.0  0.03783  0.67468  0.48238  1.0000
  N   N17       1.0  0.05543  0.67422  0.34850  1.0000
  S   S79       1.0  0.00695  0.65646  0.43247  1.0000
  C   C187      1.0  0.00197  0.61912  0.50888  1.0000
  H   H278      1.0  0.47468  0.98129  0.44721  1.0000
  H   H279      1.0  0.41226  0.98244  0.26026  1.0000
  C   C188      1.0  0.99616  0.62287  0.48101  1.0000
  H   H280      1.0  0.05771  0.56663  0.50884  1.0000
  C   C189      1.0  0.99631  0.64393  0.27261  1.0000
  H   H281      1.0  0.31379  0.92121  0.54209  1.0000
  Fe  Fe41      1.0  0.10595  0.64911  0.63142  1.0000
  S   S80       1.0  0.13127  0.62288  0.63319  1.0000
  S   S81       1.0  0.05522  0.62773  0.62960  1.0000
  S   S82       1.0  0.35103  0.98641  0.56412  1.0000
  C   C190      1.0  0.11115  0.58289  0.62985  1.0000
  C   C191      1.0  0.07968  0.56694  0.62561  1.0000
  C   C192      1.0  0.06438  0.53540  0.62124  1.0000
  C   C193      1.0  0.08029  0.51939  0.62150  1.0000
  C   C194      1.0  0.11173  0.53515  0.62612  1.0000
  C   C195      1.0  0.12713  0.56688  0.63015  1.0000
  H   H282      1.0  0.06709  0.57886  0.62563  1.0000
  H   H283      1.0  0.04002  0.52330  0.61788  1.0000
  H   H284      1.0  0.12420  0.52301  0.62628  1.0000
  H   H285      1.0  0.15151  0.57908  0.63342  1.0000
  C   C196      1.0  0.44016  0.52599  0.64743  1.0000
  C   C197      1.0  0.46377  0.55136  0.66088  1.0000
  C   C198      1.0  0.44382  0.52056  0.61965  1.0000
  C   C199      1.0  0.47055  0.54084  0.60522  1.0000
  H   H286      1.0  0.46104  0.55558  0.68240  1.0000
  C   C200      1.0  0.02220  0.64984  0.72951  1.0000
  H   H287      1.0  0.36209  0.78241  0.63848  1.0000
  C   C201      1.0  0.07827  0.57286  0.52163  1.0000
  H   H288      1.0  0.23240  0.86091  0.53490  1.0000
  C   C202      1.0  0.49414  0.56618  0.61866  1.0000
  H   H289      1.0  0.10780  0.58299  0.57018  1.0000
  H   H290      1.0  0.06863  0.66058  0.73543  1.0000
  H   H291      1.0  0.29743  0.88216  0.55284  1.0000
  H   H292      1.0  0.03489  0.57883  0.54945  1.0000
  C   C203      1.0  0.05578  0.58359  0.56106  1.0000
  H   H293      1.0  0.29628  0.93412  0.58533  1.0000
  H   H294      1.0  0.07520  0.55168  0.53150  1.0000
  H   H295      1.0  0.05882  0.60012  0.57762  1.0000
  H   H296      1.0  0.47625  0.91167  0.67755  1.0000
  S   S83       1.0  0.03158  0.63638  0.55889  1.0000
  H   H297      1.0  0.12025  0.73827  0.69293  1.0000
  N   N18       1.0  0.08279  0.59588  0.54270  1.0000
  C   C204      1.0  0.11009  0.60340  0.55937  1.0000
  C   C205      1.0  0.49277  0.89451  0.61401  1.0000
  H   H298      1.0  0.42570  0.50116  0.60909  1.0000
  C   C206      1.0  0.04730  0.65488  0.74548  1.0000
  H   H299      1.0  0.47279  0.53692  0.58353  1.0000
  H   H300      1.0  0.05414  0.71994  0.67821  1.0000
  H   H301      1.0  0.99786  0.55300  0.74861  1.0000
  C   C207      1.0  0.08695  0.62363  0.52880  1.0000
  H   H302      1.0  0.06663  0.61884  0.51621  1.0000
  H   H303      1.0  0.05981  0.75769  0.67990  1.0000
  S   S84       1.0  0.02432  0.65467  0.69285  1.0000
  H   H304      1.0  0.06201  0.68955  0.52144  1.0000
  Fe  Fe42      1.0  0.06402  0.66111  0.59508  1.0000
  Fe  Fe43      1.0  0.06059  0.66382  0.65971  1.0000
  H   H305      1.0  0.36788  0.86410  0.60816  1.0000
  H   H306      1.0  0.05169  0.75167  0.73126  1.0000
  H   H307      1.0  0.22018  0.87021  0.56667  1.0000
  C   C208      1.0  0.33805  0.81868  0.64490  1.0000
  S   S85       1.0  0.39417  0.96922  0.70066  1.0000
  H   H308      1.0  0.34207  0.78164  0.60753  1.0000
  H   H309      1.0  0.18867  0.82895  0.64114  1.0000
  H   H310      1.0  0.41386  0.84826  0.63244  1.0000
  C   C209      1.0  0.36616  0.99350  0.52974  1.0000
  C   C210      1.0  0.47282  0.89985  0.59803  1.0000
  H   H311      1.0  0.31651  0.80530  0.63306  1.0000
  Fe  Fe44      1.0  0.11626  0.71343  0.62837  1.0000
  S   S86       1.0  0.14661  0.76511  0.63322  1.0000
  S   S87       1.0  0.06556  0.69583  0.62512  1.0000
  Fe  Fe45      1.0  0.32843  0.89585  0.62366  1.0000
  S   S88       1.0  0.33056  0.93999  0.63538  1.0000
  S   S89       1.0  0.29150  0.84595  0.61776  1.0000
  Fe  Fe46      1.0  0.39700  0.92849  0.60959  1.0000
  S   S90       1.0  0.40423  0.97484  0.61927  1.0000
  S   S91       1.0  0.43115  0.91804  0.58953  1.0000
  Fe  Fe47      1.0  0.37490  0.95257  0.65714  1.0000
  H   H312      1.0  0.38300  0.79983  0.60723  1.0000
  Fe  Fe48      1.0  0.35996  0.95916  0.59672  1.0000
  H   H313      1.0  0.48420  0.67866  0.60268  1.0000
  S   S92       1.0  0.37042  0.90685  0.64815  1.0000
  S   S93       1.0  0.35518  0.91468  0.58435  1.0000
  C   C211      1.0  0.45467  0.91021  0.61053  1.0000
  C   C212      1.0  0.37859  0.97685  0.51806  1.0000
  H   H314      1.0  0.13105  0.61301  0.54637  1.0000
  C   C213      1.0  0.45594  0.91451  0.63922  1.0000
  N   N19       1.0  0.08681  0.74875  0.70859  1.0000
  H   H315      1.0  0.34528  0.82922  0.59011  1.0000
  H   H316      1.0  0.44213  0.92267  0.64904  1.0000
  C   C214      1.0  0.38974  0.98992  0.72848  1.0000
  C   C215      1.0  0.47529  0.90835  0.65533  1.0000
  C   C216      1.0  0.39301  0.84307  0.64451  1.0000
  C   C217      1.0  0.40641  0.99414  0.75300  1.0000
  H   H317      1.0  0.33879  0.84008  0.65138  1.0000
  H   H318      1.0  0.08828  0.75127  0.66404  1.0000
  H   H319      1.0  0.39539  0.86520  0.65092  1.0000
  H   H320      1.0  0.38639  0.84740  0.58974  1.0000
  C   C218      1.0  0.18694  0.78726  0.62892  1.0000
  C   C219      1.0  0.20438  0.77442  0.62019  1.0000
  C   C220      1.0  0.23625  0.79279  0.61696  1.0000
  C   C221      1.0  0.25122  0.82419  0.62256  1.0000
  C   C222      1.0  0.23382  0.83712  0.63125  1.0000
  C   C223      1.0  0.20188  0.81875  0.63431  1.0000
  H   H321      1.0  0.19330  0.75029  0.61595  1.0000
  H   H322      1.0  0.24937  0.78248  0.61019  1.0000
  H   H323      1.0  0.24492  0.86114  0.63590  1.0000
  H   H324      1.0  0.33637  0.80579  0.66409  1.0000
  C   C224      1.0  0.49196  0.68395  0.62458  1.0000
  N   N20       1.0  0.26724  0.90029  0.55600  1.0000
  C   C225      1.0  0.02561  0.64308  0.52380  1.0000
  S   S94       1.0  0.11504  0.68098  0.59557  1.0000
  C   C226      1.0  0.29244  0.89861  0.54216  1.0000
  H   H325      1.0  0.11393  0.62050  0.57567  1.0000
  S   S95       1.0  0.11109  0.68288  0.66429  1.0000
  H   H326      1.0  0.11376  0.73311  0.72971  1.0000
  H   H327      1.0  0.12708  0.78950  0.69547  1.0000
  C   C227      1.0  0.26118  0.92204  0.54094  1.0000
  H   H328      1.0  0.08603  0.70623  0.70623  1.0000
  C   C228      1.0  0.10244  0.73083  0.70942  1.0000
  H   H329      1.0  0.09012  0.64135  0.54416  1.0000
  H   H330      1.0  0.39300  0.83099  0.66375  1.0000
  C   C229      1.0  0.27597  0.91086  0.58480  1.0000
  C   C230      1.0  0.23964  0.86981  0.55627  1.0000
  H   H331      1.0  0.24255  0.92422  0.55098  1.0000
  H   H332      1.0  0.37999  0.95978  0.53032  1.0000
  H   H333      1.0  0.09855  0.79560  0.71167  1.0000
  H   H334      1.0  0.12155  0.78543  0.73239  1.0000
  H   H335      1.0  0.42128  0.98465  0.75449  1.0000
  H   H336      1.0  0.25731  0.91178  0.59618  1.0000
  H   H337      1.0  0.47169  0.89620  0.57586  1.0000
  C   C231      1.0  0.36618  0.84203  0.60288  1.0000
  H   H338      1.0  0.05145  0.56225  0.57144  1.0000
  C   C232      1.0  0.36295  0.79589  0.61996  1.0000
  H   H339      1.0  0.47227  0.66884  0.63811  1.0000
  N   N21       1.0  0.36504  0.82493  0.62808  1.0000
  C   C233      1.0  0.07161  0.74427  0.68150  1.0000
  C   C234      1.0  0.10948  0.78129  0.71224  1.0000
  C   C235      1.0  0.49090  0.57118  0.64667  1.0000
  H   H340      1.0  0.28158  0.89547  0.59658  1.0000
  H   H341      1.0  0.25452  0.91488  0.51907  1.0000
  H   H342      1.0  0.24367  0.85310  0.56778  1.0000
  H   H343      1.0  0.28693  0.89125  0.52020  1.0000
  H   H344      1.0  0.07429  0.74077  0.75177  1.0000
  S   S96       1.0  0.40586  0.50234  0.66542  1.0000
  H   H345      1.0  0.28186  0.94520  0.54046  1.0000
  C   C236      1.0  0.06378  0.73846  0.73103  1.0000
  H   H346      1.0  0.49047  0.63159  0.63769  1.0000
  H   H347      1.0  0.04618  0.71404  0.72846  1.0000
  H   H348      1.0  0.10716  0.63369  0.51483  1.0000
  C   C237      1.0  0.04373  0.67088  0.51031  1.0000
  H   H349      1.0  0.49509  0.97645  0.60358  1.0000
  C   C238      1.0  0.49409  0.89880  0.64271  1.0000
  H   H350      1.0  0.01327  0.54107  0.80682  1.0000
  H   H351      1.0  0.32325  0.97269  0.98446  1.0000
  H   H352      1.0  0.00116  0.58050  0.82071  1.0000
  S   S97       1.0  0.01618  0.64464  0.82515  1.0000
  C   C239      1.0  0.04497  0.65302  0.77467  1.0000
  H   H353      1.0  0.42841  0.92256  0.99718  1.0000
  C   C240      1.0  0.01742  0.64550  0.78827  1.0000
  C   C241      1.0  0.00276  0.65106  0.99000  1.0000
  H   H354      1.0  0.02068  0.58206  0.77336  1.0000
  C   C242      1.0  0.00683  0.60945  0.00945  1.0000
  H   H355      1.0  0.39438  0.93768  0.97356  1.0000
  H   H356      1.0  0.06469  0.65755  0.78686  1.0000
  C   C243      1.0  0.99708  0.62119  0.98784  1.0000
  H   H357      1.0  0.41585  0.97539  0.98773  1.0000
  C   C244      1.0  0.39678  0.95196  0.99194  1.0000
  H   H358      1.0  0.37561  0.95343  0.99347  1.0000
  H   H359      1.0  0.37263  0.89272  0.00537  1.0000
  C   C245      1.0  0.34480  0.98850  0.99394  1.0000
  H   H360      1.0  0.00264  0.58643  0.00807  1.0000
  C   C246      1.0  0.99689  0.56656  0.76631  1.0000
  H   H361      1.0  0.59260  0.02958  0.20886  1.0000
  H   H362      1.0  0.68155  0.04849  0.03258  1.0000
  H   H363      1.0  0.96864  0.32726  0.22070  1.0000
  H   H364      1.0  0.60376  0.00348  0.19571  1.0000
  H   H365      1.0  0.54285  0.00936  0.23411  1.0000
  H   H366      1.0  0.98477  0.42723  0.24529  1.0000
  H   H367      1.0  0.60251  0.00847  0.23230  1.0000
  H   H368      1.0  0.68824  0.04321  0.24061  1.0000
  C   C247      1.0  0.59069  0.00707  0.21247  1.0000
  C   C248      1.0  0.98901  0.34116  0.23266  1.0000
  C   C249      1.0  0.66755  0.02838  0.02035  1.0000
  C   C250      1.0  0.67032  0.02399  0.25165  1.0000
  H   H369      1.0  0.54398  0.00367  0.18305  1.0000
  C   C251      1.0  0.64694  0.00110  0.03380  1.0000
  S   S98       1.0  0.64517  0.00062  0.07062  1.0000
  H   H370      1.0  0.59501  0.04804  0.01559  1.0000
  C   C252      1.0  0.65215  0.99656  0.23738  1.0000
  H   H371      1.0  0.64460  0.13773  0.36462  1.0000
  H   H372      1.0  0.63728  0.16023  0.38852  1.0000
  Fe  Fe49      1.0  0.91853  0.29956  0.38170  1.0000
  S   S99       1.0  0.88612  0.25018  0.39505  1.0000
  H   H373      1.0  0.66930  0.00045  0.39704  1.0000
  Fe  Fe50      1.0  0.71116  0.10794  0.38019  1.0000
  S   S100      1.0  0.70680  0.06137  0.37904  1.0000
  S   S101      1.0  0.74738  0.15476  0.36379  1.0000
  Fe  Fe51      1.0  0.64630  0.08270  0.40145  1.0000
  S   S102      1.0  0.63640  0.03453  0.40216  1.0000
  S   S103      1.0  0.61528  0.09874  0.41901  1.0000
  Fe  Fe52      1.0  0.68282  0.05336  0.42061  1.0000
  S   S104      1.0  0.50310  0.41198  0.42238  1.0000
  Fe  Fe53      1.0  0.66025  0.04456  0.36059  1.0000
  C   C253      1.0  0.51309  0.29533  0.38978  1.0000
  S   S105      1.0  0.69130  0.10116  0.42317  1.0000
  S   S106      1.0  0.66592  0.09139  0.35853  1.0000
  H   H374      1.0  0.92853  0.27706  0.47728  1.0000
  H   H375      1.0  0.71437  0.22879  0.38178  1.0000
  S   S107      1.0  0.96896  0.31534  0.38490  1.0000
  H   H376      1.0  0.64079  0.16890  0.35207  1.0000
  H   H377      1.0  0.50110  0.06388  0.43572  1.0000
  S   S108      1.0  0.92456  0.32367  0.34081  1.0000
  H   H378      1.0  0.51483  0.27649  0.39972  1.0000
  H   H379      1.0  0.55831  0.34317  0.41628  1.0000
  C   C254      1.0  0.58568  0.09781  0.39933  1.0000
  C   C255      1.0  0.56698  0.10772  0.41155  1.0000
  C   C256      1.0  0.54322  0.10748  0.39644  1.0000
  C   C257      1.0  0.53801  0.09727  0.36902  1.0000
  C   C258      1.0  0.55713  0.08797  0.35662  1.0000
  C   C259      1.0  0.58073  0.08793  0.37181  1.0000
  H   H380      1.0  0.57097  0.11572  0.43276  1.0000
  H   H381      1.0  0.52907  0.11542  0.40590  1.0000
  H   H382      1.0  0.55337  0.08036  0.33529  1.0000
  H   H383      1.0  0.59508  0.08033  0.36220  1.0000
  C   C260      1.0  0.84725  0.22439  0.38653  1.0000
  C   C261      1.0  0.83155  0.23109  0.36653  1.0000
  C   C262      1.0  0.80106  0.20953  0.35998  1.0000
  C   C263      1.0  0.78572  0.18110  0.37343  1.0000
  C   C264      1.0  0.80128  0.17455  0.39369  1.0000
  C   C265      1.0  0.83187  0.19601  0.40008  1.0000
  H   H384      1.0  0.84303  0.25270  0.35581  1.0000
  H   H385      1.0  0.78939  0.21485  0.34415  1.0000
  H   H386      1.0  0.78991  0.15281  0.40420  1.0000
  H   H387      1.0  0.84371  0.19047  0.41554  1.0000
  H   H388      1.0  0.67999  0.04805  0.29076  1.0000
  H   H389      1.0  0.67785  0.21327  0.39860  1.0000
  N   N22       1.0  0.68321  0.18183  0.37271  1.0000
  C   C266      1.0  0.69417  0.17069  0.39573  1.0000
  C   C267      1.0  0.69918  0.18229  0.34683  1.0000
  C   C268      1.0  0.68948  0.21289  0.37909  1.0000
  C   C269      1.0  0.65004  0.16139  0.36927  1.0000
  H   H390      1.0  0.68212  0.16918  0.41553  1.0000
  H   H391      1.0  0.71915  0.18548  0.39904  1.0000
  H   H392      1.0  0.69025  0.14761  0.39122  1.0000
  H   H393      1.0  0.69490  0.15914  0.34141  1.0000
  H   H394      1.0  0.69175  0.19077  0.32897  1.0000
  H   H395      1.0  0.72436  0.19696  0.34891  1.0000
  H   H396      1.0  0.68144  0.22200  0.36217  1.0000
  S   S109      1.0  0.63622  0.00417  0.33082  1.0000
  C   C270      1.0  0.94097  0.23881  0.42569  1.0000
  H   H397      1.0  0.94569  0.25527  0.40859  1.0000
  C   C271      1.0  0.98281  0.43910  0.26396  1.0000
  C   C272      1.0  0.93952  0.23084  0.47509  1.0000
  H   H398      1.0  0.95989  0.43706  0.26351  1.0000
  H   H399      1.0  0.50426  0.35425  0.41144  1.0000
  H   H400      1.0  0.64016  0.03323  0.47761  1.0000
  S   S110      1.0  0.50820  0.09615  0.34947  1.0000
  H   H401      1.0  0.96430  0.38060  0.27331  1.0000
  H   H402      1.0  0.53553  0.34421  0.44436  1.0000
  C   C273      1.0  0.58242  0.48600  0.39925  1.0000
  C   C274      1.0  0.92593  0.26652  0.45653  1.0000
  C   C275      1.0  0.98776  0.34341  0.49252  1.0000
  C   C276      1.0  0.97837  0.27821  0.45520  1.0000
  N   N23       1.0  0.94622  0.25362  0.45312  1.0000
  C   C277      1.0  0.52131  0.48423  0.34318  1.0000
  H   H403      1.0  0.81551  0.44772  0.42769  1.0000
  S   S111      1.0  0.69006  0.02636  0.45462  1.0000
  N   N24       1.0  0.50997  0.31497  0.41064  1.0000
  C   C278      1.0  0.85364  0.46860  0.38408  1.0000
  C   C279      1.0  0.98460  0.44257  0.31390  1.0000
  C   C280      1.0  0.66568  0.02683  0.28013  1.0000
  C   C281      1.0  0.64474  0.01949  0.49175  1.0000
  C   C282      1.0  0.66792  0.01304  0.48557  1.0000
  H   H404      1.0  0.79386  0.43737  0.39612  1.0000
  H   H405      1.0  0.53359  0.30847  0.37649  1.0000
  H   H406      1.0  0.53344  0.47676  0.35754  1.0000
  H   H407      1.0  0.96613  0.32963  0.48242  1.0000
  H   H408      1.0  0.94033  0.39049  0.29321  1.0000
  H   H409      1.0  0.54003  0.31149  0.43981  1.0000
  C   C283      1.0  0.92713  0.47689  0.39792  1.0000
  H   H410      1.0  0.99439  0.26963  0.45128  1.0000
  H   H411      1.0  0.52825  0.40504  0.37029  1.0000
  N   N25       1.0  0.83481  0.48095  0.39519  1.0000
  H   H412      1.0  0.81023  0.47424  0.35707  1.0000
  Fe  Fe54      1.0  0.93154  0.36320  0.36747  1.0000
  S   S112      1.0  0.91562  0.39405  0.34956  1.0000
  S   S113      1.0  0.92190  0.33799  0.40808  1.0000
  C   C284      1.0  0.92140  0.42628  0.36844  1.0000
  C   C285      1.0  0.92122  0.45041  0.35440  1.0000
  H   H413      1.0  0.91542  0.21198  0.47403  1.0000
  H   H414      1.0  0.96705  0.38278  0.31029  1.0000
  C   C286      1.0  0.92741  0.45282  0.41192  1.0000
  C   C287      1.0  0.92504  0.42780  0.39721  1.0000
  N   N26       1.0  0.98721  0.42608  0.28973  1.0000
  H   H415      1.0  0.94315  0.24119  0.49610  1.0000
  H   H416      1.0  0.92514  0.40929  0.40820  1.0000
  H   H417      1.0  0.95444  0.22064  0.47318  1.0000
  C   C288      1.0  0.51342  0.02442  0.41172  1.0000
  H   H418      1.0  0.91679  0.22045  0.42324  1.0000
  H   H419      1.0  0.92928  0.45343  0.43427  1.0000
  Fe  Fe55      1.0  0.97500  0.34266  0.34614  1.0000
  C   C289      1.0  0.96366  0.39358  0.29164  1.0000
  H   H420      1.0  0.53126  0.03983  0.42660  1.0000
  C   C290      1.0  0.92467  0.47592  0.36902  1.0000
  C   C291      1.0  0.53584  0.43675  0.40314  1.0000
  C   C292      1.0  0.55554  0.46594  0.41356  1.0000
  C   C293      1.0  0.64281  0.00214  0.29476  1.0000
  C   C294      1.0  0.59011  0.47665  0.37476  1.0000
  C   C295      1.0  0.57036  0.44744  0.36429  1.0000
  C   C296      1.0  0.54314  0.42759  0.37832  1.0000
  H   H421      1.0  0.55007  0.47307  0.43284  1.0000
  H   H422      1.0  0.57632  0.44014  0.34537  1.0000
  H   H423      1.0  0.90152  0.24877  0.45408  1.0000
  H   H424      1.0  0.51986  0.03567  0.39104  1.0000
  C   C297      1.0  0.50704  0.33913  0.39639  1.0000
  Fe  Fe56      1.0  0.97228  0.35454  0.40926  1.0000
  H   H425      1.0  0.96585  0.32580  0.27222  1.0000
  H   H426      1.0  0.52743  0.35376  0.38343  1.0000
  H   H427      1.0  0.98356  0.28879  0.47614  1.0000
  H   H428      1.0  0.91829  0.44934  0.33216  1.0000
  H   H429      1.0  0.93076  0.28429  0.44062  1.0000
  H   H430      1.0  0.84072  0.44962  0.36930  1.0000
  C   C298      1.0  0.53718  0.32904  0.42858  1.0000
  H   H431      1.0  0.86227  0.45997  0.40096  1.0000
  C   C299      1.0  0.80821  0.45675  0.41009  1.0000
  H   H432      1.0  0.53466  0.49142  0.32353  1.0000
  S   S114      1.0  0.98185  0.38297  0.37085  1.0000
  H   H433      1.0  0.95571  0.22864  0.42233  1.0000
  H   H434      1.0  0.50185  0.43947  0.30533  1.0000
  H   H435      1.0  0.79361  0.46545  0.41872  1.0000
  H   H436      1.0  0.96204  0.44132  0.31444  1.0000
  H   H437      1.0  0.50083  0.42417  0.33910  1.0000
  H   H438      1.0  0.87400  0.48645  0.37291  1.0000
  H   H439      1.0  0.98379  0.29672  0.43994  1.0000
  H   H440      1.0  0.51449  0.00312  0.41030  1.0000
  C   C300      1.0  0.98734  0.34029  0.26188  1.0000
  C   C301      1.0  0.82433  0.49250  0.37209  1.0000
  H   H441      1.0  0.92471  0.49446  0.35798  1.0000
  H   H442      1.0  0.98676  0.43269  0.33376  1.0000
  H   H443      1.0  0.95953  0.33226  0.73502  1.0000
  H   H444      1.0  0.97280  0.44626  0.55588  1.0000
  C   C302      1.0  0.56908  0.02257  0.58425  1.0000
  H   H445      1.0  0.97595  0.37574  0.54431  1.0000
  H   H446      1.0  0.57675  0.03765  0.60276  1.0000
  H   H447      1.0  0.56512  0.03486  0.56717  1.0000
  H   H448      1.0  0.96363  0.40735  0.59164  1.0000
  H   H449      1.0  0.61021  0.01409  0.52122  1.0000
  C   C303      1.0  0.98275  0.34491  0.74234  1.0000
  H   H450      1.0  0.95264  0.39297  0.54145  1.0000
  H   H451      1.0  0.97407  0.31788  0.53089  1.0000
  H   H452      1.0  0.52231  0.01227  0.61837  1.0000
  C   C304      1.0  0.68341  0.99683  0.74605  1.0000
  C   C305      1.0  0.99232  0.33695  0.51999  1.0000
  H   H453      1.0  0.98386  0.40337  0.51773  1.0000
  C   C306      1.0  0.97642  0.39743  0.53973  1.0000
  C   C307      1.0  0.98718  0.41185  0.58780  1.0000
  H   H454      1.0  0.98761  0.39062  0.59274  1.0000
  C   C308      1.0  0.62778  0.00859  0.51654  1.0000
  H   H455      1.0  0.70469  0.99710  0.74295  1.0000
  H   H456      1.0  0.58837  0.01923  0.57781  1.0000
  H   H457      1.0  0.51082  0.01021  0.58279  1.0000
  C   C309      1.0  0.62887  0.99660  0.75433  1.0000
  C   C310      1.0  0.51638  0.99834  0.59915  1.0000
  H   H458      1.0  0.56065  0.02480  0.83386  1.0000
  H   H459      1.0  0.51376  0.44140  0.98663  1.0000
  C   C311      1.0  0.52642  0.43061  0.97781  1.0000
  S   S115      1.0  0.85189  0.27980  0.88878  1.0000
  S   S116      1.0  0.93783  0.30125  0.87190  1.0000
  Fe  Fe57      1.0  0.72429  0.10128  0.87797  1.0000
  S   S117      1.0  0.70686  0.05085  0.87101  1.0000
  S   S118      1.0  0.77596  0.13474  0.87666  1.0000
  Fe  Fe58      1.0  0.66005  0.09042  0.88576  1.0000
  S   S119      1.0  0.63891  0.04045  0.87936  1.0000
  S   S120      1.0  0.63210  0.11302  0.89478  1.0000
  Fe  Fe59      1.0  0.67548  0.04340  0.90739  1.0000
  H   H460      1.0  0.88930  0.47053  0.94313  1.0000
  Fe  Fe60      1.0  0.67134  0.05173  0.84351  1.0000
  S   S121      1.0  0.64531  0.02744  0.80395  1.0000
  S   S122      1.0  0.69509  0.09329  0.91603  1.0000
  S   S123      1.0  0.69048  0.10229  0.84834  1.0000
  S   S124      1.0  0.93075  0.34727  0.91573  1.0000
  H   H461      1.0  0.84022  0.17752  0.87771  1.0000
  C   C312      1.0  0.57160  0.04248  0.96500  1.0000
  H   H462      1.0  0.87064  0.23388  0.88231  1.0000
  C   C313      1.0  0.58644  0.08375  0.81880  1.0000
  C   C314      1.0  0.89125  0.24207  0.98568  1.0000
  C   C315      1.0  0.92273  0.48769  0.86272  1.0000
  H   H463      1.0  0.60148  0.04238  0.83443  1.0000
  C   C316      1.0  0.59208  0.09236  0.89161  1.0000
  C   C317      1.0  0.57552  0.10774  0.89281  1.0000
  C   C318      1.0  0.54359  0.09175  0.88988  1.0000
  C   C319      1.0  0.52814  0.06024  0.88606  1.0000
  C   C320      1.0  0.54468  0.04489  0.88529  1.0000
  C   C321      1.0  0.57650  0.06087  0.88785  1.0000
  H   H464      1.0  0.58743  0.13213  0.89571  1.0000
  H   H465      1.0  0.53097  0.10375  0.89052  1.0000
  H   H466      1.0  0.53276  0.02048  0.88246  1.0000
  H   H467      1.0  0.58878  0.04869  0.88698  1.0000
  C   C322      1.0  0.83137  0.23946  0.88561  1.0000
  C   C323      1.0  0.79931  0.22406  0.88622  1.0000
  C   C324      1.0  0.78200  0.19211  0.88364  1.0000
  C   C325      1.0  0.79658  0.17507  0.88050  1.0000
  C   C326      1.0  0.82870  0.19049  0.88008  1.0000
  C   C327      1.0  0.84602  0.22246  0.88268  1.0000
  H   H468      1.0  0.78769  0.23692  0.88864  1.0000
  H   H469      1.0  0.75736  0.18066  0.88405  1.0000
  C   C328      1.0  0.91703  0.26404  0.94253  1.0000
  S   S125      1.0  0.98852  0.37386  0.87108  1.0000
  H   H470      1.0  0.58027  0.01460  0.80863  1.0000
  C   C329      1.0  0.61169  0.06924  0.78460  1.0000
  H   H471      1.0  0.92570  0.28380  0.92828  1.0000
  C   C330      1.0  0.93824  0.48436  0.97525  1.0000
  N   N27       1.0  0.60425  0.05601  0.97184  1.0000
  H   H472      1.0  0.98872  0.49541  0.88836  1.0000
  H   H473      1.0  0.98953  0.38002  0.95823  1.0000
  H   H474      1.0  0.56037  0.01732  0.96295  1.0000
  C   C331      1.0  0.52387  0.39034  0.94919  1.0000
  H   H475      1.0  0.60586  0.48252  0.88296  1.0000
  N   N28       1.0  0.50623  0.40378  0.96084  1.0000
  C   C332      1.0  0.84300  0.25341  0.77581  1.0000
  H   H476      1.0  0.63262  0.07836  0.79756  1.0000
  H   H477      1.0  0.61457  0.08760  0.77024  1.0000
  C   C333      1.0  0.91216  0.48608  0.93412  1.0000
  H   H478      1.0  0.56580  0.07641  0.83195  1.0000
  H   H479      1.0  0.54567  0.44818  0.96521  1.0000
  C   C334      1.0  0.67936  0.01043  0.77007  1.0000
  H   H480      1.0  0.68690  0.05088  0.98124  1.0000
  H   H481      1.0  0.87446  0.22070  0.97509  1.0000
  N   N29       1.0  0.90215  0.26857  0.96701  1.0000
  C   C335      1.0  0.65312  0.00390  0.97519  1.0000
  C   C336      1.0  0.98839  0.34827  0.77106  1.0000
  Fe  Fe61      1.0  0.90257  0.31393  0.88243  1.0000
  C   C337      1.0  0.92438  0.29642  0.98181  1.0000
  H   H482      1.0  0.88768  0.27956  0.83289  1.0000
  C   C338      1.0  0.85026  0.22480  0.81193  1.0000
  H   H483      1.0  0.59859  0.01890  0.99758  1.0000
  N   N30       1.0  0.86454  0.25397  0.79667  1.0000
  C   C339      1.0  0.61839  0.08944  0.97361  1.0000
  H   H484      1.0  0.90102  0.24342  0.93061  1.0000
  C   C340      1.0  0.61968  0.04831  0.94992  1.0000
  H   H485      1.0  0.94668  0.47060  0.96435  1.0000
  H   H486      1.0  0.61886  0.05829  0.92969  1.0000
  C   C341      1.0  0.67058  0.02984  0.99122  1.0000
  N   N31       1.0  0.58408  0.05828  0.80202  1.0000
  H   H487      1.0  0.55914  0.04762  0.98120  1.0000
  C   C342      1.0  0.58138  0.03392  0.82057  1.0000
  H   H488      1.0  0.91953  0.47177  0.92271  1.0000
  H   H489      1.0  0.60775  0.09625  0.99026  1.0000
  H   H490      1.0  0.91630  0.46824  0.98553  1.0000
  H   H491      1.0  0.85301  0.27531  0.76422  1.0000
  H   H492      1.0  0.54241  0.40660  0.93518  1.0000
  C   C343      1.0  0.89259  0.25865  0.78269  1.0000
  H   H493      1.0  0.82957  0.22103  0.82352  1.0000
  H   H494      1.0  0.90343  0.28002  0.77025  1.0000
  S   S126      1.0  0.99116  0.32640  0.93816  1.0000
  H   H495      1.0  0.84323  0.20513  0.79774  1.0000
  C   C344      1.0  0.87234  0.27915  0.81631  1.0000
  H   H496      1.0  0.69740  0.02098  0.78520  1.0000
  H   H497      1.0  0.50915  0.36978  0.93653  1.0000
  H   H498      1.0  0.63178  0.05469  0.00498  1.0000
  H   H499      1.0  0.53633  0.42435  0.99541  1.0000
  H   H500      1.0  0.58897  0.10277  0.80552  1.0000
  Fe  Fe62      1.0  0.95538  0.33956  0.84070  1.0000
  H   H501      1.0  0.61595  0.09924  0.95375  1.0000
  C   C345      1.0  0.87602  0.27172  0.95791  1.0000
  H   H502      1.0  0.82151  0.24970  0.78575  1.0000
  H   H503      1.0  0.53437  0.38340  0.96572  1.0000
  C   C346      1.0  0.55682  0.04614  0.78418  1.0000
  H   H504      1.0  0.91045  0.23905  0.99280  1.0000
  H   H505      1.0  0.91416  0.30069  0.00050  1.0000
  H   H506      1.0  0.64326  0.10046  0.97792  1.0000
  S   S127      1.0  0.65693  0.00398  0.93855  1.0000
  H   H507      1.0  0.57924  0.42598  0.88472  1.0000
  Fe  Fe63      1.0  0.95028  0.38256  0.88206  1.0000
  S   S128      1.0  0.96552  0.43182  0.89173  1.0000
  C   C347      1.0  0.94930  0.45257  0.87799  1.0000
  C   C348      1.0  0.96577  0.48434  0.88021  1.0000
  H   H508      1.0  0.60652  0.09308  0.83288  1.0000
  C   C349      1.0  0.90663  0.45598  0.85935  1.0000
  C   C350      1.0  0.91985  0.43839  0.86702  1.0000
  H   H509      1.0  0.88354  0.44486  0.85155  1.0000
  H   H510      1.0  0.90697  0.41387  0.86524  1.0000
  S   S129      1.0  0.91838  0.35068  0.84995  1.0000
  C   C351      1.0  0.65201  0.01042  0.77436  1.0000
  C   C352      1.0  0.53535  0.41991  0.87366  1.0000
  C   C353      1.0  0.51932  0.43470  0.86666  1.0000
  C   C354      1.0  0.53436  0.46659  0.86573  1.0000
  C   C355      1.0  0.56558  0.48399  0.87163  1.0000
  C   C356      1.0  0.58176  0.46929  0.87850  1.0000
  C   C357      1.0  0.56665  0.43730  0.87947  1.0000
  H   H511      1.0  0.52171  0.47779  0.86031  1.0000
  H   H512      1.0  0.56845  0.05151  0.94502  1.0000
  S   S130      1.0  0.51678  0.37989  0.87619  1.0000
  Fe  Fe64      1.0  0.96726  0.33697  0.90346  1.0000
  S   S131      1.0  0.95708  0.33000  0.79454  1.0000
  H   H513      1.0  0.93710  0.26189  0.94849  1.0000
  H   H514      1.0  0.53561  0.03768  0.79680  1.0000
  H   H515      1.0  0.88439  0.30166  0.80570  1.0000
  H   H516      1.0  0.85172  0.27702  0.82675  1.0000
  H   H517      1.0  0.64409  0.05716  0.95490  1.0000
  C   C358      1.0  0.60746  0.04386  0.99868  1.0000
  H   H518      1.0  0.85905  0.25134  0.94618  1.0000
  H   H519      1.0  0.88344  0.29156  0.94384  1.0000
  H   H520      1.0  0.61091  0.05050  0.77191  1.0000
  H   H521      1.0  0.55434  0.02679  0.77134  1.0000
  H   H522      1.0  0.93320  0.31686  0.96826  1.0000
  H   H523      1.0  0.86627  0.22421  0.82731  1.0000
  H   H524      1.0  0.86402  0.27499  0.97578  1.0000
  H   H525      1.0  0.91001  0.26078  0.79797  1.0000
  H   H526      1.0  0.55801  0.06387  0.76986  1.0000
  H   H527      1.0  0.94466  0.29502  0.98854  1.0000
  H   H528      1.0  0.60910  0.02327  0.94710  1.0000
  H   H529      1.0  0.88793  0.23957  0.76846  1.0000
  H   H530      1.0  0.51179  0.43140  0.92510  1.0000
  H   H531      1.0  0.87994  0.24475  0.00444  1.0000
  H   H532      1.0  0.83685  0.23489  0.76044  1.0000
  Fe  Fe65      1.0  0.57214  0.62694  0.14003  1.0000
  S   S132      1.0  0.53932  0.58031  0.15735  1.0000
  S   S133      1.0  0.61656  0.63264  0.12448  1.0000
  C   C359      1.0  0.55736  0.95288  0.21705  1.0000
  C   C360      1.0  0.66517  0.66249  0.21997  1.0000
  H   H533      1.0  0.68682  0.62548  0.02315  1.0000
  H   H534      1.0  0.56158  0.74048  0.01926  1.0000
  C   C361      1.0  0.60689  0.59188  0.18914  1.0000
  H   H535      1.0  0.70673  0.66116  0.22528  1.0000
  C   C362      1.0  0.68579  0.65720  0.23505  1.0000
  H   H536      1.0  0.63708  0.56200  0.19863  1.0000
  C   C363      1.0  0.63847  0.65394  0.02433  1.0000
  H   H537      1.0  0.63549  0.91969  0.03559  1.0000
  C   C364      1.0  0.60568  0.57466  0.23600  1.0000
  C   C365      1.0  0.61569  0.73955  0.21424  1.0000
  H   H538      1.0  0.61051  0.71631  0.07582  1.0000
  C   C366      1.0  0.63830  0.65742  0.23297  1.0000
  H   H539      1.0  0.55165  0.55791  0.21160  1.0000
  C   C367      1.0  0.69321  0.96453  0.02895  1.0000
  Fe  Fe66      1.0  0.61656  0.66610  0.09400  1.0000
  S   S134      1.0  0.67373  0.67559  0.18511  1.0000
  C   C368      1.0  0.54348  0.98183  0.18682  1.0000
  H   H540      1.0  0.59887  0.74711  0.01019  1.0000
  C   C369      1.0  0.66404  0.77962  0.23106  1.0000
  H   H541      1.0  0.60620  0.75508  0.21230  1.0000
  C   C370      1.0  0.61179  0.54776  0.19750  1.0000
  H   H542      1.0  0.56509  0.67592  0.05156  1.0000
  H   H543      1.0  0.58183  0.69262  0.01906  1.0000
  N   N32       1.0  0.59694  0.56489  0.20699  1.0000
  H   H544      1.0  0.64769  0.78658  0.17978  1.0000
  C   C371      1.0  0.65755  0.64348  0.03413  1.0000
  C   C372      1.0  0.97785  0.65328  0.15241  1.0000
  H   H545      1.0  0.53351  0.93349  0.21639  1.0000
  C   C373      1.0  0.50233  0.55703  0.14401  1.0000
  H   H546      1.0  0.56738  0.95195  0.23722  1.0000
  H   H547      1.0  0.68545  0.74551  0.20813  1.0000
  H   H548      1.0  0.55613  0.53757  0.18350  1.0000
  Fe  Fe67      1.0  0.63754  0.67151  0.15475  1.0000
  H   H549      1.0  0.98263  0.66796  0.17104  1.0000
  S   S135      1.0  0.62189  0.66969  0.04678  1.0000
  H   H550      1.0  0.59457  0.76959  0.03676  1.0000
  H   H551      1.0  0.93950  0.66650  0.12567  1.0000
  H   H552      1.0  0.61275  0.95426  0.02769  1.0000
  H   H553      1.0  0.62220  0.66140  0.22184  1.0000
  H   H554      1.0  0.66195  0.64411  0.05611  1.0000
  H   H555      1.0  0.51822  0.96899  0.23758  1.0000
  H   H556      1.0  0.63208  0.60706  0.18955  1.0000
  C   C374      1.0  0.69919  0.95083  0.07545  1.0000
  H   H557      1.0  0.60479  0.52716  0.21045  1.0000
  C   C375      1.0  0.56197  0.72371  0.07205  1.0000
  H   H558      1.0  0.55941  0.70721  0.08847  1.0000
  H   H559      1.0  0.50315  0.59075  0.11650  1.0000
  N   N33       1.0  0.64904  0.75586  0.20968  1.0000
  C   C376      1.0  0.65602  0.77012  0.18191  1.0000
  Fe  Fe68      1.0  0.59617  0.69638  0.13720  1.0000
  S   S136      1.0  0.58152  0.73152  0.14631  1.0000
  S   S137      1.0  0.64239  0.70628  0.12272  1.0000
  Fe  Fe69      1.0  0.61728  0.90500  0.12961  1.0000
  S   S138      1.0  0.65439  0.95435  0.12984  1.0000
  S   S139      1.0  0.63458  0.87239  0.11722  1.0000
  Fe  Fe70      1.0  0.56902  0.92265  0.14156  1.0000
  S   S140      1.0  0.60279  0.97257  0.14125  1.0000
  S   S141      1.0  0.52233  0.90977  0.15858  1.0000
  Fe  Fe71      1.0  0.62304  0.96314  0.10363  1.0000
  H   H560      1.0  0.65930  0.76959  0.25227  1.0000
  Fe  Fe72      1.0  0.63149  0.96037  0.16744  1.0000
  C   C377      1.0  0.64924  0.92784  0.05487  1.0000
  S   S142      1.0  0.58661  0.91362  0.10155  1.0000
  S   S143      1.0  0.59703  0.91048  0.16955  1.0000
  H   H561      1.0  0.60948  0.72874  0.23509  1.0000
  S   S144      1.0  0.59331  0.66463  0.17119  1.0000
  C   C378      1.0  0.97789  0.65068  0.10235  1.0000
  H   H562      1.0  0.67310  0.90539  0.01864  1.0000
  H   H563      1.0  0.55496  0.52484  0.21853  1.0000
  H   H564      1.0  0.95382  0.63446  0.15371  1.0000
  H   H565      1.0  0.68095  0.78249  0.17760  1.0000
  H   H566      1.0  0.64546  0.94579  0.06393  1.0000
  H   H567      1.0  0.68923  0.79243  0.22817  1.0000
  C   C379      1.0  0.59696  0.77074  0.13803  1.0000
  C   C380      1.0  0.58135  0.78565  0.14695  1.0000
  C   C381      1.0  0.59254  0.81668  0.14094  1.0000
  C   C382      1.0  0.61957  0.83327  0.12582  1.0000
  C   C383      1.0  0.63524  0.81834  0.11692  1.0000
  C   C384      1.0  0.62410  0.78733  0.12303  1.0000
  H   H568      1.0  0.56032  0.77312  0.15856  1.0000
  H   H569      1.0  0.58016  0.82772  0.14793  1.0000
  H   H570      1.0  0.65626  0.83096  0.10534  1.0000
  H   H571      1.0  0.63663  0.77638  0.11631  1.0000
  C   C385      1.0  0.56747  0.69336  0.03627  1.0000
  H   H572      1.0  0.64970  0.71607  0.19548  1.0000
  C   C386      1.0  0.62922  0.97187  0.25200  1.0000
  C   C387      1.0  0.66036  0.73416  0.21147  1.0000
  H   H573      1.0  0.51920  0.96329  0.18664  1.0000
  C   C388      1.0  0.54253  0.98739  0.23643  1.0000
  N   N34       1.0  0.68193  0.93945  0.04936  1.0000
  H   H574      1.0  0.64483  0.75278  0.16534  1.0000
  H   H575      1.0  0.61548  0.95047  0.24144  1.0000
  H   H576      1.0  0.65593  0.79635  0.23031  1.0000
  H   H577      1.0  0.57188  0.74639  0.08221  1.0000
  S   S145      1.0  0.57017  0.65753  0.10760  1.0000
  H   H578      1.0  0.62695  0.73200  0.04289  1.0000
  C   C389      1.0  0.68594  0.91453  0.03830  1.0000
  H   H579      1.0  0.71035  0.92238  0.03394  1.0000
  H   H580      1.0  0.59455  0.58731  0.24395  1.0000
  H   H581      1.0  0.57020  0.94882  0.20040  1.0000
  H   H582      1.0  0.69740  0.97034  0.08383  1.0000
  C   C390      1.0  0.67167  0.63295  0.01535  1.0000
  H   H583      1.0  0.63981  0.90859  0.06986  1.0000
  H   H584      1.0  0.60578  0.54022  0.17559  1.0000
  N   N35       1.0  0.58137  0.72394  0.04894  1.0000
  H   H585      1.0  0.53868  0.71731  0.06488  1.0000
  C   C391      1.0  0.58422  0.74628  0.02783  1.0000
  C   C392      1.0  0.62913  0.97525  0.01774  1.0000
  C   C393      1.0  0.96399  0.68438  0.12520  1.0000
  H   H586      1.0  0.54441  0.68607  0.02789  1.0000
  C   C394      1.0  0.61192  0.73247  0.05958  1.0000
  H   H587      1.0  0.55334  0.98797  0.25666  1.0000
  H   H588      1.0  0.67752  0.89534  0.05338  1.0000
  H   H589      1.0  0.59635  0.60557  0.19577  1.0000
  H   H590      1.0  0.60367  0.72123  0.19865  1.0000
  H   H591      1.0  0.71764  0.97342  0.02376  1.0000
  H   H592      1.0  0.51101  0.90996  0.09917  1.0000
  H   H593      1.0  0.69041  0.93280  0.09174  1.0000
  H   H594      1.0  0.62339  0.75560  0.06885  1.0000
  H   H595      1.0  0.60014  0.58521  0.16720  1.0000
  C   C395      1.0  0.56347  0.54535  0.20518  1.0000
  H   H596      1.0  0.63075  0.58997  0.23798  1.0000
  H   H597      1.0  0.55465  0.97761  0.16884  1.0000
  H   H598      1.0  0.96812  0.69784  0.10583  1.0000
  H   H599      1.0  0.65532  0.72269  0.23204  1.0000
  H   H600      1.0  0.95385  0.63182  0.10195  1.0000
  N   N36       1.0  0.55853  0.98231  0.21318  1.0000
  H   H601      1.0  0.69118  0.98397  0.03714  1.0000
  H   H602      1.0  0.72384  0.95889  0.07235  1.0000
  H   H603      1.0  0.96821  0.69992  0.14303  1.0000
  N   N37       1.0  0.98391  0.67092  0.12646  1.0000
  H   H604      1.0  0.59910  0.55499  0.25009  1.0000
  H   H605      1.0  0.99272  0.64302  0.15414  1.0000
  H   H606      1.0  0.98277  0.66341  0.08242  1.0000
  H   H607      1.0  0.99278  0.64034  0.10256  1.0000
  S   S146      1.0  0.65913  0.99452  0.20145  1.0000
  Fe  Fe73      1.0  0.66359  0.61073  0.34247  1.0000
  S   S147      1.0  0.68539  0.58189  0.33664  1.0000
  H   H608      1.0  0.69534  0.64232  0.27399  1.0000
  Fe  Fe74      1.0  0.66072  0.60284  0.40680  1.0000
  S   S148      1.0  0.68172  0.57274  0.40544  1.0000
  Fe  Fe75      1.0  0.71430  0.60612  0.37384  1.0000
  S   S149      1.0  0.76642  0.62844  0.37617  1.0000
  Fe  Fe76      1.0  0.65138  0.55062  0.36838  1.0000
  H   H609      1.0  0.61512  0.96871  0.38427  1.0000
  S   S150      1.0  0.69489  0.63777  0.37741  1.0000
  S   S151      1.0  0.62801  0.57781  0.37212  1.0000
  Fe  Fe77      1.0  0.90441  0.58602  0.38146  1.0000
  S   S152      1.0  0.94896  0.62734  0.36818  1.0000
  S   S153      1.0  0.85311  0.56999  0.38132  1.0000
  Fe  Fe78      1.0  0.93583  0.55004  0.39678  1.0000
  H   H610      1.0  0.83997  0.51622  0.42331  1.0000
  H   H611      1.0  0.62491  0.94705  0.36166  1.0000
  Fe  Fe79      1.0  0.96013  0.59421  0.34730  1.0000
  H   H612      1.0  0.74969  0.61349  0.43226  1.0000
  S   S154      1.0  0.92411  0.58038  0.42145  1.0000
  S   S155      1.0  0.91445  0.55362  0.35757  1.0000
  H   H613      1.0  0.97771  0.60421  0.46999  1.0000
  C   C396      1.0  0.79011  0.61169  0.37738  1.0000
  C   C397      1.0  0.82202  0.63075  0.37798  1.0000
  C   C398      1.0  0.84171  0.61857  0.37914  1.0000
  C   C399      1.0  0.82970  0.58705  0.37981  1.0000
  C   C400      1.0  0.79778  0.56802  0.37942  1.0000
  C   C401      1.0  0.77811  0.58019  0.37821  1.0000
  H   H614      1.0  0.56646  0.55377  0.50090  1.0000
  H   H615      1.0  0.86614  0.63355  0.37941  1.0000
  H   H616      1.0  0.75367  0.56519  0.37774  1.0000
  H   H617      1.0  0.65346  0.92270  0.38014  1.0000
  H   H618      1.0  0.74694  0.65830  0.41460  1.0000
  C   C402      1.0  0.64929  0.62769  0.47810  1.0000
  H   H619      1.0  0.75492  0.68920  0.43739  1.0000
  H   H620      1.0  0.79656  0.66257  0.42360  1.0000
  C   C403      1.0  0.67944  0.64658  0.26270  1.0000
  C   C404      1.0  0.63252  0.63886  0.49215  1.0000
  S   S156      1.0  0.92725  0.50642  0.41737  1.0000
  C   C405      1.0  0.65260  0.64170  0.27567  1.0000
  H   H621      1.0  0.78814  0.54363  0.37990  1.0000
  C   C406      1.0  0.85322  0.50606  0.41454  1.0000
  H   H622      1.0  0.68451  0.61625  0.48215  1.0000
  C   C407      1.0  0.74571  0.66422  0.43660  1.0000
  H   H623      1.0  0.72484  0.60960  0.46037  1.0000
  H   H624      1.0  0.77240  0.68946  0.48514  1.0000
  H   H625      1.0  0.66472  0.92776  0.41593  1.0000
  H   H626      1.0  0.76149  0.61339  0.46717  1.0000
  H   H627      1.0  0.59644  0.92813  0.38822  1.0000
  C   C408      1.0  0.67207  0.62557  0.49247  1.0000
  S   S157      1.0  0.64249  0.62766  0.31005  1.0000
  S   S158      1.0  0.63982  0.61559  0.44312  1.0000
  Fe  Fe80      1.0  0.96911  0.61862  0.40676  1.0000
  H   H628      1.0  0.60692  0.95538  0.29161  1.0000
  H   H629      1.0  0.65162  0.95871  0.44686  1.0000
  S   S159      1.0  0.98211  0.58772  0.38515  1.0000
  H   H630      1.0  0.61493  0.64072  0.48119  1.0000
  H   H631      1.0  0.67885  0.97886  0.37403  1.0000
  N   N38       1.0  0.76294  0.65481  0.45479  1.0000
  S   S160      1.0  0.98593  0.59577  0.30764  1.0000
  H   H632      1.0  0.83163  0.65515  0.37727  1.0000
  H   H633      1.0  0.87320  0.52469  0.40380  1.0000
  H   H634      1.0  0.61206  0.93512  0.43808  1.0000
  C   C409      1.0  0.74913  0.62137  0.45369  1.0000
  H   H635      1.0  0.80608  0.69456  0.44551  1.0000
  H   H636      1.0  0.80867  0.66266  0.45841  1.0000
  C   C410      1.0  0.67161  0.97991  0.39564  1.0000
  H   H637      1.0  0.63074  0.97565  0.43358  1.0000
  H   H638      1.0  0.73815  0.65413  0.49131  1.0000
  H   H639      1.0  0.62525  0.90432  0.40693  1.0000
  C   C411      1.0  0.62456  0.97470  0.28049  1.0000
  H   H640      1.0  0.72114  0.65289  0.44250  1.0000
  H   H641      1.0  0.61151  0.64385  0.27057  1.0000
  C   C412      1.0  0.63377  0.95546  0.43160  1.0000
  C   C413      1.0  0.79498  0.66933  0.44525  1.0000
  H   H642      1.0  0.52221  0.50467  0.35261  1.0000
  H   H643      1.0  0.69035  0.98364  0.40997  1.0000
  C   C414      1.0  0.76198  0.66433  0.48357  1.0000
  C   C415      1.0  0.61865  0.94876  0.38350  1.0000
  N   N39       1.0  0.64264  0.95238  0.40305  1.0000
  H   H644      1.0  0.86225  0.49852  0.43196  1.0000
  C   C416      1.0  0.64666  0.92555  0.40142  1.0000
  S   S161      1.0  0.62434  0.50063  0.35703  1.0000
  H   H645      1.0  0.77447  0.65732  0.49796  1.0000
  H   H646      1.0  0.69142  0.99004  0.49978  1.0000
  C   C417      1.0  0.67353  0.99516  0.50428  1.0000
  H   H647      1.0  0.84395  0.51083  0.36042  1.0000
  H   H648      1.0  0.81060  0.50264  0.37976  1.0000
  H   H649      1.0  0.59755  0.50845  0.40747  1.0000
  H   H650      1.0  0.98379  0.64954  0.28738  1.0000
  C   C418      1.0  0.63230  0.64750  0.26070  1.0000
  Fe  Fe81      1.0  0.57076  0.62568  0.61978  1.0000
  S   S162      1.0  0.52643  0.59198  0.59925  1.0000
  S   S163      1.0  0.60751  0.61379  0.62310  1.0000
  C   C419      1.0  0.67820  0.63491  0.52045  1.0000
  N   N40       1.0  0.56904  0.56279  0.54468  1.0000
  H   H651      1.0  0.52873  0.54000  0.57012  1.0000
  S   S164      1.0  0.59997  0.66952  0.59692  1.0000
  H   H652      1.0  0.55488  0.52599  0.57381  1.0000
  H   H653      1.0  0.56333  0.56168  0.58892  1.0000
  H   H654      1.0  0.53625  0.71148  0.66351  1.0000
  C   C420      1.0  0.65243  0.65404  0.74269  1.0000
  H   H655      1.0  0.55041  0.96914  0.55835  1.0000
  C   C421      1.0  0.65644  0.98411  0.52903  1.0000
  H   H656      1.0  0.57647  0.60197  0.52133  1.0000
  S   S165      1.0  0.66960  0.65704  0.56982  1.0000
  N   N41       1.0  0.51831  0.67967  0.62967  1.0000
  H   H657      1.0  0.69580  0.63312  0.53146  1.0000
  S   S166      1.0  0.62791  0.61311  0.69875  1.0000
  C   C422      1.0  0.66130  0.64596  0.53451  1.0000
  C   C423      1.0  0.66026  0.98306  0.72601  1.0000
  C   C424      1.0  0.60165  0.57191  0.54633  1.0000
  H   H658      1.0  0.97505  0.63820  0.73101  1.0000
  C   C425      1.0  0.55332  0.54682  0.57046  1.0000
  H   H659      1.0  0.62558  0.65683  0.53055  1.0000
  C   C426      1.0  0.64454  0.62543  0.73199  1.0000
  H   H660      1.0  0.50898  0.59054  0.65726  1.0000
  H   H661      1.0  0.51130  0.95173  0.56905  1.0000
  H   H662      1.0  0.57759  0.60669  0.55831  1.0000
  H   H663      1.0  0.56412  0.69759  0.61473  1.0000
  H   H664      1.0  0.98812  0.58126  0.75824  1.0000
  S   S167      1.0  0.58013  0.64705  0.66190  1.0000
  Fe  Fe82      1.0  0.61981  0.63883  0.66384  1.0000
  H   H665      1.0  0.54181  0.58426  0.54121  1.0000
  S   S168      1.0  0.61173  0.97846  0.56659  1.0000
  C   C427      1.0  0.53222  0.97397  0.56523  1.0000
  H   H666      1.0  0.53752  0.69487  0.58893  1.0000
  Fe  Fe83      1.0  0.63759  0.65864  0.60263  1.0000
  H   H667      1.0  0.55689  0.99209  0.63169  1.0000
  C   C428      1.0  0.63843  0.64793  0.52016  1.0000
  H   H668      1.0  0.61484  0.97244  0.71526  1.0000
  C   C429      1.0  0.56612  0.59012  0.54118  1.0000
  H   H669      1.0  0.61334  0.58854  0.56340  1.0000
  H   H670      1.0  0.75477  0.62119  0.75005  1.0000
  H   H671      1.0  0.64278  0.58294  0.74050  1.0000
  H   H672      1.0  0.61387  0.58289  0.52674  1.0000
  H   H673      1.0  0.55103  0.72433  0.61482  1.0000
  H   H674      1.0  0.60477  0.55205  0.55010  1.0000
  H   H675      1.0  0.67232  0.92104  0.66435  1.0000
  C   C430      1.0  0.67965  0.86254  0.68916  1.0000
  H   H676      1.0  0.98779  0.59751  0.51902  1.0000
  C   C431      1.0  0.67401  0.90005  0.66338  1.0000
  H   H677      1.0  0.69419  0.90526  0.65032  1.0000
  H   H678      1.0  0.70123  0.93526  0.70766  1.0000
  Fe  Fe84      1.0  0.61240  0.69079  0.63950  1.0000
  S   S169      1.0  0.60863  0.73109  0.65662  1.0000
  S   S170      1.0  0.65285  0.68349  0.64379  1.0000
  Fe  Fe85      1.0  0.60997  0.88875  0.62098  1.0000
  S   S171      1.0  0.64755  0.93791  0.61803  1.0000
  S   S172      1.0  0.61888  0.85165  0.60401  1.0000
  Fe  Fe86      1.0  0.56535  0.90680  0.64472  1.0000
  S   S173      1.0  0.59966  0.95662  0.64404  1.0000
  S   S174      1.0  0.51900  0.89241  0.66312  1.0000
  Fe  Fe87      1.0  0.61179  0.94755  0.60128  1.0000
  C   C432      1.0  0.64870  0.60508  0.74866  1.0000
  Fe  Fe88      1.0  0.63213  0.94290  0.66093  1.0000
  H   H679      1.0  0.68119  0.85391  0.70993  1.0000
  S   S175      1.0  0.57513  0.89820  0.60130  1.0000
  S   S176      1.0  0.59696  0.89327  0.66458  1.0000
  H   H680      1.0  0.65351  0.88243  0.65232  1.0000
  H   H681      1.0  0.62782  0.86388  0.69737  1.0000
  H   H682      1.0  0.70583  0.90759  0.72684  1.0000
  H   H683      1.0  0.72462  0.92104  0.69385  1.0000
  H   H684      1.0  0.65985  0.84373  0.67822  1.0000
  C   C433      1.0  0.50958  0.64769  0.62410  1.0000
  H   H685      1.0  0.50909  0.67296  0.67351  1.0000
  H   H686      1.0  0.64539  0.90243  0.70944  1.0000
  H   H687      1.0  0.50699  0.88687  0.60419  1.0000
  C   C434      1.0  0.61119  0.76420  0.64130  1.0000
  C   C435      1.0  0.60364  0.78266  0.65744  1.0000
  C   C436      1.0  0.60536  0.80920  0.64633  1.0000
  C   C437      1.0  0.61500  0.81781  0.61893  1.0000
  C   C438      1.0  0.62231  0.79920  0.60276  1.0000
  C   C439      1.0  0.62029  0.77251  0.61378  1.0000
  H   H688      1.0  0.59641  0.77638  0.67872  1.0000
  H   H689      1.0  0.59931  0.82302  0.65893  1.0000
  H   H690      1.0  0.62980  0.80563  0.58154  1.0000
  H   H691      1.0  0.62626  0.75867  0.60109  1.0000
  C   C440      1.0  0.52798  0.68709  0.65888  1.0000
  C   C441      1.0  0.54375  0.69997  0.61116  1.0000
  H   H692      1.0  0.64961  0.87468  0.72887  1.0000
  C   C442      1.0  0.70324  0.91444  0.70559  1.0000
  H   H693      1.0  0.64943  0.66997  0.73011  1.0000
  C   C443      1.0  0.64858  0.88231  0.70750  1.0000
  N   N42       1.0  0.67638  0.88981  0.69142  1.0000
  C   C444      1.0  0.63356  0.99095  0.53540  1.0000
  C   C445      1.0  0.63292  0.98300  0.73036  1.0000
  H   H694      1.0  0.70045  0.86745  0.67719  1.0000
  C   C446      1.0  0.54807  0.97766  0.61285  1.0000
  S   S177      1.0  0.66642  0.96610  0.69607  1.0000
  H   H695      1.0  0.52739  0.98511  0.54771  1.0000
  H   H696      1.0  0.52739  0.95629  0.61916  1.0000
  N   N43       1.0  0.54142  0.99317  0.59037  1.0000
  H   H697      1.0  0.53046  0.53511  0.51883  1.0000
  H   H698      1.0  0.52898  0.64375  0.62778  1.0000
  H   H699      1.0  0.55686  0.52146  0.52260  1.0000
  H   H700      1.0  0.49783  0.70785  0.62874  1.0000
  H   H701      1.0  0.54713  0.68305  0.66368  1.0000
  C   C447      1.0  0.55506  0.54234  0.52070  1.0000
  C   C448      1.0  0.99460  0.64204  0.74311  1.0000
  H   H702      1.0  0.66122  0.97064  0.54331  1.0000
  H   H703      1.0  0.50238  0.64115  0.60221  1.0000
  H   H704      1.0  0.56540  0.97159  0.60620  1.0000
  H   H705      1.0  0.60756  0.99625  0.75741  1.0000
  Fe  Fe89      1.0  0.67711  0.61882  0.85487  1.0000
  S   S178      1.0  0.66759  0.57217  0.84367  1.0000
  H   H706      1.0  0.93970  0.53714  0.98696  1.0000
  Fe  Fe90      1.0  0.67652  0.60681  0.91801  1.0000
  S   S179      1.0  0.66605  0.55880  0.91009  1.0000
  S   S180      1.0  0.68618  0.62013  0.96379  1.0000
  Fe  Fe91      1.0  0.70201  0.57931  0.87666  1.0000
  S   S181      1.0  0.73624  0.56291  0.87057  1.0000
  Fe  Fe92      1.0  0.63306  0.55675  0.87807  1.0000
  S   S182      1.0  0.58311  0.52394  0.87002  1.0000
  S   S183      1.0  0.71403  0.62734  0.88572  1.0000
  S   S184      1.0  0.64107  0.60345  0.88808  1.0000
  N   N44       1.0  0.75079  0.61446  0.79425  1.0000
  H   H707      1.0  0.66239  0.59672  0.78853  1.0000
  H   H708      1.0  0.80223  0.60724  0.95108  1.0000
  Fe  Fe93      1.0  0.91442  0.61047  0.88019  1.0000
  S   S185      1.0  0.96400  0.64236  0.89158  1.0000
  S   S186      1.0  0.88150  0.62924  0.88110  1.0000
  Fe  Fe94      1.0  0.92597  0.55784  0.87001  1.0000
  H   H709      1.0  0.56293  0.60700  0.80316  1.0000
  Fe  Fe95      1.0  0.96013  0.60325  0.91697  1.0000
  H   H710      1.0  0.56310  0.52313  0.80902  1.0000
  Fe  Fe96      1.0  0.97503  0.62195  0.85458  1.0000
  H   H711      1.0  0.61863  0.66120  0.98773  1.0000
  S   S187      1.0  0.91016  0.57257  0.90749  1.0000
  S   S188      1.0  0.92617  0.59307  0.84166  1.0000
  H   H712      1.0  0.75078  0.60661  0.91662  1.0000
  H   H713      1.0  0.52898  0.52276  0.79818  1.0000
  H   H714      1.0  0.96540  0.52617  0.87502  1.0000
  C   C449      1.0  0.75727  0.61773  0.93724  1.0000
  H   H715      1.0  0.78016  0.60203  0.81560  1.0000
  H   H716      1.0  0.83995  0.65197  0.88091  1.0000
  C   C450      1.0  0.99210  0.63962  0.77227  1.0000
  C   C451      1.0  0.77670  0.58201  0.87322  1.0000
  C   C452      1.0  0.79444  0.61359  0.87620  1.0000
  C   C453      1.0  0.82640  0.62754  0.87857  1.0000
  C   C454      1.0  0.84113  0.61025  0.87783  1.0000
  C   C455      1.0  0.82340  0.57872  0.87464  1.0000
  C   C456      1.0  0.79142  0.56475  0.87230  1.0000
  H   H717      1.0  0.78373  0.62739  0.87653  1.0000
  H   H718      1.0  0.54196  0.53187  0.83339  1.0000
  H   H719      1.0  0.83436  0.56511  0.87395  1.0000
  H   H720      1.0  0.77801  0.54032  0.86985  1.0000
  C   C457      1.0  0.66746  0.64133  0.78674  1.0000
  C   C458      1.0  0.64694  0.64208  0.97686  1.0000
  H   H721      1.0  0.59077  0.59467  0.76810  1.0000
  C   C459      1.0  0.66651  0.63220  0.98661  1.0000
  H   H722      1.0  0.70718  0.57506  0.96299  1.0000
  H   H723      1.0  0.78058  0.63784  0.93538  1.0000
  H   H724      1.0  0.78505  0.60498  0.77867  1.0000
  N   N45       1.0  0.56793  0.56744  0.80394  1.0000
  C   C460      1.0  0.77878  0.58717  0.95214  1.0000
  H   H725      1.0  0.76114  0.59546  0.00269  1.0000
  H   H726      1.0  0.60979  0.57135  0.81855  1.0000
  H   H727      1.0  0.94477  0.51276  0.76185  1.0000
  C   C461      1.0  0.97779  0.56595  0.81228  1.0000
  C   C462      1.0  0.75131  0.63142  0.76916  1.0000
  S   S189      1.0  0.97721  0.59708  0.95926  1.0000
  H   H728      1.0  0.96192  0.54057  0.92721  1.0000
  S   S190      1.0  0.68143  0.65200  0.82106  1.0000
  H   H729      1.0  0.64285  0.64181  0.95485  1.0000
  H   H730      1.0  0.79952  0.63879  0.79947  1.0000
  H   H731      1.0  0.61000  0.60678  0.81647  1.0000
  H   H732      1.0  0.77425  0.57546  0.93170  1.0000
  N   N46       1.0  0.75584  0.59620  0.95854  1.0000
  C   C463      1.0  0.54969  0.58240  0.80862  1.0000
  S   S191      1.0  0.97516  0.58561  0.88102  1.0000
  C   C464      1.0  0.76205  0.61101  0.98601  1.0000
  H   H733      1.0  0.72444  0.56925  0.81093  1.0000
  H   H734      1.0  0.96290  0.55179  0.82955  1.0000
  H   H735      1.0  0.74497  0.61630  0.83812  1.0000
  H   H736      1.0  0.72298  0.55224  0.97458  1.0000
  H   H737      1.0  0.74138  0.62625  0.94214  1.0000
  H   H738      1.0  0.54268  0.58072  0.83076  1.0000
  H   H739      1.0  0.70336  0.58117  0.78957  1.0000
  C   C465      1.0  0.63326  0.65312  0.99560  1.0000
  C   C466      1.0  0.92320  0.52244  0.97081  1.0000
  H   H740      1.0  0.90094  0.50754  0.98113  1.0000
  H   H741      1.0  0.58954  0.58023  0.84384  1.0000
  C   C467      1.0  0.63243  0.97662  0.98863  1.0000
  H   H742      1.0  0.97375  0.51289  0.93177  1.0000
  H   H743      1.0  0.92014  0.53792  0.95653  1.0000
  H   H744      1.0  0.96939  0.58143  0.80564  1.0000
  C   C468      1.0  0.94595  0.52760  0.77934  1.0000
  C   C469      1.0  0.74572  0.62869  0.81888  1.0000
  C   C470      1.0  0.57691  0.57037  0.77442  1.0000
  N   N47       1.0  0.97758  0.54683  0.78914  1.0000
  H   H745      1.0  0.52863  0.57182  0.79582  1.0000
  H   H746      1.0  0.71972  0.55721  0.93812  1.0000
  H   H747      1.0  0.76416  0.65275  0.82136  1.0000
  H   H748      1.0  0.59076  0.55937  0.77015  1.0000
  H   H749      1.0  0.61875  0.95643  0.97639  1.0000
  C   C471      1.0  0.95257  0.50184  0.87265  1.0000
  C   C472      1.0  0.78018  0.61514  0.79706  1.0000
  C   C473      1.0  0.65980  0.61282  0.77593  1.0000
  C   C474      1.0  0.72509  0.56896  0.95860  1.0000
  H   H750      1.0  0.74493  0.61797  0.99125  1.0000
  S   S192      1.0  0.90460  0.50888  0.85559  1.0000
  C   C475      1.0  0.59553  0.58215  0.82141  1.0000
  H   H751      1.0  0.77875  0.57128  0.96801  1.0000
  H   H752      1.0  0.72383  0.62877  0.81742  1.0000
  C   C476      1.0  0.72584  0.58256  0.79205  1.0000
  H   H753      1.0  0.78497  0.63183  0.98656  1.0000
  C   C477      1.0  0.66403  0.66199  0.76987  1.0000
  H   H754      1.0  0.98112  0.54065  0.95820  1.0000
  H   H755      1.0  0.97083  0.63405  0.78238  1.0000
  H   H756      1.0  0.67004  0.68418  0.77795  1.0000
  C   C478      1.0  0.54962  0.53488  0.81137  1.0000
  H   H757      1.0  0.76995  0.65557  0.77011  1.0000
  H   H758      1.0  0.98992  0.51254  0.78192  1.0000
  C   C479      1.0  0.98958  0.52726  0.79887  1.0000
  C   C480      1.0  0.96408  0.52549  0.94263  1.0000
  N   N48       1.0  0.93440  0.50458  0.95571  1.0000
  H   H759      1.0  0.72949  0.63157  0.76673  1.0000
  H   H760      1.0  0.97537  0.51201  0.81603  1.0000
  H   H761      1.0  0.93082  0.51260  0.79627  1.0000
  H   H762      1.0  0.90933  0.50070  0.91857  1.0000
  H   H763      1.0  0.99543  0.66046  0.97364  1.0000
  H   H764      1.0  0.93612  0.54170  0.77215  1.0000
  H   H765      1.0  0.72918  0.57091  0.77395  1.0000
  H   H766      1.0  0.55671  0.55957  0.76055  1.0000
  H   H767      1.0  0.68001  0.95717  0.00929  1.0000
  H   H768      1.0  0.95498  0.49768  0.99174  1.0000
