data_image0
_chemical_formula_structural       H2SH4SHSCHFeHNHSC6H2CFeH2NSHC2H5CSHC2FeCSHCH2S2HSC4H3FeCFeSHFeCH4SHSHSCH3FeH3C6SH2SFeSH2CHCH2C3H3CNHFeHSH3SH2SH3C2SH3CH2CHNC5HCH3CHSHFeC2H2C2H3FeCSH3NSH2C2SCH2C3H3C3HFeHNFeH2CSFeHFeS2FeSHSC5H4SHC2H3FeCH2SHC2HNHCH5CHC2HC3HSFeH2S2H2CSFeCH5CH2CHSHSNSH2CH2CHCH3FeHSCHNC2H4CS2C2FeHS2HC2SH2FeCH2C3H3CH2C5HCH5FeSCHCSHSH3CHFe2H3NHC3FeH6CHNHC2H2CHCHC2FeCH7SH2C5HSNS2HCSCH5CH2CHSH2NHSH7CHSC2HSFeH2C2H3FeC6H2CH2SHC3SCNSH3C2FeCH2FeSCHCHSFeH2CH3SHCNCSHNFeSH3FeSC6H5FeSH2CHNCHC3H5FeSHCH2S2FeCSHFeHSHCHFeSNH3C3H4CH4CSC2SH2CHC3HSHC3NCSH3C2H2CH2CHSCSH2FeHS2CH3FeHCH2FeH2FeCNSCHS2CH2FeCH3C2HC4HSCHC2NC2SHCH2CH4CSHC2H2CSH2CH3S2H2SHNH2CHCHFeH2SHC2HCFeH5CSC2H4CSCHSHC4HSCNHFeHNH3CHNCH6CH2SC2H3C2HCHCHCHCH5CH3C2HCH2CH2SFeHCSH4CHCSH3FeC2HCH2CFeCHSCHCH2C2H3S2CFeHFeHCHSC3H3CHCNH4NH2C3SC2NC2H2CHCH4CH7FeH2SHC2FeH2SH2SH3SFe3H3CSHSH2CSCHCNH2CHC3SH2CHCH2CHSCSHSHFeSFeC3HCHNHFeSCH3CH3C2NHCSHSC2H3SHC2SFeCHCH2SHC3HSHCH2SHCHNCH2FeCFeH4C4H2CHCHCHCHSHC2HCH2Fe2NS2H3S2CNSH4NFeH6C2H4C2HCHCHCH3FeS2FeSFeHSHSCH4CHC7H4SHCNHSHCH3SFeH5CH2CHCHCH3CH3SFeHNCSC2FeH2CSC7HCH2FeH5SHC3H2C2H4CSHCH3NH2CH2SH5FeSCFeSHFeHC4HSH2SCHCH2Fe3CHSH2NH4C2HC2HSH2FeS2H2FeSNHSHCHSC6H4FeHCH3CSCS2HCHC2HCHC2H2SNH2CSHC4H5NCSH2C2HCFeH2FeHC2SH5CHCHSHCH2CHC2NC2HC2H2C2HCH7C2SCH5CHSCHCH2CSCHNH3CHNC2H2CHCS2H6FeSCHCH4CHSH2CSFeSC2HFeHCSHSCHC2H2CH4CS2HCSCHCHFe2HCH2NHCH2C2HCHFe2H4SC2H3FeSHC5HC2H2C2FeSH3CH2CH4SH2SCH2CSHSH4Fe2HC4H3C3H3CNH3C2SHC2H2CHCHCHSCFeCNCS2H6C3H3NH5CHSH2SFeSHCH5C3HFeC2HFeH2CHSC2NH4C2SHC2FeHSC2SH3SHC2HCH2CSNFeHC2H3FeHSH4SHC3H3C2NCHSCFeH4C3HCS3H2FeC3HS2HC6H7CHSH4CSNHC2FeHSHSH4CSHCH2CH2FeH3C2HCH4NHCSFeC4NCSCS3HSHC3HSCSCFeHC2H4CH2C2FeC3NCH5NH2CH8SCHCHSCFeC2H3CHFeCH2CH4FeH7SCSHNSCNHSHFeS2FeSCSHC6H7FeCH3FeCFe2HCHC2H5CNSH2SH7CHC2FeCHSNS3C2H3CFeHSFeCHCHCSC3SCH2C2H3CHSH11CH3CH4CH2SHCH2CHCH3CFeH3C3HSH2SHSH5CH2CHSCFeH2FeSHSHSCHCH2CHCFe2SC2HC2H2CHNSCHCNHCHCH2CSCSHSFeCH2CFeCH3NHSHCH5C2H2C2HC3SH6CFeSCH2SHFeH4SHFeHCSH2CH2C4HS3CHCHCFeCH5CH4CHC2FeCSNH2C2H2C2H3CSCNH3CFe2H2FeSH3SHC4H2CHCHCH2CFeSHSH2SFeHCHNCH3C2HCSHSC2H2NCH2CSH3C2HCH3SC7H5SHCH2CHSH4CFeNHCHC2H3NCHFeNC2HCS2HFe2HSC2HC2H2CH4C2SCH7SHSHS3CSHCSCH3SHFeC5H3CH4NHCH4NC2S2CHSH5C2H6CNC2S2HSC3H2FeSCSC2HC2FeHC2H2CH2FeHSH3SH5CFeHFe2SH2SHCH3C2H6FeCH2CS2C4H2NH2CH2CHCH2FeCH2CHSHCH2C4H5SHCHCH4CHCSNH2CH2CHSCSHCH2FeHFeCHSCSCFeCFeHSH2CFeCH3FeS2H2CSH2CH2NCHSH2CSFeH2C3H2CSCHCHC2HCHC3HCNH3C2H2CHCHNHSCSCH2CH2C2H4CH3NFe2H3SH2C2H2CHSC2HCSH6CS2H3SHC2HC5H2SCHFeHCHCHNSH2NHFeSCFeH3CHSHCH2S2H3S2C2H2C6H4SFeCHFeSCHNSFeH3CFeCH7C3H6SCS2FeSFe2S2HC6H4CHCHNC3H2NH5C2H3SH2CH2SHCHCH2CHCHFeCNSH3CHCH2CSH3NHCHC4H4CH2CH2C3H3CH5C6S3CH5FeHCH3CNCH4CSH3CHFeCFeHCHC2H2SFeHFeHS4CHCHCH3
_chemical_formula_sum              "H1408 S352 C880 Fe176 N88"
_cell_length_a       38.3442
_cell_length_b       77.9575
_cell_length_c       38.5252
_cell_angle_alpha    86.7786
_cell_angle_beta     88.9517
_cell_angle_gamma    84.7874

_space_group_name_H-M_alt    "P 1"
_space_group_IT_number       1

loop_
  _space_group_symop_operation_xyz
  'x, y, z'

loop_
  _atom_site_type_symbol
  _atom_site_label
  _atom_site_symmetry_multiplicity
  _atom_site_fract_x
  _atom_site_fract_y
  _atom_site_fract_z
  _atom_site_occupancy
  H   H1        1.0  0.26392  0.11811  0.16253  1.0000
  H   H2        1.0  0.47876  0.09406  0.07388  1.0000
  S   S1        1.0  0.13233  0.09075  0.31360  1.0000
  H   H3        1.0  0.48378  0.16671  0.06591  1.0000
  H   H4        1.0  0.29044  0.10197  0.25102  1.0000
  H   H5        1.0  0.12735  0.06936  0.25517  1.0000
  H   H6        1.0  0.50123  0.18631  0.25108  1.0000
  S   S2        1.0  0.24182  0.09252  0.10573  1.0000
  H   H7        1.0  0.28425  0.12490  0.25494  1.0000
  S   S3        1.0  0.29839  0.13020  0.09304  1.0000
  C   C1        1.0  0.51063  0.13378  0.07032  1.0000
  H   H8        1.0  0.30286  0.06923  0.12367  1.0000
  Fe  Fe1       1.0  0.17849  0.07083  0.31811  1.0000
  H   H9        1.0  0.41675  0.09259  0.05858  1.0000
  N   N1        1.0  0.50534  0.19980  0.29796  1.0000
  H   H10       1.0  0.53866  0.13618  0.07243  1.0000
  S   S4        1.0  0.23472  0.07708  0.31907  1.0000
  C   C2        1.0  0.25229  0.07900  0.14280  1.0000
  C   C3        1.0  0.22839  0.07844  0.17070  1.0000
  C   C4        1.0  0.23795  0.06928  0.20202  1.0000
  C   C5        1.0  0.27099  0.06016  0.20503  1.0000
  C   C6        1.0  0.29407  0.05987  0.17645  1.0000
  C   C7        1.0  0.28486  0.06942  0.14551  1.0000
  H   H11       1.0  0.20300  0.08569  0.16859  1.0000
  H   H12       1.0  0.21991  0.06953  0.22391  1.0000
  C   C8        1.0  0.30090  0.11445  0.24249  1.0000
  Fe  Fe2       1.0  0.23863  0.05831  0.36560  1.0000
  H   H13       1.0  0.31409  0.09008  0.19755  1.0000
  H   H14       1.0  0.35097  0.10275  0.19635  1.0000
  N   N2        1.0  0.30098  0.11708  0.20417  1.0000
  S   S5        1.0  0.57517  0.19251  0.38481  1.0000
  H   H15       1.0  0.29938  0.14474  0.20496  1.0000
  C   C9        1.0  0.31523  0.13364  0.19388  1.0000
  C   C10       1.0  0.26477  0.11732  0.19149  1.0000
  H   H16       1.0  0.24772  0.12845  0.20095  1.0000
  H   H17       1.0  0.32783  0.11420  0.25292  1.0000
  H   H18       1.0  0.31573  0.13594  0.16512  1.0000
  H   H19       1.0  0.25268  0.10541  0.20054  1.0000
  H   H20       1.0  0.34274  0.13379  0.20260  1.0000
  C   C11       1.0  0.10123  0.07313  0.26456  1.0000
  S   S6        1.0  0.34397  0.09258  0.08711  1.0000
  H   H21       1.0  0.54327  0.19382  0.25763  1.0000
  C   C12       1.0  0.51460  0.19709  0.26110  1.0000
  C   C13       1.0  0.09632  0.08411  0.29205  1.0000
  Fe  Fe3       1.0  0.51735  0.18910  0.12092  1.0000
  C   C14       1.0  0.46719  0.20427  0.30153  1.0000
  S   S7        1.0  0.55181  0.19875  0.07781  1.0000
  H   H22       1.0  0.36873  0.15441  0.09745  1.0000
  C   C15       1.0  0.32304  0.10281  0.18889  1.0000
  H   H23       1.0  0.50969  0.11962  0.06899  1.0000
  H   H24       1.0  0.39630  0.18188  0.08742  1.0000
  S   S8        1.0  0.45940  0.19332  0.11322  1.0000
  S   S9        1.0  0.18159  0.05389  0.36722  1.0000
  H   H25       1.0  0.09091  0.05398  0.33529  1.0000
  S   S10       1.0  0.38902  0.12381  0.14055  1.0000
  C   C16       1.0  0.43870  0.17445  0.12265  1.0000
  C   C17       1.0  0.45357  0.16160  0.14604  1.0000
  C   C18       1.0  0.43778  0.14616  0.15203  1.0000
  C   C19       1.0  0.40743  0.14347  0.13424  1.0000
  H   H26       1.0  0.50865  0.18544  0.34730  1.0000
  H   H27       1.0  0.47695  0.16364  0.15990  1.0000
  H   H28       1.0  0.44935  0.13620  0.17008  1.0000
  Fe  Fe4       1.0  0.24509  0.05358  0.28791  1.0000
  C   C20       1.0  0.39235  0.15638  0.11107  1.0000
  Fe  Fe5       1.0  0.28842  0.10352  0.07957  1.0000
  S   S11       1.0  0.54593  0.16272  0.12661  1.0000
  H   H29       1.0  0.50190  0.17279  0.31081  1.0000
  Fe  Fe6       1.0  0.35451  0.11970  0.09603  1.0000
  C   C21       1.0  0.40787  0.17193  0.10549  1.0000
  H   H30       1.0  0.32234  0.10385  0.15997  1.0000
  H   H31       1.0  0.37893  0.08548  0.38518  1.0000
  H   H32       1.0  0.44268  0.14379  0.06184  1.0000
  H   H33       1.0  0.25961  0.09427  0.37942  1.0000
  S   S12       1.0  0.28465  0.04976  0.24467  1.0000
  H   H34       1.0  0.49683  0.13768  0.09472  1.0000
  S   S13       1.0  0.54626  0.19993  0.16343  1.0000
  H   H35       1.0  0.54414  0.18014  0.31746  1.0000
  S   S14       1.0  0.18867  0.04903  0.28265  1.0000
  C   C22       1.0  0.51544  0.18383  0.31931  1.0000
  H   H36       1.0  0.45211  0.19381  0.29269  1.0000
  H   H37       1.0  0.45952  0.20636  0.32918  1.0000
  H   H38       1.0  0.31949  0.05267  0.17852  1.0000
  Fe  Fe7       1.0  0.57860  0.17445  0.16495  1.0000
  H   H39       1.0  0.50730  0.20885  0.24412  1.0000
  H   H40       1.0  0.30324  0.20360  0.65600  1.0000
  H   H41       1.0  0.45275  0.10206  0.66114  1.0000
  C   C23       1.0  0.29025  0.11342  0.44885  1.0000
  C   C24       1.0  0.27729  0.11169  0.41555  1.0000
  C   C25       1.0  0.30040  0.13950  0.68878  1.0000
  C   C26       1.0  0.27334  0.08108  0.42855  1.0000
  C   C27       1.0  0.28512  0.08294  0.46224  1.0000
  C   C28       1.0  0.29337  0.09909  0.47242  1.0000
  S   S15       1.0  0.26801  0.06030  0.41524  1.0000
  H   H42       1.0  0.28820  0.07181  0.48037  1.0000
  H   H43       1.0  0.30220  0.10042  0.49848  1.0000
  S   S16       1.0  0.30422  0.13331  0.45963  1.0000
  Fe  Fe8       1.0  0.34121  0.13324  0.50443  1.0000
  S   S17       1.0  0.35726  0.11034  0.54040  1.0000
  H   H44       1.0  0.40872  0.11163  0.66643  1.0000
  H   H45       1.0  0.48554  0.06523  0.55394  1.0000
  C   C29       1.0  0.32024  0.19123  0.65771  1.0000
  H   H46       1.0  0.38425  0.06117  0.47060  1.0000
  C   C30       1.0  0.30355  0.13700  0.65310  1.0000
  H   H47       1.0  0.38358  0.20220  0.59977  1.0000
  H   H48       1.0  0.13798  0.16671  0.69085  1.0000
  C   C31       1.0  0.24943  0.15982  0.67848  1.0000
  C   C32       1.0  0.25232  0.15716  0.64285  1.0000
  C   C33       1.0  0.27951  0.14584  0.63013  1.0000
  H   H49       1.0  0.36900  0.06985  0.67843  1.0000
  H   H50       1.0  0.23366  0.16395  0.62503  1.0000
  H   H51       1.0  0.28150  0.14377  0.60262  1.0000
  C   C34       1.0  0.50920  0.07233  0.60078  1.0000
  N   N3        1.0  0.34299  0.18921  0.62653  1.0000
  H   H52       1.0  0.38246  0.17067  0.60708  1.0000
  Fe  Fe9       1.0  0.35403  0.12947  0.58195  1.0000
  H   H53       1.0  0.40133  0.07796  0.49359  1.0000
  S   S18       1.0  0.33876  0.12345  0.63761  1.0000
  H   H54       1.0  0.43242  0.08593  0.61300  1.0000
  H   H55       1.0  0.46549  0.20418  0.53071  1.0000
  H   H56       1.0  0.36601  0.10799  0.44959  1.0000
  S   S19       1.0  0.33322  0.15190  0.54699  1.0000
  H   H57       1.0  0.38839  0.09501  0.61929  1.0000
  H   H58       1.0  0.30266  0.18066  0.66099  1.0000
  S   S20       1.0  0.41002  0.18208  0.54197  1.0000
  H   H59       1.0  0.27445  0.12280  0.39733  1.0000
  H   H60       1.0  0.33585  0.19095  0.68183  1.0000
  H   H61       1.0  0.34361  0.08539  0.41602  1.0000
  C   C35       1.0  0.36448  0.17248  0.62983  1.0000
  C   C36       1.0  0.49148  0.07578  0.56929  1.0000
  S   S21       1.0  0.21667  0.17483  0.69358  1.0000
  H   H62       1.0  0.43325  0.06305  0.42746  1.0000
  H   H63       1.0  0.39961  0.10950  0.41693  1.0000
  H   H64       1.0  0.43152  0.10072  0.70291  1.0000
  C   C37       1.0  0.37087  0.07988  0.41097  1.0000
  H   H65       1.0  0.46485  0.07036  0.66229  1.0000
  H   H66       1.0  0.51632  0.05912  0.60972  1.0000
  C   C38       1.0  0.36621  0.20336  0.62323  1.0000
  H   H67       1.0  0.39793  0.07201  0.62023  1.0000
  N   N4        1.0  0.39457  0.08378  0.43875  1.0000
  C   C39       1.0  0.43092  0.07724  0.43016  1.0000
  C   C40       1.0  0.38019  0.08198  0.68465  1.0000
  C   C41       1.0  0.45715  0.20068  0.50560  1.0000
  C   C42       1.0  0.41934  0.18541  0.47099  1.0000
  C   C43       1.0  0.47998  0.09276  0.55857  1.0000
  H   H68       1.0  0.43001  0.05676  0.67003  1.0000
  C   C44       1.0  0.26882  0.09556  0.40539  1.0000
  H   H69       1.0  0.51102  0.11342  0.62557  1.0000
  H   H70       1.0  0.34789  0.16149  0.63130  1.0000
  H   H71       1.0  0.42662  0.18866  0.41542  1.0000
  C   C45       1.0  0.43021  0.18979  0.50356  1.0000
  H   H72       1.0  0.44480  0.06889  0.70447  1.0000
  S   S22       1.0  0.39619  0.13953  0.49157  1.0000
  H   H73       1.0  0.35683  0.08026  0.47984  1.0000
  Fe  Fe10      1.0  0.38965  0.15617  0.53719  1.0000
  C   C46       1.0  0.39276  0.10264  0.44188  1.0000
  C   C47       1.0  0.43532  0.19195  0.44055  1.0000
  H   H74       1.0  0.36997  0.06574  0.40891  1.0000
  H   H75       1.0  0.39815  0.17727  0.46919  1.0000
  C   C48       1.0  0.38380  0.07539  0.47213  1.0000
  C   C49       1.0  0.43936  0.06934  0.67613  1.0000
  H   H76       1.0  0.38341  0.20328  0.64620  1.0000
  H   H77       1.0  0.38361  0.08174  0.71331  1.0000
  H   H78       1.0  0.38080  0.17141  0.65354  1.0000
  Fe  Fe11      1.0  0.41159  0.11805  0.53089  1.0000
  C   C50       1.0  0.48745  0.10632  0.57869  1.0000
  S   S23       1.0  0.45367  0.09673  0.52180  1.0000
  H   H79       1.0  0.44930  0.07997  0.45089  1.0000
  H   H80       1.0  0.41116  0.10604  0.46183  1.0000
  H   H81       1.0  0.47956  0.11949  0.56998  1.0000
  N   N5        1.0  0.41365  0.08395  0.66581  1.0000
  S   S24       1.0  0.53677  0.08169  0.66140  1.0000
  H   H82       1.0  0.36024  0.09285  0.67761  1.0000
  H   H83       1.0  0.30323  0.17918  0.59683  1.0000
  C   C51       1.0  0.51614  0.08587  0.62120  1.0000
  C   C52       1.0  0.50553  0.10289  0.60996  1.0000
  S   S25       1.0  0.40989  0.13517  0.57561  1.0000
  C   C53       1.0  0.32103  0.18973  0.59528  1.0000
  H   H84       1.0  0.33744  0.18825  0.57124  1.0000
  H   H85       1.0  0.08098  0.15331  0.69581  1.0000
  C   C54       1.0  0.42723  0.10032  0.67449  1.0000
  C   C55       1.0  0.40782  0.08420  0.62795  1.0000
  C   C56       1.0  0.47373  0.20685  0.47521  1.0000
  H   H86       1.0  0.30442  0.20215  0.59191  1.0000
  H   H87       1.0  0.44014  0.08345  0.40536  1.0000
  H   H88       1.0  0.14215  0.18650  0.71101  1.0000
  C   C57       1.0  0.12312  0.17890  0.69851  1.0000
  C   C58       1.0  0.46283  0.20251  0.44263  1.0000
  C   C59       1.0  0.27354  0.15101  0.70146  1.0000
  H   H89       1.0  0.31904  0.13272  0.70662  1.0000
  Fe  Fe12      1.0  0.56383  0.05490  0.66568  1.0000
  H   H90       1.0  0.11421  0.18633  0.67430  1.0000
  N   N6        1.0  0.09343  0.17552  0.72217  1.0000
  Fe  Fe13      1.0  0.56597  0.05125  0.93299  1.0000
  H   H91       1.0  0.16137  0.13876  0.89127  1.0000
  H   H92       1.0  0.20653  0.13377  0.87982  1.0000
  C   C60       1.0  0.32102  0.14797  0.91142  1.0000
  S   S26       1.0  0.28760  0.15943  0.00849  1.0000
  Fe  Fe14      1.0  0.22178  0.17972  0.75002  1.0000
  H   H93       1.0  0.37460  0.20412  0.87449  1.0000
  Fe  Fe15      1.0  0.26100  0.17507  0.81817  1.0000
  S   S27       1.0  0.22119  0.19244  0.84567  1.0000
  S   S28       1.0  0.30848  0.16210  0.84552  1.0000
  Fe  Fe16      1.0  0.18216  0.17863  0.81839  1.0000
  S   S29       1.0  0.13571  0.16830  0.84563  1.0000
  H   H94       1.0  0.14471  0.14656  0.95108  1.0000
  S   S30       1.0  0.22164  0.15981  0.79429  1.0000
  C   C61       1.0  0.47223  0.09097  0.04790  1.0000
  C   C62       1.0  0.30499  0.16184  0.89109  1.0000
  C   C63       1.0  0.28596  0.17537  0.90732  1.0000
  C   C64       1.0  0.28190  0.17480  0.94353  1.0000
  C   C65       1.0  0.29663  0.16062  0.96375  1.0000
  H   H95       1.0  0.20958  0.16680  0.94481  1.0000
  H   H96       1.0  0.27457  0.18638  0.89215  1.0000
  H   H97       1.0  0.26672  0.18520  0.95592  1.0000
  H   H98       1.0  0.16704  0.12663  0.96801  1.0000
  S   S31       1.0  0.26541  0.19312  0.77118  1.0000
  H   H99       1.0  0.32821  0.13629  0.96332  1.0000
  C   C66       1.0  0.18697  0.13280  0.90142  1.0000
  C   C67       1.0  0.09897  0.18281  0.83685  1.0000
  H   H100      1.0  0.25247  0.13399  0.92495  1.0000
  H   H101      1.0  0.17787  0.14677  0.98346  1.0000
  H   H102      1.0  0.12534  0.17218  0.76781  1.0000
  Fe  Fe17      1.0  0.35109  0.10042  0.03087  1.0000
  C   C68       1.0  0.31661  0.14727  0.94777  1.0000
  H   H103      1.0  0.17621  0.16660  0.91257  1.0000
  H   H104      1.0  0.18423  0.11888  0.90769  1.0000
  S   S32       1.0  0.55493  0.04566  0.98947  1.0000
  H   H105      1.0  0.22968  0.11921  0.95250  1.0000
  C   C69       1.0  0.23136  0.13312  0.94503  1.0000
  C   C70       1.0  0.17056  0.14030  0.95989  1.0000
  H   H106      1.0  0.50186  0.14423  0.98393  1.0000
  N   N7        1.0  0.19754  0.14150  0.93217  1.0000
  H   H107      1.0  0.23994  0.13927  0.96846  1.0000
  C   C71       1.0  0.20129  0.15984  0.92232  1.0000
  H   H108      1.0  0.22125  0.16118  0.90124  1.0000
  H   H109      1.0  0.33486  0.19967  0.89685  1.0000
  H   H110      1.0  0.33610  0.13753  0.89905  1.0000
  H   H111      1.0  0.51172  0.12328  0.00505  1.0000
  H   H112      1.0  0.12904  0.20471  0.82811  1.0000
  C   C72       1.0  0.49871  0.08759  0.02313  1.0000
  H   H113      1.0  0.27153  0.15307  0.72898  1.0000
  C   C73       1.0  0.10345  0.20000  0.82702  1.0000
  C   C74       1.0  0.10661  0.16523  0.75340  1.0000
  H   H114      1.0  0.54149  0.13958  0.00836  1.0000
  C   C75       1.0  0.42846  0.08553  0.00605  1.0000
  C   C76       1.0  0.45497  0.08205  0.98140  1.0000
  C   C77       1.0  0.49002  0.08308  0.98993  1.0000
  H   H115      1.0  0.51020  0.08051  0.97056  1.0000
  S   S33       1.0  0.54272  0.08883  0.03339  1.0000
  Fe  Fe18      1.0  0.30928  0.13472  0.03606  1.0000
  H   H116      1.0  0.44396  0.14709  0.01536  1.0000
  H   H117      1.0  0.48476  0.16954  0.01946  1.0000
  S   S34       1.0  0.38472  0.08407  0.99527  1.0000
  S   S35       1.0  0.17891  0.19748  0.77217  1.0000
  H   H118      1.0  0.44841  0.07871  0.95555  1.0000
  H   H119      1.0  0.42327  0.05082  0.97931  1.0000
  C   C78       1.0  0.45726  0.13989  0.03788  1.0000
  S   S36       1.0  0.29426  0.10891  0.02191  1.0000
  Fe  Fe19      1.0  0.57310  0.07159  0.99687  1.0000
  C   C79       1.0  0.51320  0.13735  0.00776  1.0000
  H   H120      1.0  0.34502  0.20276  0.81860  1.0000
  H   H121      1.0  0.45430  0.12596  0.03531  1.0000
  H   H122      1.0  0.30460  0.19902  0.84043  1.0000
  H   H123      1.0  0.51454  0.05199  0.81866  1.0000
  H   H124      1.0  0.08494  0.16240  0.77187  1.0000
  C   C80       1.0  0.43709  0.09004  0.03929  1.0000
  H   H125      1.0  0.52490  0.16494  0.04289  1.0000
  H   H126      1.0  0.12059  0.15270  0.74656  1.0000
  C   C81       1.0  0.49712  0.16192  0.04199  1.0000
  H   H127      1.0  0.09340  0.19951  0.74719  1.0000
  S   S37       1.0  0.57919  0.07820  0.94004  1.0000
  H   H128      1.0  0.47574  0.04949  0.01786  1.0000
  S   S38       1.0  0.36675  0.12676  0.04027  1.0000
  N   N8        1.0  0.49453  0.14323  0.03946  1.0000
  S   S39       1.0  0.52673  0.04773  0.89208  1.0000
  H   H129      1.0  0.50291  0.30705  0.15378  1.0000
  H   H130      1.0  0.43572  0.35344  0.16378  1.0000
  C   C82       1.0  0.56403  0.35931  0.13172  1.0000
  H   H131      1.0  0.51466  0.32666  0.13238  1.0000
  H   H132      1.0  0.41899  0.32565  0.19086  1.0000
  C   C83       1.0  0.35015  0.36568  0.33202  1.0000
  H   H133      1.0  0.55657  0.34759  0.12144  1.0000
  C   C84       1.0  0.54344  0.24757  0.10536  1.0000
  H   H134      1.0  0.44562  0.31145  0.12245  1.0000
  H   H135      1.0  0.23265  0.35228  0.34768  1.0000
  H   H136      1.0  0.44715  0.30618  0.18595  1.0000
  Fe  Fe20      1.0  0.52395  0.36873  0.25953  1.0000
  H   H137      1.0  0.53912  0.35518  0.18208  1.0000
  S   S40       1.0  0.50277  0.29638  0.08191  1.0000
  C   C85       1.0  0.46317  0.34746  0.16229  1.0000
  H   H138      1.0  0.51620  0.32399  0.17904  1.0000
  N   N9        1.0  0.46430  0.32867  0.15810  1.0000
  C   C86       1.0  0.56510  0.28087  0.10646  1.0000
  C   C87       1.0  0.44684  0.32036  0.18826  1.0000
  H   H139      1.0  0.45987  0.32250  0.21303  1.0000
  H   H140      1.0  0.53498  0.23474  0.10464  1.0000
  H   H141      1.0  0.51742  0.21658  0.33763  1.0000
  H   H142      1.0  0.45914  0.33110  0.10250  1.0000
  C   C88       1.0  0.16650  0.36083  0.14744  1.0000
  S   S41       1.0  0.51340  0.34128  0.25373  1.0000
  S   S42       1.0  0.54554  0.36404  0.31323  1.0000
  C   C89       1.0  0.10427  0.36399  0.13551  1.0000
  C   C90       1.0  0.44595  0.32552  0.12597  1.0000
  Fe  Fe21      1.0  0.46063  0.34978  0.27695  1.0000
  H   H143      1.0  0.57346  0.29370  0.10735  1.0000
  S   S43       1.0  0.40927  0.34499  0.25385  1.0000
  S   S44       1.0  0.47671  0.34273  0.33195  1.0000
  H   H144      1.0  0.51768  0.22624  0.29419  1.0000
  C   C91       1.0  0.53104  0.27860  0.09640  1.0000
  C   C92       1.0  0.52415  0.21404  0.31005  1.0000
  S   S45       1.0  0.57060  0.31738  0.33308  1.0000
  H   H145      1.0  0.49349  0.26019  0.08926  1.0000
  H   H146      1.0  0.14133  0.34516  0.11311  1.0000
  Fe  Fe22      1.0  0.53057  0.33722  0.30933  1.0000
  C   C93       1.0  0.50114  0.32130  0.15584  1.0000
  H   H147      1.0  0.47600  0.35033  0.18670  1.0000
  H   H148      1.0  0.52297  0.32908  0.38714  1.0000
  C   C94       1.0  0.37840  0.35826  0.31269  1.0000
  C   C95       1.0  0.37384  0.35435  0.27815  1.0000
  C   C96       1.0  0.34090  0.35815  0.26290  1.0000
  H   H149      1.0  0.47676  0.35410  0.14028  1.0000
  H   H150      1.0  0.40361  0.35539  0.32471  1.0000
  H   H151      1.0  0.33718  0.35520  0.23619  1.0000
  C   C97       1.0  0.51993  0.26198  0.09674  1.0000
  H   H152      1.0  0.41831  0.33125  0.12642  1.0000
  H   H153      1.0  0.19231  0.35445  0.14290  1.0000
  C   C98       1.0  0.55420  0.36360  0.16592  1.0000
  C   C99       1.0  0.57792  0.24982  0.11406  1.0000
  C   C100      1.0  0.23691  0.34495  0.37309  1.0000
  C   C101      1.0  0.31739  0.36972  0.31665  1.0000
  C   C102      1.0  0.13766  0.35564  0.13042  1.0000
  H   H154      1.0  0.45862  0.21631  0.28594  1.0000
  C   C103      1.0  0.31279  0.36601  0.28200  1.0000
  H   H155      1.0  0.17088  0.33787  0.38509  1.0000
  H   H156      1.0  0.28755  0.36906  0.26995  1.0000
  H   H157      1.0  0.23303  0.33123  0.36915  1.0000
  H   H158      1.0  0.16986  0.35946  0.36604  1.0000
  H   H159      1.0  0.26490  0.34569  0.37964  1.0000
  Fe  Fe23      1.0  0.49058  0.37000  0.33209  1.0000
  S   S46       1.0  0.56819  0.23480  0.38898  1.0000
  C   C104      1.0  0.17634  0.35127  0.39012  1.0000
  H   H160      1.0  0.35387  0.36848  0.35883  1.0000
  C   C105      1.0  0.16212  0.37398  0.17076  1.0000
  S   S47       1.0  0.19512  0.37370  0.29306  1.0000
  H   H161      1.0  0.55298  0.21097  0.30841  1.0000
  S   S48       1.0  0.56897  0.32529  0.62306  1.0000
  H   H162      1.0  0.42362  0.28923  0.66912  1.0000
  H   H163      1.0  0.55015  0.25369  0.47159  1.0000
  H   H164      1.0  0.49482  0.30768  0.42611  1.0000
  C   C106      1.0  0.54976  0.33011  0.47033  1.0000
  H   H165      1.0  0.47586  0.28249  0.60815  1.0000
  Fe  Fe24      1.0  0.57805  0.35648  0.54187  1.0000
  Fe  Fe25      1.0  0.54048  0.21248  0.41149  1.0000
  H   H166      1.0  0.47738  0.36176  0.72260  1.0000
  H   H167      1.0  0.49454  0.31927  0.66078  1.0000
  H   H168      1.0  0.41295  0.29143  0.62375  1.0000
  N   N10       1.0  0.53766  0.32187  0.43972  1.0000
  H   H169      1.0  0.24745  0.37154  0.41089  1.0000
  C   C107      1.0  0.08090  0.37394  0.44008  1.0000
  C   C108      1.0  0.42679  0.35609  0.70554  1.0000
  C   C109      1.0  0.53177  0.33495  0.41069  1.0000
  Fe  Fe26      1.0  0.54646  0.35271  0.61439  1.0000
  H   H170      1.0  0.43469  0.32698  0.60899  1.0000
  H   H171      1.0  0.48506  0.28003  0.65390  1.0000
  H   H172      1.0  0.40306  0.30926  0.65101  1.0000
  H   H173      1.0  0.17922  0.28403  0.72028  1.0000
  H   H174      1.0  0.24712  0.34252  0.44210  1.0000
  H   H175      1.0  0.56207  0.35610  0.72348  1.0000
  C   C110      1.0  0.45477  0.35964  0.63814  1.0000
  H   H176      1.0  0.56956  0.29809  0.45069  1.0000
  N   N11       1.0  0.21311  0.35214  0.40033  1.0000
  H   H177      1.0  0.48363  0.32423  0.45610  1.0000
  C   C111      1.0  0.21962  0.34208  0.43362  1.0000
  C   C112      1.0  0.56095  0.26269  0.48792  1.0000
  H   H178      1.0  0.44852  0.30931  0.58261  1.0000
  H   H179      1.0  0.57438  0.33634  0.46452  1.0000
  C   C113      1.0  0.53861  0.27357  0.50810  1.0000
  H   H180      1.0  0.55622  0.30178  0.40615  1.0000
  C   C114      1.0  0.40577  0.35428  0.67695  1.0000
  H   H181      1.0  0.49445  0.21525  0.47698  1.0000
  C   C115      1.0  0.56450  0.30821  0.42936  1.0000
  C   C116      1.0  0.50453  0.31421  0.44855  1.0000
  Fe  Fe27      1.0  0.55257  0.32245  0.56833  1.0000
  C   C117      1.0  0.46148  0.35999  0.70044  1.0000
  H   H182      1.0  0.51134  0.34535  0.41738  1.0000
  H   H183      1.0  0.40294  0.35552  0.62108  1.0000
  H   H184      1.0  0.51055  0.27299  0.50715  1.0000
  H   H185      1.0  0.46558  0.36096  0.61211  1.0000
  H   H186      1.0  0.47304  0.30490  0.69070  1.0000
  H   H187      1.0  0.48040  0.32177  0.60003  1.0000
  H   H188      1.0  0.21490  0.32831  0.43142  1.0000
  S   S49       1.0  0.52548  0.34915  0.56133  1.0000
  H   H189      1.0  0.55478  0.32053  0.49254  1.0000
  H   H190      1.0  0.50789  0.30448  0.47080  1.0000
  C   C118      1.0  0.45517  0.31612  0.60591  1.0000
  C   C119      1.0  0.48318  0.28944  0.63106  1.0000
  C   C120      1.0  0.55253  0.28542  0.52886  1.0000
  C   C121      1.0  0.46939  0.31359  0.66689  1.0000
  C   C122      1.0  0.42283  0.29827  0.64565  1.0000
  H   H191      1.0  0.50983  0.29363  0.62551  1.0000
  S   S50       1.0  0.52058  0.36368  0.66193  1.0000
  N   N12       1.0  0.45763  0.30434  0.63738  1.0000
  S   S51       1.0  0.52456  0.30019  0.55135  1.0000
  S   S52       1.0  0.36410  0.34710  0.68341  1.0000
  H   H192      1.0  0.44984  0.32435  0.67346  1.0000
  C   C123      1.0  0.47585  0.36117  0.66686  1.0000
  S   S53       1.0  0.48307  0.21035  0.40434  1.0000
  C   C124      1.0  0.41940  0.35665  0.64321  1.0000
  H   H193      1.0  0.52987  0.34028  0.47919  1.0000
  H   H194      1.0  0.55611  0.34114  0.40339  1.0000
  H   H195      1.0  0.52519  0.33254  0.71334  1.0000
  H   H196      1.0  0.15771  0.35585  0.41084  1.0000
  H   H197      1.0  0.20205  0.34726  0.45472  1.0000
  C   C125      1.0  0.21959  0.37030  0.40460  1.0000
  H   H198      1.0  0.35089  0.21619  0.62068  1.0000
  H   H199      1.0  0.32155  0.23793  0.72024  1.0000
  C   C126      1.0  0.56015  0.37527  0.46166  1.0000
  H   H200      1.0  0.51760  0.37505  0.49893  1.0000
  S   S54       1.0  0.57057  0.20983  0.46128  1.0000
  H   H201      1.0  0.50058  0.33564  0.75302  1.0000
  H   H202      1.0  0.57798  0.33299  0.80993  1.0000
  N   N13       1.0  0.55646  0.33405  0.75862  1.0000
  H   H203      1.0  0.17431  0.30691  0.81866  1.0000
  S   S55       1.0  0.40580  0.30889  0.73569  1.0000
  H   H204      1.0  0.40236  0.32205  0.88772  1.0000
  H   H205      1.0  0.33814  0.34724  0.86987  1.0000
  H   H206      1.0  0.38147  0.35283  0.87770  1.0000
  H   H207      1.0  0.30133  0.23707  0.89410  1.0000
  H   H208      1.0  0.25553  0.26866  0.81358  1.0000
  H   H209      1.0  0.31466  0.34371  0.94576  1.0000
  H   H210      1.0  0.53523  0.36050  0.76102  1.0000
  C   C127      1.0  0.35629  0.35009  0.89065  1.0000
  H   H211      1.0  0.52245  0.31495  0.74562  1.0000
  S   S56       1.0  0.29014  0.32404  0.84324  1.0000
  C   C128      1.0  0.26958  0.26207  0.79287  1.0000
  C   C129      1.0  0.27650  0.23837  0.75466  1.0000
  H   H212      1.0  0.41625  0.35455  0.73161  1.0000
  S   S57       1.0  0.37281  0.33895  0.78724  1.0000
  Fe  Fe28      1.0  0.36340  0.29309  0.75571  1.0000
  H   H213      1.0  0.28007  0.23617  0.85317  1.0000
  H   H214      1.0  0.26698  0.22705  0.74465  1.0000
  C   C130      1.0  0.55394  0.33011  0.79651  1.0000
  C   C131      1.0  0.17240  0.29501  0.80441  1.0000
  H   H215      1.0  0.19244  0.28497  0.81520  1.0000
  H   H216      1.0  0.35623  0.21834  0.90666  1.0000
  H   H217      1.0  0.41130  0.34234  0.93342  1.0000
  Fe  Fe29      1.0  0.53178  0.31434  0.04691  1.0000
  C   C132      1.0  0.25135  0.33478  0.82613  1.0000
  C   C133      1.0  0.21940  0.33345  0.84398  1.0000
  C   C134      1.0  0.18817  0.34176  0.83018  1.0000
  C   C135      1.0  0.18899  0.35168  0.79880  1.0000
  C   C136      1.0  0.22098  0.35311  0.78119  1.0000
  C   C137      1.0  0.25205  0.34457  0.79464  1.0000
  H   H218      1.0  0.21877  0.32591  0.86839  1.0000
  H   H219      1.0  0.16359  0.34071  0.84402  1.0000
  C   C138      1.0  0.55910  0.35275  0.75183  1.0000
  H   H220      1.0  0.27659  0.34577  0.78078  1.0000
  H   H221      1.0  0.53122  0.33778  0.80820  1.0000
  S   S58       1.0  0.51565  0.34273  0.04224  1.0000
  H   H222      1.0  0.30833  0.32886  0.91304  1.0000
  C   C139      1.0  0.25820  0.24683  0.78139  1.0000
  C   C140      1.0  0.38505  0.33993  0.94428  1.0000
  C   C141      1.0  0.34989  0.23436  0.84285  1.0000
  S   S59       1.0  0.22220  0.23814  0.80201  1.0000
  C   C142      1.0  0.29983  0.26854  0.77834  1.0000
  N   N14       1.0  0.17755  0.29829  0.76658  1.0000
  S   S60       1.0  0.15057  0.36227  0.78065  1.0000
  H   H223      1.0  0.35908  0.31637  0.87933  1.0000
  H   H224      1.0  0.13914  0.37307  0.02091  1.0000
  H   H225      1.0  0.33522  0.24230  0.82205  1.0000
  C   C143      1.0  0.32093  0.20930  0.83023  1.0000
  C   C144      1.0  0.37648  0.31998  0.90006  1.0000
  Fe  Fe30      1.0  0.36402  0.33082  0.73318  1.0000
  C   C145      1.0  0.21244  0.30455  0.75980  1.0000
  H   H226      1.0  0.35654  0.24324  0.86288  1.0000
  H   H227      1.0  0.30881  0.28016  0.78774  1.0000
  Fe  Fe31      1.0  0.09867  0.35438  0.80077  1.0000
  S   S61       1.0  0.32059  0.31438  0.74833  1.0000
  C   C146      1.0  0.52485  0.32906  0.74177  1.0000
  H   H228      1.0  0.12884  0.34700  0.96633  1.0000
  C   C147      1.0  0.31891  0.25968  0.75254  1.0000
  H   H229      1.0  0.14616  0.29044  0.81047  1.0000
  S   S62       1.0  0.35804  0.26701  0.73608  1.0000
  Fe  Fe32      1.0  0.33292  0.32034  0.80279  1.0000
  H   H230      1.0  0.11705  0.36990  0.96156  1.0000
  H   H231      1.0  0.34514  0.36213  0.90244  1.0000
  C   C148      1.0  0.34964  0.21027  0.88518  1.0000
  H   H232      1.0  0.22176  0.36080  0.75693  1.0000
  H   H233      1.0  0.38058  0.30873  0.91906  1.0000
  H   H234      1.0  0.23383  0.29499  0.76958  1.0000
  S   S63       1.0  0.53206  0.31114  0.98959  1.0000
  H   H235      1.0  0.37484  0.22892  0.83087  1.0000
  C   C149      1.0  0.12865  0.36062  0.02919  1.0000
  N   N15       1.0  0.36123  0.33556  0.91698  1.0000
  C   C150      1.0  0.32697  0.33220  0.93291  1.0000
  S   S64       1.0  0.37271  0.29757  0.81147  1.0000
  H   H236      1.0  0.19543  0.27181  0.75851  1.0000
  N   N16       1.0  0.32920  0.22059  0.85790  1.0000
  Fe  Fe33      1.0  0.41164  0.31554  0.79079  1.0000
  S   S65       1.0  0.46715  0.31363  0.80975  1.0000
  H   H237      1.0  0.21504  0.31673  0.77281  1.0000
  H   H238      1.0  0.55005  0.31625  0.80252  1.0000
  H   H239      1.0  0.32963  0.32125  0.95278  1.0000
  Fe  Fe34      1.0  0.52153  0.33987  0.98461  1.0000
  S   S66       1.0  0.48357  0.35338  0.94579  1.0000
  C   C151      1.0  0.47304  0.32534  0.84637  1.0000
  C   C152      1.0  0.49897  0.31928  0.87029  1.0000
  C   C153      1.0  0.50326  0.32816  0.90036  1.0000
  C   C154      1.0  0.48184  0.34321  0.90641  1.0000
  C   C155      1.0  0.45738  0.34982  0.88139  1.0000
  C   C156      1.0  0.45268  0.34080  0.85156  1.0000
  H   H240      1.0  0.51512  0.30743  0.86611  1.0000
  H   H241      1.0  0.52281  0.32321  0.91904  1.0000
  H   H242      1.0  0.44159  0.36178  0.88552  1.0000
  H   H243      1.0  0.43348  0.34585  0.83254  1.0000
  H   H244      1.0  0.15015  0.35015  0.02680  1.0000
  Fe  Fe35      1.0  0.57346  0.34509  0.04078  1.0000
  S   S67       1.0  0.08784  0.32821  0.82335  1.0000
  H   H245      1.0  0.12337  0.30726  0.75797  1.0000
  H   H246      1.0  0.38923  0.32928  0.96467  1.0000
  C   C157      1.0  0.29623  0.22840  0.87315  1.0000
  H   H247      1.0  0.37473  0.35178  0.95727  1.0000
  N   N17       1.0  0.09793  0.35753  0.00856  1.0000
  C   C158      1.0  0.30710  0.24465  0.74055  1.0000
  H   H248      1.0  0.15123  0.32390  0.76617  1.0000
  C   C159      1.0  0.15014  0.31150  0.75332  1.0000
  C   C160      1.0  0.17525  0.28210  0.74887  1.0000
  C   C161      1.0  0.10775  0.35738  0.97128  1.0000
  H   H249      1.0  0.21729  0.30720  0.73152  1.0000
  H   H250      1.0  0.30612  0.21674  0.80894  1.0000
  H   H251      1.0  0.14920  0.27704  0.75339  1.0000
  H   H252      1.0  0.27984  0.21836  0.88453  1.0000
  H   H253      1.0  0.10614  0.32994  0.01708  1.0000
  Fe  Fe36      1.0  0.22234  0.20950  0.79694  1.0000
  S   S68       1.0  0.57814  0.34487  0.98247  1.0000
  H   H254      1.0  0.08502  0.35503  0.95510  1.0000
  C   C162      1.0  0.08543  0.34071  0.02011  1.0000
  H   H255      1.0  0.12162  0.36121  0.05730  1.0000
  H   H256      1.0  0.15323  0.31436  0.72485  1.0000
  S   S69       1.0  0.47495  0.38440  0.37962  1.0000
  S   S70       1.0  0.23923  0.40502  0.25949  1.0000
  Fe  Fe37      1.0  0.23559  0.39023  0.31057  1.0000
  C   C163      1.0  0.50404  0.50620  0.27275  1.0000
  S   S71       1.0  0.15265  0.40967  0.26127  1.0000
  H   H257      1.0  0.57423  0.50966  0.16895  1.0000
  Fe  Fe38      1.0  0.15623  0.39440  0.31261  1.0000
  H   H258      1.0  0.56323  0.52865  0.11520  1.0000
  S   S72       1.0  0.36571  0.52833  0.32288  1.0000
  H   H259      1.0  0.11640  0.45771  0.18388  1.0000
  C   C164      1.0  0.12860  0.38220  0.17661  1.0000
  H   H260      1.0  0.37759  0.44384  0.32301  1.0000
  Fe  Fe39      1.0  0.19692  0.42318  0.28101  1.0000
  S   S73       1.0  0.19681  0.40983  0.33408  1.0000
  N   N18       1.0  0.16510  0.44430  0.16801  1.0000
  H   H261      1.0  0.34087  0.40187  0.34068  1.0000
  H   H262      1.0  0.39701  0.40871  0.26181  1.0000
  H   H263      1.0  0.40771  0.41775  0.35466  1.0000
  C   C165      1.0  0.18814  0.42886  0.17943  1.0000
  C   C166      1.0  0.13456  0.44627  0.19191  1.0000
  C   C167      1.0  0.15287  0.44232  0.13242  1.0000
  H   H264      1.0  0.13765  0.43085  0.13138  1.0000
  H   H265      1.0  0.37146  0.39364  0.28523  1.0000
  H   H266      1.0  0.19814  0.43005  0.20605  1.0000
  H   H267      1.0  0.14284  0.44797  0.21899  1.0000
  C   C168      1.0  0.10720  0.38476  0.38619  1.0000
  H   H268      1.0  0.25105  0.43860  0.31842  1.0000
  H   H269      1.0  0.57647  0.51921  0.20996  1.0000
  H   H270      1.0  0.17404  0.41696  0.17997  1.0000
  H   H271      1.0  0.28778  0.49262  0.26046  1.0000
  C   C169      1.0  0.23823  0.45918  0.27985  1.0000
  S   S74       1.0  0.28895  0.52574  0.28808  1.0000
  C   C170      1.0  0.53722  0.53111  0.27362  1.0000
  C   C171      1.0  0.29990  0.47259  0.30033  1.0000
  S   S75       1.0  0.28299  0.37972  0.34125  1.0000
  H   H272      1.0  0.19430  0.46168  0.19483  1.0000
  H   H273      1.0  0.23272  0.48130  0.24359  1.0000
  C   C172      1.0  0.27959  0.48105  0.27369  1.0000
  H   H274      1.0  0.20809  0.45869  0.15068  1.0000
  C   C173      1.0  0.25906  0.45038  0.30580  1.0000
  C   C174      1.0  0.28963  0.45721  0.31632  1.0000
  C   C175      1.0  0.24857  0.47450  0.26382  1.0000
  H   H275      1.0  0.30492  0.45082  0.33733  1.0000
  S   S76       1.0  0.19904  0.45137  0.26728  1.0000
  H   H276      1.0  0.16815  0.47166  0.15982  1.0000
  C   C176      1.0  0.18476  0.45976  0.16830  1.0000
  C   C177      1.0  0.50604  0.54196  0.27035  1.0000
  C   C178      1.0  0.34271  0.41551  0.33139  1.0000
  N   N19       1.0  0.37470  0.41745  0.31006  1.0000
  C   C179      1.0  0.40582  0.41075  0.33046  1.0000
  S   S77       1.0  0.10727  0.38651  0.34045  1.0000
  H   H277      1.0  0.51612  0.53275  0.19999  1.0000
  H   H278      1.0  0.43054  0.41205  0.31532  1.0000
  H   H279      1.0  0.35392  0.44136  0.28430  1.0000
  C   C180      1.0  0.09966  0.37736  0.15854  1.0000
  C   C181      1.0  0.52311  0.53524  0.17210  1.0000
  H   H280      1.0  0.51505  0.52423  0.15792  1.0000
  H   H281      1.0  0.34225  0.42329  0.35477  1.0000
  C   C182      1.0  0.53636  0.51321  0.27426  1.0000
  H   H282      1.0  0.40512  0.39681  0.33836  1.0000
  H   H283      1.0  0.09760  0.43551  0.07655  1.0000
  C   C183      1.0  0.37323  0.40760  0.27850  1.0000
  H   H284      1.0  0.11938  0.43473  0.19266  1.0000
  S   S78       1.0  0.33804  0.48113  0.31393  1.0000
  C   C184      1.0  0.37693  0.43591  0.29988  1.0000
  S   S79       1.0  0.19970  0.38031  0.19019  1.0000
  H   H285      1.0  0.55043  0.38245  0.37425  1.0000
  H   H286      1.0  0.40088  0.43794  0.28399  1.0000
  Fe  Fe40      1.0  0.33923  0.50887  0.29408  1.0000
  H   H287      1.0  0.21130  0.42677  0.16187  1.0000
  S   S80       1.0  0.36142  0.51661  0.24167  1.0000
  S   S81       1.0  0.55251  0.38529  0.22116  1.0000
  C   C185      1.0  0.47275  0.51705  0.26985  1.0000
  H   H288      1.0  0.44794  0.51155  0.26825  1.0000
  H   H289      1.0  0.17517  0.44070  0.11365  1.0000
  H   H290      1.0  0.50321  0.49235  0.27342  1.0000
  Fe  Fe41      1.0  0.19497  0.39037  0.24365  1.0000
  H   H291      1.0  0.34993  0.41222  0.26259  1.0000
  C   C186      1.0  0.56421  0.37884  0.17904  1.0000
  H   H292      1.0  0.13567  0.45384  0.12287  1.0000
  H   H293      1.0  0.31857  0.41967  0.31635  1.0000
  Fe  Fe42      1.0  0.38358  0.53761  0.26985  1.0000
  H   H294      1.0  0.12507  0.39242  0.19453  1.0000
  H   H295      1.0  0.56186  0.53660  0.27574  1.0000
  Fe  Fe43      1.0  0.31272  0.53492  0.23771  1.0000
  C   C187      1.0  0.56944  0.53981  0.13002  1.0000
  N   N20       1.0  0.56097  0.53714  0.16742  1.0000
  S   S82       1.0  0.27575  0.53820  0.19286  1.0000
  C   C188      1.0  0.47381  0.53495  0.26821  1.0000
  H   H296      1.0  0.21383  0.37838  0.38031  1.0000
  S   S83       1.0  0.57529  0.49936  0.27564  1.0000
  S   S84       1.0  0.47015  0.37759  0.27885  1.0000
  C   C189      1.0  0.13345  0.38881  0.44177  1.0000
  H   H297      1.0  0.12677  0.51091  0.64331  1.0000
  H   H298      1.0  0.32045  0.52309  0.45362  1.0000
  Fe  Fe44      1.0  0.09019  0.50579  0.70672  1.0000
  C   C190      1.0  0.10742  0.38002  0.45920  1.0000
  H   H299      1.0  0.24179  0.54085  0.50217  1.0000
  H   H300      1.0  0.15362  0.39382  0.45655  1.0000
  H   H301      1.0  0.30127  0.52506  0.54864  1.0000
  C   C191      1.0  0.26295  0.50967  0.47927  1.0000
  C   C192      1.0  0.19095  0.53480  0.61062  1.0000
  H   H302      1.0  0.33710  0.52881  0.49429  1.0000
  C   C193      1.0  0.13322  0.39129  0.40531  1.0000
  C   C194      1.0  0.14767  0.51929  0.64298  1.0000
  C   C195      1.0  0.49865  0.37979  0.44653  1.0000
  C   C196      1.0  0.20245  0.54075  0.64164  1.0000
  H   H303      1.0  0.26137  0.51310  0.45083  1.0000
  S   S85       1.0  0.09910  0.47709  0.71242  1.0000
  C   C197      1.0  0.16409  0.52378  0.61139  1.0000
  H   H304      1.0  0.25899  0.51715  0.54643  1.0000
  C   C198      1.0  0.28571  0.51636  0.53449  1.0000
  C   C199      1.0  0.54315  0.38055  0.40127  1.0000
  N   N21       1.0  0.28454  0.52125  0.49686  1.0000
  C   C200      1.0  0.26902  0.53924  0.49156  1.0000
  C   C201      1.0  0.15803  0.52584  0.67382  1.0000
  S   S86       1.0  0.13477  0.52217  0.71274  1.0000
  H   H305      1.0  0.15532  0.51905  0.58746  1.0000
  C   C202      1.0  0.32049  0.51982  0.48213  1.0000
  H   H306      1.0  0.33342  0.50652  0.48632  1.0000
  H   H307      1.0  0.20304  0.37600  0.42575  1.0000
  C   C203      1.0  0.50779  0.38162  0.41120  1.0000
  H   H308      1.0  0.11260  0.40234  0.70515  1.0000
  H   H309      1.0  0.29765  0.50293  0.53958  1.0000
  H   H310      1.0  0.27394  0.49597  0.48260  1.0000
  H   H311      1.0  0.23567  0.51049  0.48994  1.0000
  C   C204      1.0  0.18596  0.53626  0.67325  1.0000
  S   S87       1.0  0.10893  0.37614  0.50460  1.0000
  H   H312      1.0  0.47132  0.38073  0.45435  1.0000
  C   C205      1.0  0.56926  0.37750  0.42645  1.0000
  C   C206      1.0  0.08098  0.37617  0.40371  1.0000
  H   H313      1.0  0.08561  0.43224  0.69243  1.0000
  H   H314      1.0  0.19440  0.54114  0.69717  1.0000
  C   C207      1.0  0.52480  0.37646  0.47173  1.0000
  S   S88       1.0  0.20738  0.54227  0.57041  1.0000
  H   H315      1.0  0.15314  0.39822  0.39209  1.0000
  H   H316      1.0  0.16452  0.47079  0.82493  1.0000
  C   C208      1.0  0.12587  0.49734  0.79315  1.0000
  H   H317      1.0  0.16736  0.50179  0.86880  1.0000
  H   H318      1.0  0.10462  0.48977  0.78480  1.0000
  H   H319      1.0  0.09936  0.39013  0.74333  1.0000
  S   S89       1.0  0.12926  0.52506  0.91247  1.0000
  S   S90       1.0  0.10511  0.47054  0.05300  1.0000
  H   H320      1.0  0.15523  0.51819  0.83565  1.0000
  H   H321      1.0  0.14968  0.49347  0.77747  1.0000
  S   S91       1.0  0.08252  0.48850  0.96026  1.0000
  H   H322      1.0  0.14524  0.47317  0.86759  1.0000
  N   N22       1.0  0.13198  0.49441  0.83083  1.0000
  H   H323      1.0  0.11891  0.46819  0.83218  1.0000
  H   H324      1.0  0.15245  0.53753  0.97726  1.0000
  C   C209      1.0  0.09994  0.50046  0.85018  1.0000
  H   H325      1.0  0.10255  0.49734  0.87860  1.0000
  C   C210      1.0  0.16143  0.50404  0.84064  1.0000
  H   H326      1.0  0.09743  0.43800  0.73495  1.0000
  Fe  Fe45      1.0  0.09394  0.51621  0.95552  1.0000
  H   H327      1.0  0.09402  0.51469  0.84652  1.0000
  H   H328      1.0  0.18572  0.50020  0.82571  1.0000
  S   S92       1.0  0.09740  0.51900  0.01291  1.0000
  H   H329      1.0  0.11813  0.51119  0.78606  1.0000
  C   C211      1.0  0.14063  0.47580  0.83926  1.0000
  C   C212      1.0  0.16243  0.53799  0.92212  1.0000
  H   H330      1.0  0.12457  0.40810  0.74757  1.0000
  C   C213      1.0  0.10318  0.40339  0.73252  1.0000
  Fe  Fe46      1.0  0.08062  0.49207  0.01766  1.0000
  H   H331      1.0  0.17937  0.54046  0.86858  1.0000
  H   H332      1.0  0.17937  0.60926  0.09191  1.0000
  H   H333      1.0  0.20486  0.61101  0.21640  1.0000
  H   H334      1.0  0.39135  0.57029  0.30452  1.0000
  H   H335      1.0  0.10323  0.70136  0.22168  1.0000
  C   C214      1.0  0.28486  0.58596  0.12059  1.0000
  S   S93       1.0  0.13371  0.62969  0.20212  1.0000
  C   C215      1.0  0.15610  0.61368  0.10618  1.0000
  C   C216      1.0  0.15877  0.61721  0.14118  1.0000
  H   H336      1.0  0.47160  0.58018  0.34868  1.0000
  H   H337      1.0  0.17512  0.57612  0.21605  1.0000
  H   H338      1.0  0.17102  0.66479  0.07449  1.0000
  H   H339      1.0  0.27233  0.57365  0.22453  1.0000
  C   C217      1.0  0.25562  0.57654  0.11958  1.0000
  S   S94       1.0  0.43556  0.54894  0.26249  1.0000
  C   C218      1.0  0.12374  0.61635  0.08967  1.0000
  H   H340      1.0  0.33478  0.58765  0.14432  1.0000
  S   S95       1.0  0.28732  0.60495  0.09427  1.0000
  H   H341      1.0  0.37860  0.59065  0.32246  1.0000
  C   C219      1.0  0.31211  0.58037  0.14344  1.0000
  C   C220      1.0  0.12899  0.62324  0.15985  1.0000
  C   C221      1.0  0.21974  0.57496  0.27001  1.0000
  C   C222      1.0  0.25822  0.58666  0.22643  1.0000
  H   H342      1.0  0.21620  0.60953  0.26156  1.0000
  S   S96       1.0  0.28728  0.56484  0.34615  1.0000
  C   C223      1.0  0.15906  0.66472  0.10106  1.0000
  N   N23       1.0  0.12553  0.67568  0.10183  1.0000
  H   H343      1.0  0.18416  0.61581  0.15332  1.0000
  Fe  Fe47      1.0  0.31699  0.54589  0.31195  1.0000
  H   H344      1.0  0.19225  0.57376  0.27884  1.0000
  N   N24       1.0  0.41767  0.57456  0.35162  1.0000
  H   H345      1.0  0.23261  0.56166  0.26750  1.0000
  H   H346      1.0  0.23354  0.58077  0.29104  1.0000
  H   H347      1.0  0.33133  0.56105  0.18249  1.0000
  C   C224      1.0  0.20333  0.57692  0.20959  1.0000
  H   H348      1.0  0.56414  0.55062  0.21426  1.0000
  N   N25       1.0  0.22123  0.58535  0.23678  1.0000
  C   C225      1.0  0.31022  0.56533  0.16497  1.0000
  H   H349      1.0  0.44174  0.59557  0.32507  1.0000
  H   H350      1.0  0.43190  0.54861  0.33691  1.0000
  H   H351      1.0  0.23401  0.58105  0.10305  1.0000
  H   H352      1.0  0.20495  0.58413  0.18389  1.0000
  H   H353      1.0  0.45384  0.57482  0.30834  1.0000
  H   H354      1.0  0.21537  0.56354  0.20633  1.0000
  C   C226      1.0  0.10074  0.66926  0.07776  1.0000
  H   H355      1.0  0.50694  0.55581  0.26937  1.0000
  H   H356      1.0  0.17841  0.66916  0.11898  1.0000
  S   S97       1.0  0.33656  0.55664  0.26102  1.0000
  C   C227      1.0  0.09364  0.62159  0.10872  1.0000
  C   C228      1.0  0.20375  0.60282  0.24098  1.0000
  H   H357      1.0  0.27231  0.59349  0.24569  1.0000
  H   H358      1.0  0.17554  0.60240  0.24809  1.0000
  H   H359      1.0  0.34326  0.54483  0.38359  1.0000
  C   C229      1.0  0.42653  0.55601  0.36063  1.0000
  C   C230      1.0  0.25384  0.56145  0.14078  1.0000
  H   H360      1.0  0.15534  0.65107  0.10911  1.0000
  C   C231      1.0  0.30259  0.56542  0.38866  1.0000
  H   H361      1.0  0.14387  0.63874  0.39051  1.0000
  C   C232      1.0  0.13166  0.69365  0.09093  1.0000
  H   H362      1.0  0.26057  0.59366  0.20056  1.0000
  C   C233      1.0  0.41021  0.58381  0.38379  1.0000
  H   H363      1.0  0.10571  0.66169  0.14661  1.0000
  C   C234      1.0  0.44753  0.58163  0.33267  1.0000
  H   H364      1.0  0.23105  0.55426  0.13993  1.0000
  H   H365      1.0  0.40478  0.55024  0.37518  1.0000
  H   H366      1.0  0.08536  0.68326  0.13918  1.0000
  H   H367      1.0  0.12872  0.67975  0.15643  1.0000
  H   H368      1.0  0.55451  0.55158  0.11838  1.0000
  C   C235      1.0  0.28091  0.55593  0.16376  1.0000
  H   H369      1.0  0.40398  0.59789  0.37800  1.0000
  H   H370      1.0  0.45028  0.55382  0.37702  1.0000
  H   H371      1.0  0.55576  0.56432  0.17578  1.0000
  C   C236      1.0  0.09624  0.62490  0.14394  1.0000
  C   C237      1.0  0.38644  0.57681  0.32931  1.0000
  H   H372      1.0  0.36355  0.57126  0.34229  1.0000
  C   C238      1.0  0.57030  0.55213  0.18599  1.0000
  H   H373      1.0  0.50689  0.54708  0.16256  1.0000
  H   H374      1.0  0.10678  0.70224  0.09056  1.0000
  C   C239      1.0  0.11065  0.67507  0.13753  1.0000
  H   H375      1.0  0.14962  0.69912  0.10893  1.0000
  H   H376      1.0  0.09563  0.65571  0.08512  1.0000
  S   S98       1.0  0.08439  0.66058  0.26605  1.0000
  Fe  Fe48      1.0  0.08342  0.64141  0.22494  1.0000
  H   H377      1.0  0.14348  0.69460  0.06437  1.0000
  C   C240      1.0  0.09170  0.70822  0.19888  1.0000
  S   S99       1.0  0.24659  0.58069  0.52567  1.0000
  H   H378      1.0  0.49972  0.62375  0.68444  1.0000
  H   H379      1.0  0.13711  0.67184  0.43057  1.0000
  H   H380      1.0  0.39003  0.62598  0.66423  1.0000
  H   H381      1.0  0.28450  0.54824  0.50489  1.0000
  C   C241      1.0  0.15430  0.60741  0.54035  1.0000
  H   H382      1.0  0.46382  0.60333  0.71571  1.0000
  C   C242      1.0  0.32856  0.56786  0.45568  1.0000
  S   S100      1.0  0.20907  0.62670  0.55138  1.0000
  H   H383      1.0  0.36730  0.54748  0.44217  1.0000
  H   H384      1.0  0.28705  0.58808  0.46133  1.0000
  H   H385      1.0  0.17372  0.59748  0.53208  1.0000
  Fe  Fe49      1.0  0.30402  0.57782  0.53679  1.0000
  C   C243      1.0  0.29929  0.57859  0.44447  1.0000
  C   C244      1.0  0.10646  0.64752  0.46912  1.0000
  H   H386      1.0  0.13020  0.60650  0.61438  1.0000
  C   C245      1.0  0.11855  0.60501  0.53854  1.0000
  H   H387      1.0  0.22356  0.54907  0.64124  1.0000
  H   H388      1.0  0.40673  0.64237  0.68842  1.0000
  C   C246      1.0  0.16476  0.62286  0.55173  1.0000
  Fe  Fe50      1.0  0.24402  0.60232  0.56166  1.0000
  C   C247      1.0  0.15474  0.66054  0.44042  1.0000
  H   H389      1.0  0.11052  0.59322  0.52891  1.0000
  S   S101      1.0  0.23395  0.58583  0.60972  1.0000
  C   C248      1.0  0.34304  0.60179  0.71462  1.0000
  H   H390      1.0  0.41777  0.60365  0.70699  1.0000
  C   C249      1.0  0.32493  0.60172  0.68339  1.0000
  H   H391      1.0  0.10417  0.65182  0.39922  1.0000
  H   H392      1.0  0.26425  0.58601  0.40199  1.0000
  C   C250      1.0  0.31097  0.61734  0.66741  1.0000
  C   C251      1.0  0.33131  0.55440  0.40025  1.0000
  H   H393      1.0  0.15644  0.57102  0.67942  1.0000
  H   H394      1.0  0.30482  0.64504  0.67001  1.0000
  H   H395      1.0  0.43290  0.58211  0.40165  1.0000
  S   S102      1.0  0.29903  0.55936  0.58283  1.0000
  S   S103      1.0  0.32080  0.58194  0.66483  1.0000
  C   C252      1.0  0.45172  0.60971  0.64697  1.0000
  Fe  Fe51      1.0  0.29257  0.58297  0.61390  1.0000
  H   H396      1.0  0.29678  0.61737  0.64339  1.0000
  Fe  Fe52      1.0  0.24150  0.56395  0.57423  1.0000
  H   H397      1.0  0.16391  0.59778  0.64353  1.0000
  C   C253      1.0  0.41319  0.63339  0.66723  1.0000
  H   H398      1.0  0.48017  0.63973  0.65333  1.0000
  S   S104      1.0  0.30242  0.60126  0.56843  1.0000
  C   C254      1.0  0.10383  0.63304  0.56146  1.0000
  C   C255      1.0  0.13947  0.63570  0.56213  1.0000
  C   C256      1.0  0.13653  0.57198  0.61281  1.0000
  H   H399      1.0  0.16529  0.66378  0.46578  1.0000
  H   H400      1.0  0.26824  0.54353  0.46349  1.0000
  H   H401      1.0  0.10775  0.62927  0.41183  1.0000
  C   C257      1.0  0.28648  0.57745  0.41087  1.0000
  H   H402      1.0  0.14669  0.61820  0.46204  1.0000
  C   C258      1.0  0.09329  0.61782  0.54915  1.0000
  N   N26       1.0  0.13597  0.64478  0.44420  1.0000
  H   H403      1.0  0.17228  0.63295  0.48220  1.0000
  H   H404      1.0  0.45568  0.61673  0.62146  1.0000
  H   H405      1.0  0.11741  0.56019  0.67641  1.0000
  H   H406      1.0  0.14751  0.64761  0.57122  1.0000
  N   N27       1.0  0.44505  0.62178  0.67508  1.0000
  H   H407      1.0  0.47552  0.60070  0.65221  1.0000
  H   H408      1.0  0.47108  0.64130  0.69897  1.0000
  C   C259      1.0  0.12774  0.57314  0.67480  1.0000
  C   C260      1.0  0.34470  0.55584  0.43347  1.0000
  C   C261      1.0  0.47531  0.63209  0.67791  1.0000
  S   S105      1.0  0.34503  0.56900  0.49749  1.0000
  C   C262      1.0  0.13504  0.59927  0.63977  1.0000
  C   C263      1.0  0.16031  0.63014  0.45725  1.0000
  N   N28       1.0  0.12032  0.58235  0.64077  1.0000
  C   C264      1.0  0.43991  0.61186  0.70832  1.0000
  C   C265      1.0  0.31545  0.63297  0.68256  1.0000
  H   H409      1.0  0.11577  0.65057  0.49506  1.0000
  H   H410      1.0  0.42929  0.60174  0.64426  1.0000
  C   C266      1.0  0.33416  0.63305  0.71349  1.0000
  H   H411      1.0  0.41626  0.64140  0.64274  1.0000
  C   C267      1.0  0.08206  0.58498  0.63564  1.0000
  H   H412      1.0  0.12738  0.55881  0.61380  1.0000
  H   H413      1.0  0.09180  0.63584  0.47297  1.0000
  H   H414      1.0  0.16552  0.57048  0.61477  1.0000
  H   H415      1.0  0.11574  0.58048  0.69662  1.0000
  C   C268      1.0  0.12243  0.64098  0.41003  1.0000
  H   H416      1.0  0.08743  0.65840  0.45995  1.0000
  H   H417      1.0  0.17725  0.65892  0.42186  1.0000
  H   H418      1.0  0.12327  0.60750  0.66038  1.0000
  H   H419      1.0  0.18222  0.62726  0.43852  1.0000
  H   H420      1.0  0.38731  0.57902  0.39828  1.0000
  H   H421      1.0  0.13037  0.57807  0.58666  1.0000
  H   H422      1.0  0.08464  0.64274  0.57084  1.0000
  Fe  Fe53      1.0  0.23182  0.59322  0.98079  1.0000
  H   H423      1.0  0.26977  0.61020  0.85392  1.0000
  H   H424      1.0  0.26342  0.60211  0.89796  1.0000
  S   S106      1.0  0.24129  0.65537  0.95200  1.0000
  H   H425      1.0  0.30437  0.64332  0.98817  1.0000
  C   C269      1.0  0.31073  0.64554  0.96089  1.0000
  C   C270      1.0  0.28218  0.60824  0.87987  1.0000
  Fe  Fe54      1.0  0.17675  0.61244  0.02447  1.0000
  H   H426      1.0  0.08507  0.56254  0.02771  1.0000
  H   H427      1.0  0.11119  0.66950  0.05059  1.0000
  S   S107      1.0  0.19135  0.61509  0.96798  1.0000
  H   H428      1.0  0.11262  0.57978  0.03115  1.0000
  H   H429      1.0  0.36447  0.70513  0.90697  1.0000
  S   S108      1.0  0.50525  0.62381  0.76390  1.0000
  H   H430      1.0  0.29282  0.69100  0.91222  1.0000
  H   H431      1.0  0.38816  0.69866  0.76353  1.0000
  H   H432      1.0  0.12722  0.56165  0.00670  1.0000
  S   S109      1.0  0.24672  0.57363  0.94167  1.0000
  Fe  Fe55      1.0  0.23137  0.63180  0.98555  1.0000
  Fe  Fe56      1.0  0.38461  0.65263  0.76972  1.0000
  Fe  Fe57      1.0  0.25118  0.60773  0.04847  1.0000
  H   H433      1.0  0.28537  0.62116  0.88961  1.0000
  H   H434      1.0  0.13726  0.58033  0.95441  1.0000
  H   H435      1.0  0.35764  0.58809  0.91306  1.0000
  C   C271      1.0  0.21429  0.55986  0.93490  1.0000
  S   S110      1.0  0.27313  0.61006  0.99422  1.0000
  H   H436      1.0  0.34394  0.61930  0.86096  1.0000
  S   S111      1.0  0.21327  0.58872  0.03562  1.0000
  H   H437      1.0  0.51439  0.65909  0.77741  1.0000
  H   H438      1.0  0.31452  0.58943  0.93249  1.0000
  C   C272      1.0  0.57319  0.62840  0.74544  1.0000
  S   S112      1.0  0.43536  0.66294  0.75287  1.0000
  C   C273      1.0  0.31057  0.58039  0.86645  1.0000
  H   H439      1.0  0.36151  0.61727  0.75369  1.0000
  C   C274      1.0  0.11420  0.58900  0.96245  1.0000
  N   N29       1.0  0.31612  0.59764  0.87824  1.0000
  H   H440      1.0  0.29303  0.57354  0.88471  1.0000
  H   H441      1.0  0.32931  0.60731  0.82662  1.0000
  C   C275      1.0  0.28483  0.65246  0.93780  1.0000
  H   H442      1.0  0.19768  0.55750  0.98856  1.0000
  C   C276      1.0  0.29325  0.65557  0.90267  1.0000
  C   C277      1.0  0.33182  0.59584  0.91318  1.0000
  C   C278      1.0  0.33991  0.60610  0.85344  1.0000
  S   S113      1.0  0.21318  0.63128  0.04107  1.0000
  H   H443      1.0  0.28021  0.70387  0.83634  1.0000
  H   H444      1.0  0.33570  0.57212  0.86482  1.0000
  C   C279      1.0  0.18339  0.54401  0.89483  1.0000
  H   H445      1.0  0.35424  0.68496  0.89128  1.0000
  C   C280      1.0  0.19342  0.55386  0.96238  1.0000
  H   H446      1.0  0.36625  0.59884  0.85254  1.0000
  H   H447      1.0  0.27298  0.66060  0.88470  1.0000
  C   C281      1.0  0.30689  0.69836  0.84415  1.0000
  H   H448      1.0  0.29829  0.58128  0.84038  1.0000
  S   S114      1.0  0.39443  0.63584  0.89822  1.0000
  C   C282      1.0  0.32732  0.65104  0.89043  1.0000
  S   S115      1.0  0.46081  0.65459  0.83396  1.0000
  H   H449      1.0  0.36455  0.63538  0.96661  1.0000
  S   S116      1.0  0.37848  0.66836  0.81681  1.0000
  H   H450      1.0  0.30578  0.68429  0.84997  1.0000
  Fe  Fe58      1.0  0.45977  0.64034  0.78516  1.0000
  S   S117      1.0  0.40930  0.62897  0.79862  1.0000
  Fe  Fe59      1.0  0.40767  0.64556  0.84428  1.0000
  C   C283      1.0  0.53883  0.65313  0.76751  1.0000
  C   C284      1.0  0.35302  0.64363  0.91343  1.0000
  C   C285      1.0  0.34480  0.64114  0.94873  1.0000
  H   H451      1.0  0.33613  0.60862  0.92299  1.0000
  C   C286      1.0  0.54148  0.63592  0.75857  1.0000
  H   H452      1.0  0.37375  0.70045  0.86245  1.0000
  N   N30       1.0  0.08790  0.57927  0.98157  1.0000
  H   H453      1.0  0.33310  0.65243  0.86300  1.0000
  Fe  Fe60      1.0  0.43179  0.67632  0.80301  1.0000
  S   S118      1.0  0.12142  0.61427  0.04484  1.0000
  C   C287      1.0  0.29453  0.70482  0.90402  1.0000
  H   H454      1.0  0.09733  0.55675  0.95170  1.0000
  H   H455      1.0  0.22579  0.55930  0.88006  1.0000
  H   H456      1.0  0.10309  0.59592  0.93856  1.0000
  C   C288      1.0  0.10385  0.57042  0.01316  1.0000
  H   H457      1.0  0.32464  0.69999  0.82118  1.0000
  H   H458      1.0  0.57521  0.61514  0.73816  1.0000
  H   H459      1.0  0.12401  0.59880  0.97880  1.0000
  C   C289      1.0  0.20957  0.55473  0.90128  1.0000
  C   C290      1.0  0.56794  0.66274  0.76375  1.0000
  N   N31       1.0  0.31918  0.70687  0.87440  1.0000
  H   H460      1.0  0.56582  0.67602  0.77094  1.0000
  C   C291      1.0  0.35444  0.69901  0.88420  1.0000
  S   S119      1.0  0.44313  0.70355  0.81102  1.0000
  H   H461      1.0  0.43414  0.62061  0.72988  1.0000
  S   S120      1.0  0.34158  0.65285  0.73061  1.0000
  C   C292      1.0  0.16782  0.54265  0.95602  1.0000
  C   C293      1.0  0.34769  0.61740  0.72960  1.0000
  H   H462      1.0  0.35358  0.58971  0.72719  1.0000
  H   H463      1.0  0.13555  0.79918  0.19902  1.0000
  H   H464      1.0  0.22131  0.86875  0.22249  1.0000
  S   S121      1.0  0.11525  0.81785  0.25926  1.0000
  H   H465      1.0  0.12633  0.87035  0.20172  1.0000
  C   C294      1.0  0.17421  0.86184  0.34725  1.0000
  C   C295      1.0  0.11299  0.71630  0.17411  1.0000
  S   S122      1.0  0.12429  0.73727  0.11640  1.0000
  Fe  Fe61      1.0  0.08073  0.83268  0.29714  1.0000
  C   C296      1.0  0.11227  0.80763  0.19284  1.0000
  H   H466      1.0  0.16346  0.84307  0.27777  1.0000
  C   C297      1.0  0.13713  0.85871  0.21734  1.0000
  H   H467      1.0  0.11641  0.85502  0.23612  1.0000
  H   H468      1.0  0.14176  0.84792  0.19957  1.0000
  S   S123      1.0  0.09698  0.83108  0.35278  1.0000
  H   H469      1.0  0.22177  0.84894  0.32704  1.0000
  C   C298      1.0  0.18217  0.84606  0.25628  1.0000
  C   C299      1.0  0.20913  0.86099  0.33549  1.0000
  C   C300      1.0  0.49469  0.86880  0.06169  1.0000
  H   H470      1.0  0.15994  0.85051  0.34741  1.0000
  S   S124      1.0  0.26973  0.87463  0.31513  1.0000
  H   H471      1.0  0.50656  0.85648  0.07415  1.0000
  C   C301      1.0  0.09729  0.80763  0.15986  1.0000
  H   H472      1.0  0.14241  0.87323  0.27911  1.0000
  H   H473      1.0  0.20794  0.84745  0.26809  1.0000
  S   S125      1.0  0.11366  0.78307  0.06761  1.0000
  H   H474      1.0  0.10896  0.79919  0.14065  1.0000
  C   C302      1.0  0.09682  0.81833  0.21794  1.0000
  H   H475      1.0  0.20317  0.85548  0.19197  1.0000
  N   N32       1.0  0.16947  0.86181  0.23543  1.0000
  C   C303      1.0  0.19664  0.86620  0.20955  1.0000
  H   H476      1.0  0.18531  0.83457  0.24021  1.0000
  H   H477      1.0  0.14101  0.71564  0.17777  1.0000
  Fe  Fe62      1.0  0.09262  0.75772  0.08375  1.0000
  C   C304      1.0  0.09792  0.72580  0.14535  1.0000
  Fe  Fe63      1.0  0.08151  0.85947  0.35120  1.0000
  H   H478      1.0  0.09467  0.75101  0.20873  1.0000
  H   H479      1.0  0.44794  0.84533  0.06930  1.0000
  H   H480      1.0  0.42657  0.86636  0.07626  1.0000
  H   H481      1.0  0.09391  0.77280  0.19063  1.0000
  C   C305      1.0  0.22772  0.87568  0.33432  1.0000
  C   C306      1.0  0.24445  0.74432  0.71044  1.0000
  C   C307      1.0  0.25348  0.77408  0.69517  1.0000
  C   C308      1.0  0.19482  0.76538  0.70206  1.0000
  H   H482      1.0  0.24463  0.78597  0.67921  1.0000
  H   H483      1.0  0.15171  0.85728  0.48947  1.0000
  C   C309      1.0  0.14801  0.80693  0.70538  1.0000
  H   H484      1.0  0.25724  0.75252  0.64296  1.0000
  C   C310      1.0  0.17713  0.81158  0.68579  1.0000
  H   H485      1.0  0.09863  0.71291  0.54646  1.0000
  C   C311      1.0  0.11169  0.83055  0.49058  1.0000
  H   H486      1.0  0.22973  0.81907  0.68776  1.0000
  C   C312      1.0  0.20721  0.81536  0.70276  1.0000
  H   H487      1.0  0.10328  0.81841  0.48079  1.0000
  S   S126      1.0  0.17722  0.81078  0.64039  1.0000
  H   H488      1.0  0.41642  0.84747  0.71315  1.0000
  C   C313      1.0  0.23046  0.75659  0.65282  1.0000
  C   C314      1.0  0.14243  0.83703  0.43675  1.0000
  H   H489      1.0  0.49812  0.84508  0.65961  1.0000
  C   C315      1.0  0.12626  0.85965  0.47580  1.0000
  H   H490      1.0  0.10640  0.86510  0.49459  1.0000
  H   H491      1.0  0.14566  0.84662  0.41462  1.0000
  Fe  Fe64      1.0  0.55884  0.87498  0.57089  1.0000
  Fe  Fe65      1.0  0.12714  0.80079  0.62507  1.0000
  N   N33       1.0  0.23082  0.76008  0.69014  1.0000
  S   S127      1.0  0.11628  0.77430  0.64504  1.0000
  S   S128      1.0  0.55339  0.85232  0.60899  1.0000
  H   H492      1.0  0.12937  0.86976  0.45454  1.0000
  H   H493      1.0  0.13670  0.82723  0.50466  1.0000
  H   H494      1.0  0.21333  0.74621  0.64794  1.0000
  S   S129      1.0  0.54028  0.87470  0.51596  1.0000
  S   S130      1.0  0.11097  0.79739  0.57041  1.0000
  C   C316      1.0  0.43352  0.85806  0.71655  1.0000
  N   N34       1.0  0.11559  0.84367  0.46185  1.0000
  S   S131      1.0  0.10572  0.74759  0.56411  1.0000
  H   H495      1.0  0.12489  0.80371  0.69269  1.0000
  H   H496      1.0  0.22037  0.76832  0.63684  1.0000
  H   H497      1.0  0.18317  0.77657  0.68578  1.0000
  H   H498      1.0  0.25347  0.77751  0.72287  1.0000
  N   N35       1.0  0.47003  0.85304  0.70570  1.0000
  Fe  Fe66      1.0  0.09503  0.77190  0.59209  1.0000
  H   H499      1.0  0.17731  0.75484  0.70029  1.0000
  H   H500      1.0  0.42223  0.86967  0.70110  1.0000
  H   H501      1.0  0.08318  0.85781  0.42319  1.0000
  H   H502      1.0  0.13517  0.82498  0.42561  1.0000
  H   H503      1.0  0.16843  0.83412  0.44915  1.0000
  H   H504      1.0  0.28120  0.77027  0.68777  1.0000
  C   C317      1.0  0.57304  0.85382  0.64937  1.0000
  C   C318      1.0  0.49189  0.86732  0.71113  1.0000
  H   H505      1.0  0.51949  0.86405  0.70276  1.0000
  H   H506      1.0  0.55864  0.82897  0.66893  1.0000
  H   H507      1.0  0.45452  0.83864  0.66334  1.0000
  H   H508      1.0  0.46181  0.86074  0.65164  1.0000
  C   C319      1.0  0.08194  0.73149  0.58398  1.0000
  C   C320      1.0  0.47105  0.84922  0.66850  1.0000
  H   H509      1.0  0.27184  0.74010  0.70249  1.0000
  C   C321      1.0  0.08178  0.84749  0.44405  1.0000
  H   H510      1.0  0.22825  0.73342  0.70702  1.0000
  C   C322      1.0  0.57086  0.84041  0.67490  1.0000
  H   H511      1.0  0.09152  0.83514  0.50996  1.0000
  C   C323      1.0  0.08220  0.71558  0.56898  1.0000
  H   H512      1.0  0.51122  0.83337  0.71978  1.0000
  H   H513      1.0  0.46794  0.82642  0.72334  1.0000
  H   H514      1.0  0.19427  0.76927  0.72947  1.0000
  Fe  Fe67      1.0  0.23580  0.79424  0.81861  1.0000
  S   S132      1.0  0.24440  0.76551  0.81812  1.0000
  S   S133      1.0  0.18188  0.80546  0.80386  1.0000
  Fe  Fe68      1.0  0.26769  0.76701  0.87041  1.0000
  S   S134      1.0  0.25236  0.74908  0.91453  1.0000
  Fe  Fe69      1.0  0.29768  0.77011  0.79741  1.0000
  H   H515      1.0  0.52692  0.72881  0.80191  1.0000
  S   S135      1.0  0.25521  0.79555  0.87271  1.0000
  H   H516      1.0  0.30264  0.71143  0.92705  1.0000
  S   S136      1.0  0.32227  0.76893  0.85000  1.0000
  C   C324      1.0  0.17966  0.80885  0.75863  1.0000
  H   H517      1.0  0.26761  0.71053  0.89743  1.0000
  H   H518      1.0  0.48286  0.83992  0.75502  1.0000
  H   H519      1.0  0.12682  0.80179  0.75653  1.0000
  H   H520      1.0  0.26117  0.81142  0.01689  1.0000
  C   C325      1.0  0.18273  0.81027  0.97785  1.0000
  H   H521      1.0  0.22221  0.80277  0.03437  1.0000
  C   C326      1.0  0.48361  0.83754  0.72678  1.0000
  C   C327      1.0  0.14675  0.77410  0.94889  1.0000
  C   C328      1.0  0.15994  0.77769  0.91554  1.0000
  C   C329      1.0  0.19093  0.76885  0.90414  1.0000
  C   C330      1.0  0.20963  0.75672  0.92641  1.0000
  C   C331      1.0  0.19582  0.75256  0.95945  1.0000
  C   C332      1.0  0.16422  0.76127  0.97073  1.0000
  H   H522      1.0  0.14696  0.78784  0.89890  1.0000
  H   H523      1.0  0.20101  0.77202  0.87852  1.0000
  H   H524      1.0  0.21021  0.74318  0.97680  1.0000
  H   H525      1.0  0.15405  0.75847  0.99663  1.0000
  S   S137      1.0  0.28728  0.79887  0.79264  1.0000
  H   H526      1.0  0.26482  0.78995  0.97157  1.0000
  C   C333      1.0  0.35742  0.72317  0.75799  1.0000
  N   N36       1.0  0.22139  0.80900  0.97936  1.0000
  H   H527      1.0  0.17153  0.80049  0.99601  1.0000
  S   S138      1.0  0.53272  0.84839  0.81176  1.0000
  H   H528      1.0  0.51284  0.76672  0.77271  1.0000
  C   C334      1.0  0.50375  0.73710  0.81100  1.0000
  H   H529      1.0  0.56256  0.74223  0.84466  1.0000
  H   H530      1.0  0.32941  0.73237  0.88745  1.0000
  H   H531      1.0  0.52614  0.74281  0.87475  1.0000
  S   S139      1.0  0.31695  0.75382  0.75388  1.0000
  Fe  Fe70      1.0  0.30769  0.79746  0.84712  1.0000
  H   H532      1.0  0.48518  0.73926  0.78895  1.0000
  H   H533      1.0  0.29476  0.73170  0.85713  1.0000
  H   H534      1.0  0.48867  0.77661  0.84444  1.0000
  H   H535      1.0  0.17080  0.82319  0.98480  1.0000
  H   H536      1.0  0.22651  0.81989  0.92717  1.0000
  C   C335      1.0  0.23212  0.81231  0.01483  1.0000
  H   H537      1.0  0.41712  0.85543  0.03809  1.0000
  H   H538      1.0  0.49219  0.84156  0.02176  1.0000
  C   C336      1.0  0.53826  0.75005  0.85263  1.0000
  H   H539      1.0  0.46238  0.85234  0.99025  1.0000
  C   C337      1.0  0.23570  0.79151  0.97063  1.0000
  H   H540      1.0  0.23194  0.81665  0.75218  1.0000
  C   C338      1.0  0.48204  0.85440  0.01016  1.0000
  H   H541      1.0  0.09028  0.79967  0.87421  1.0000
  H   H542      1.0  0.13317  0.78241  0.83754  1.0000
  H   H543      1.0  0.17363  0.80803  0.95133  1.0000
  C   C339      1.0  0.53103  0.76317  0.79470  1.0000
  H   H544      1.0  0.11858  0.76600  0.81206  1.0000
  H   H545      1.0  0.33949  0.72748  0.84308  1.0000
  H   H546      1.0  0.26412  0.82091  0.95364  1.0000
  S   S140      1.0  0.11032  0.78708  0.96322  1.0000
  Fe  Fe71      1.0  0.08947  0.77950  0.01615  1.0000
  H   H547      1.0  0.24490  0.74658  0.73872  1.0000
  N   N37       1.0  0.51378  0.75358  0.82335  1.0000
  C   C340      1.0  0.41246  0.82199  0.85528  1.0000
  S   S141      1.0  0.49093  0.80576  0.78995  1.0000
  C   C341      1.0  0.23494  0.82185  0.95408  1.0000
  C   C342      1.0  0.40537  0.73487  0.80307  1.0000
  Fe  Fe72      1.0  0.54920  0.84518  0.86768  1.0000
  H   H548      1.0  0.22835  0.78869  0.94396  1.0000
  H   H549      1.0  0.50438  0.85995  0.99613  1.0000
  C   C343      1.0  0.20861  0.81381  0.73918  1.0000
  S   S142      1.0  0.34411  0.81550  0.86677  1.0000
  C   C344      1.0  0.35336  0.74024  0.76784  1.0000
  C   C345      1.0  0.40911  0.71772  0.79368  1.0000
  C   C346      1.0  0.37748  0.74613  0.79015  1.0000
  C   C347      1.0  0.44996  0.80894  0.81073  1.0000
  C   C348      1.0  0.42205  0.80021  0.79999  1.0000
  C   C349      1.0  0.38948  0.80219  0.81718  1.0000
  C   C350      1.0  0.38466  0.81308  0.84488  1.0000
  H   H550      1.0  0.46826  0.75723  0.85660  1.0000
  C   C351      1.0  0.44514  0.81989  0.83829  1.0000
  H   H551      1.0  0.42559  0.79181  0.77854  1.0000
  H   H552      1.0  0.36808  0.79534  0.80890  1.0000
  Fe  Fe73      1.0  0.53147  0.81972  0.81539  1.0000
  H   H553      1.0  0.46655  0.82673  0.84664  1.0000
  H   H554      1.0  0.42362  0.73939  0.82074  1.0000
  H   H555      1.0  0.22528  0.83525  0.96021  1.0000
  H   H556      1.0  0.43189  0.86102  0.74454  1.0000
  H   H557      1.0  0.40880  0.83044  0.87665  1.0000
  S   S143      1.0  0.54299  0.81671  0.87224  1.0000
  H   H558      1.0  0.55445  0.75547  0.78443  1.0000
  C   C352      1.0  0.32085  0.72541  0.86508  1.0000
  C   C353      1.0  0.14917  0.80573  0.74170  1.0000
  C   C354      1.0  0.38518  0.71187  0.77111  1.0000
  H   H559      1.0  0.46317  0.76705  0.81351  1.0000
  H   H560      1.0  0.37478  0.75942  0.79723  1.0000
  C   C355      1.0  0.57046  0.86083  0.95458  1.0000
  C   C356      1.0  0.48209  0.76404  0.83506  1.0000
  H   H561      1.0  0.22558  0.78140  0.98869  1.0000
  H   H562      1.0  0.54635  0.76224  0.86255  1.0000
  H   H563      1.0  0.22167  0.82539  0.02237  1.0000
  H   H564      1.0  0.08969  0.80374  0.80981  1.0000
  C   C357      1.0  0.54345  0.87138  0.93819  1.0000
  S   S144      1.0  0.52177  0.86482  0.90202  1.0000
  H   H565      1.0  0.33884  0.71858  0.74068  1.0000
  C   C358      1.0  0.11379  0.77262  0.83677  1.0000
  H   H566      1.0  0.49063  0.72949  0.83194  1.0000
  H   H567      1.0  0.11971  0.76294  0.85874  1.0000
  H   H568      1.0  0.53988  0.77543  0.80350  1.0000
  N   N38       1.0  0.46709  0.86590  0.03696  1.0000
  H   H569      1.0  0.49237  0.87028  0.73906  1.0000
  H   H570      1.0  0.51625  0.87533  0.04847  1.0000
  C   C359      1.0  0.43838  0.85786  0.05596  1.0000
  H   H571      1.0  0.30609  0.01154  0.22600  1.0000
  H   H572      1.0  0.44825  0.93608  0.27793  1.0000
  S   S145      1.0  0.17449  0.00688  0.33363  1.0000
  H   H573      1.0  0.24763  0.01790  0.25315  1.0000
  H   H574      1.0  0.41057  0.91637  0.25218  1.0000
  H   H575      1.0  0.42963  0.89890  0.22760  1.0000
  H   H576      1.0  0.22756  0.00134  0.27838  1.0000
  H   H577      1.0  0.30081  0.01281  0.28943  1.0000
  Fe  Fe74      1.0  0.55093  0.90571  0.07025  1.0000
  S   S146      1.0  0.25382  0.03532  0.33436  1.0000
  C   C360      1.0  0.21181  0.89106  0.34663  1.0000
  Fe  Fe75      1.0  0.54340  0.92538  0.13643  1.0000
  S   S147      1.0  0.53114  0.89890  0.12412  1.0000
  H   H578      1.0  0.22608  0.90243  0.34606  1.0000
  Fe  Fe76      1.0  0.51379  0.94162  0.06875  1.0000
  H   H579      1.0  0.27985  0.99649  0.31485  1.0000
  C   C361      1.0  0.20571  0.99117  0.35127  1.0000
  C   C362      1.0  0.20700  0.97421  0.34082  1.0000
  C   C363      1.0  0.23385  0.96195  0.35263  1.0000
  C   C364      1.0  0.46283  0.92737  0.21210  1.0000
  H   H580      1.0  0.12094  0.03571  0.34748  1.0000
  S   S148      1.0  0.43031  0.90073  0.34938  1.0000
  H   H581      1.0  0.18767  0.97063  0.32311  1.0000
  H   H582      1.0  0.43972  0.93705  0.21361  1.0000
  S   S149      1.0  0.56820  0.93122  0.08429  1.0000
  C   C365      1.0  0.29640  0.99884  0.29130  1.0000
  H   H583      1.0  0.26358  0.97070  0.23894  1.0000
  C   C366      1.0  0.47119  0.92650  0.27415  1.0000
  H   H584      1.0  0.30050  0.96732  0.26710  1.0000
  H   H585      1.0  0.32814  0.99011  0.23107  1.0000
  Fe  Fe77      1.0  0.30058  0.89771  0.31958  1.0000
  Fe  Fe78      1.0  0.30891  0.93147  0.35143  1.0000
  Fe  Fe79      1.0  0.19646  0.03261  0.33177  1.0000
  C   C367      1.0  0.24505  0.00375  0.25559  1.0000
  H   H586      1.0  0.55358  0.97110  0.08415  1.0000
  S   S150      1.0  0.28004  0.92501  0.30436  1.0000
  H   H587      1.0  0.49494  0.93368  0.27060  1.0000
  H   H588      1.0  0.49521  0.90220  0.38516  1.0000
  N   N39       1.0  0.27960  0.99381  0.25966  1.0000
  H   H589      1.0  0.23151  0.00029  0.23202  1.0000
  H   H590      1.0  0.45952  0.91979  0.18892  1.0000
  H   H591      1.0  0.25753  0.97196  0.28511  1.0000
  H   H592      1.0  0.23478  0.94887  0.34454  1.0000
  C   C368      1.0  0.27503  0.97516  0.26282  1.0000
  C   C369      1.0  0.30197  0.99754  0.22899  1.0000
  H   H593      1.0  0.09112  0.00985  0.30462  1.0000
  C   C370      1.0  0.55872  0.97872  0.06062  1.0000
  C   C371      1.0  0.43413  0.90703  0.24965  1.0000
  H   H594      1.0  0.32223  0.99137  0.29559  1.0000
  S   S151      1.0  0.35038  0.89858  0.28794  1.0000
  H   H595      1.0  0.48646  0.93451  0.20723  1.0000
  H   H596      1.0  0.52142  0.90959  0.23647  1.0000
  Fe  Fe80      1.0  0.37342  0.90744  0.33618  1.0000
  S   S152      1.0  0.35874  0.93532  0.32228  1.0000
  S   S153      1.0  0.33884  0.94172  0.22616  1.0000
  H   H597      1.0  0.49980  0.89430  0.26415  1.0000
  H   H598      1.0  0.16483  0.90374  0.36870  1.0000
  Fe  Fe81      1.0  0.47980  0.91193  0.10573  1.0000
  S   S154      1.0  0.43142  0.89851  0.11911  1.0000
  N   N40       1.0  0.46623  0.91602  0.24412  1.0000
  H   H599      1.0  0.47420  0.91828  0.29871  1.0000
  S   S155      1.0  0.56208  0.93133  0.18914  1.0000
  H   H600      1.0  0.43557  0.89845  0.27380  1.0000
  C   C372      1.0  0.08029  0.01130  0.33143  1.0000
  H   H601      1.0  0.28996  0.99401  0.20460  1.0000
  S   S156      1.0  0.49039  0.93805  0.12205  1.0000
  C   C373      1.0  0.36129  0.92972  0.19409  1.0000
  C   C374      1.0  0.38036  0.93821  0.16813  1.0000
  C   C375      1.0  0.40112  0.92869  0.14429  1.0000
  C   C376      1.0  0.40253  0.91067  0.14610  1.0000
  C   C377      1.0  0.38197  0.90224  0.17086  1.0000
  C   C378      1.0  0.36154  0.91175  0.19496  1.0000
  H   H602      1.0  0.37980  0.95213  0.16695  1.0000
  H   H603      1.0  0.41594  0.93533  0.12447  1.0000
  H   H604      1.0  0.38259  0.88832  0.17206  1.0000
  H   H605      1.0  0.34595  0.90515  0.21416  1.0000
  Fe  Fe82      1.0  0.33175  0.92636  0.27663  1.0000
  H   H606      1.0  0.15167  0.88827  0.24391  1.0000
  C   C379      1.0  0.49672  0.90319  0.24054  1.0000
  H   H607      1.0  0.10141  0.00614  0.34967  1.0000
  H   H608      1.0  0.49392  0.89523  0.21780  1.0000
  H   H609      1.0  0.48421  0.87711  0.08272  1.0000
  C   C380      1.0  0.17713  0.89180  0.35934  1.0000
  S   S157      1.0  0.29364  0.95176  0.38930  1.0000
  C   C381      1.0  0.09837  0.04017  0.33053  1.0000
  S   S158      1.0  0.11429  0.87858  0.37376  1.0000
  S   S159      1.0  0.32538  0.90408  0.36918  1.0000
  H   H610      1.0  0.10793  0.03953  0.30314  1.0000
  C   C382      1.0  0.15809  0.87728  0.35908  1.0000
  H   H611      1.0  0.18616  0.87916  0.27203  1.0000
  C   C383      1.0  0.23049  0.99571  0.37446  1.0000
  C   C384      1.0  0.25903  0.96659  0.37531  1.0000
  H   H612      1.0  0.22909  0.00868  0.38328  1.0000
  C   C385      1.0  0.25696  0.98339  0.38668  1.0000
  H   H613      1.0  0.18786  0.87796  0.19319  1.0000
  C   C386      1.0  0.16208  0.87626  0.25857  1.0000
  C   C387      1.0  0.47418  0.90262  0.40427  1.0000
  H   H614      1.0  0.52994  0.97121  0.67610  1.0000
  H   H615      1.0  0.40234  0.97773  0.46523  1.0000
  S   S160      1.0  0.53998  0.03154  0.68870  1.0000
  N   N41       1.0  0.57077  0.96260  0.71246  1.0000
  H   H616      1.0  0.27610  0.98700  0.40455  1.0000
  H   H617      1.0  0.40725  0.93854  0.41387  1.0000
  C   C388      1.0  0.39315  0.94447  0.48097  1.0000
  S   S161      1.0  0.46212  0.90983  0.50746  1.0000
  H   H618      1.0  0.42070  0.93910  0.47668  1.0000
  C   C389      1.0  0.41266  0.90199  0.41874  1.0000
  C   C390      1.0  0.42001  0.90387  0.45378  1.0000
  C   C391      1.0  0.45436  0.90541  0.46414  1.0000
  C   C392      1.0  0.48158  0.90448  0.43942  1.0000
  H   H619      1.0  0.38614  0.90076  0.41111  1.0000
  H   H620      1.0  0.32554  0.95175  0.46164  1.0000
  H   H621      1.0  0.39904  0.90406  0.47294  1.0000
  H   H622      1.0  0.50821  0.90556  0.44727  1.0000
  H   H623      1.0  0.37734  0.93336  0.48698  1.0000
  N   N42       1.0  0.37972  0.95507  0.45025  1.0000
  C   C393      1.0  0.38029  0.94427  0.41986  1.0000
  S   S162      1.0  0.53108  0.00148  0.61519  1.0000
  H   H624      1.0  0.39276  0.97755  0.41970  1.0000
  H   H625      1.0  0.53927  0.94167  0.58158  1.0000
  C   C394      1.0  0.40212  0.96932  0.44283  1.0000
  C   C395      1.0  0.34340  0.96221  0.45732  1.0000
  H   H626      1.0  0.52886  0.98287  0.71525  1.0000
  C   C396      1.0  0.55362  0.95240  0.58780  1.0000
  Fe  Fe83      1.0  0.51730  0.90163  0.52437  1.0000
  H   H627      1.0  0.36337  0.93344  0.42437  1.0000
  H   H628      1.0  0.33275  0.97064  0.43498  1.0000
  Fe  Fe84      1.0  0.56446  0.01860  0.64254  1.0000
  H   H629      1.0  0.42972  0.96429  0.43745  1.0000
  C   C397      1.0  0.43960  0.90166  0.39379  1.0000
  C   C398      1.0  0.53557  0.96838  0.59453  1.0000
  S   S163      1.0  0.53197  0.90104  0.58077  1.0000
  H   H630      1.0  0.53393  0.94345  0.71135  1.0000
  H   H631      1.0  0.50726  0.96993  0.59355  1.0000
  H   H632      1.0  0.39282  0.95208  0.50455  1.0000
  H   H633      1.0  0.34167  0.97000  0.48070  1.0000
  H   H634      1.0  0.56103  0.98646  0.68207  1.0000
  C   C399      1.0  0.54653  0.97635  0.69584  1.0000
  H   H635      1.0  0.37031  0.95185  0.39619  1.0000
  C   C400      1.0  0.55403  0.98219  0.60327  1.0000
  H   H636      1.0  0.48223  0.87930  0.69588  1.0000
  S   S164      1.0  0.56473  0.91435  0.50503  1.0000
  H   H637      1.0  0.57860  0.94905  0.66537  1.0000
  C   C401      1.0  0.54607  0.03689  0.85702  1.0000
  H   H638      1.0  0.53615  0.90403  0.99374  1.0000
  H   H639      1.0  0.52597  0.98841  0.97973  1.0000
  C   C402      1.0  0.45325  0.88258  0.02015  1.0000
  H   H640      1.0  0.54463  0.03807  0.76843  1.0000
  C   C403      1.0  0.53122  0.88696  0.95252  1.0000
  C   C404      1.0  0.57115  0.88099  0.00077  1.0000
  N   N43       1.0  0.45402  0.02773  0.99743  1.0000
  C   C405      1.0  0.57021  0.99944  0.00049  1.0000
  C   C406      1.0  0.54530  0.89184  0.98343  1.0000
  H   H641      1.0  0.47352  0.00221  0.01626  1.0000
  C   C407      1.0  0.44846  0.00974  0.00884  1.0000
  C   C408      1.0  0.41991  0.03740  0.98931  1.0000
  H   H642      1.0  0.56788  0.93878  0.74292  1.0000
  H   H643      1.0  0.51063  0.89526  0.93971  1.0000
  C   C409      1.0  0.54257  0.98882  0.00203  1.0000
  C   C410      1.0  0.55239  0.03396  0.79466  1.0000
  H   H644      1.0  0.43692  0.00286  0.98790  1.0000
  C   C411      1.0  0.47677  0.02784  0.96602  1.0000
  H   H645      1.0  0.40254  0.03837  0.01272  1.0000
  H   H646      1.0  0.40583  0.03123  0.96905  1.0000
  H   H647      1.0  0.46482  0.02189  0.94405  1.0000
  H   H648      1.0  0.50269  0.02058  0.97102  1.0000
  H   H649      1.0  0.43236  0.88090  0.00130  1.0000
  H   H650      1.0  0.47420  0.88900  0.00551  1.0000
  H   H651      1.0  0.45438  0.03625  0.04960  1.0000
  C   C412      1.0  0.53690  0.97841  0.03204  1.0000
  C   C413      1.0  0.55039  0.94938  0.73011  1.0000
  S   S165      1.0  0.50185  0.96546  0.03392  1.0000
  C   C414      1.0  0.47095  0.03593  0.02558  1.0000
  H   H652      1.0  0.44197  0.89161  0.03972  1.0000
  H   H653      1.0  0.43068  0.00918  0.03195  1.0000
  H   H654      1.0  0.49671  0.02889  0.03245  1.0000
  H   H655      1.0  0.57564  0.97662  0.75852  1.0000
  H   H656      1.0  0.53266  0.95502  0.75055  1.0000
  C   C415      1.0  0.57313  0.02383  0.86266  1.0000
  H   H657      1.0  0.48174  0.04124  0.95686  1.0000
  S   S166      1.0  0.49827  0.91655  0.05096  1.0000
  C   C416      1.0  0.57941  0.02087  0.80040  1.0000
  H   H658      1.0  0.57491  0.00723  0.97702  1.0000
  C   C417      1.0  0.53540  0.04182  0.82304  1.0000
  H   H659      1.0  0.96329  0.09270  0.20193  1.0000
  H   H660      1.0  0.62640  0.10905  0.11438  1.0000
  C   C418      1.0  0.03826  0.07210  0.26069  1.0000
  S   S167      1.0  0.83267  0.08024  0.22428  1.0000
  C   C419      1.0  0.82365  0.13332  0.16755  1.0000
  H   H661      1.0  0.70610  0.16589  0.12869  1.0000
  N   N44       1.0  0.93130  0.09369  0.15639  1.0000
  H   H662      1.0  0.67982  0.15392  0.21955  1.0000
  H   H663      1.0  0.93066  0.12139  0.15232  1.0000
  H   H664      1.0  0.94847  0.07897  0.11270  1.0000
  C   C420      1.0  0.72828  0.16223  0.14667  1.0000
  H   H665      1.0  0.75769  0.14495  0.20276  1.0000
  N   N45       1.0  0.71744  0.16395  0.18344  1.0000
  C   C421      1.0  0.74774  0.15865  0.20604  1.0000
  C   C422      1.0  0.81303  0.10309  0.17065  1.0000
  H   H666      1.0  0.68211  0.18654  0.17208  1.0000
  H   H667      1.0  0.74082  0.15998  0.23399  1.0000
  C   C423      1.0  0.61836  0.11029  0.08669  1.0000
  H   H668      1.0  0.66573  0.15638  0.17542  1.0000
  C   C424      1.0  0.70482  0.18210  0.18894  1.0000
  S   S168      1.0  0.61832  0.18241  0.12562  1.0000
  S   S169      1.0  0.00269  0.06308  0.24305  1.0000
  H   H669      1.0  0.05836  0.09796  0.32446  1.0000
  H   H670      1.0  0.80002  0.12068  0.12678  1.0000
  H   H671      1.0  0.64216  0.07859  0.06953  1.0000
  H   H672      1.0  0.59687  0.10178  0.08364  1.0000
  H   H673      1.0  0.97901  0.07813  0.16978  1.0000
  H   H674      1.0  0.69759  0.13897  0.18853  1.0000
  Fe  Fe85      1.0  0.81730  0.14939  0.08721  1.0000
  S   S170      1.0  0.84513  0.12688  0.06149  1.0000
  C   C425      1.0  0.83759  0.13133  0.20106  1.0000
  H   H675      1.0  0.90479  0.08152  0.19937  1.0000
  C   C426      1.0  0.68897  0.15279  0.19208  1.0000
  H   H676      1.0  0.74958  0.17059  0.13918  1.0000
  H   H677      1.0  0.91015  0.09369  0.10507  1.0000
  H   H678      1.0  0.73872  0.14875  0.14187  1.0000
  H   H679      1.0  0.72572  0.19088  0.18288  1.0000
  C   C427      1.0  0.62232  0.20331  0.28525  1.0000
  H   H680      1.0  0.66553  0.13123  0.06290  1.0000
  S   S171      1.0  0.90978  0.05109  0.26199  1.0000
  H   H681      1.0  0.60715  0.12382  0.08114  1.0000
  H   H682      1.0  0.80358  0.09217  0.15874  1.0000
  C   C428      1.0  0.81108  0.11922  0.15251  1.0000
  S   S172      1.0  0.59728  0.16120  0.21510  1.0000
  Fe  Fe86      1.0  0.87489  0.07568  0.26420  1.0000
  S   S173      1.0  0.82281  0.15327  0.14416  1.0000
  C   C429      1.0  0.96582  0.09126  0.17336  1.0000
  C   C430      1.0  0.61493  0.19345  0.22748  1.0000
  H   H683      1.0  0.07620  0.05863  0.22765  1.0000
  Fe  Fe87      1.0  0.90983  0.08618  0.32832  1.0000
  H   H684      1.0  0.61335  0.19623  0.19974  1.0000
  C   C431      1.0  0.90890  0.08051  0.17090  1.0000
  S   S174      1.0  0.91880  0.09222  0.27130  1.0000
  H   H685      1.0  0.88249  0.08196  0.15892  1.0000
  S   S175      1.0  0.76460  0.14611  0.06597  1.0000
  C   C432      1.0  0.84016  0.11506  0.21897  1.0000
  H   H686      1.0  0.67275  0.08617  0.09860  1.0000
  C   C433      1.0  0.93584  0.09193  0.11853  1.0000
  C   C434      1.0  0.62122  0.20661  0.24922  1.0000
  H   H687      1.0  0.92075  0.06720  0.16679  1.0000
  H   H688      1.0  0.88845  0.11335  0.15022  1.0000
  C   C435      1.0  0.03324  0.08327  0.28787  1.0000
  H   H689      1.0  0.95244  0.10176  0.10663  1.0000
  H   H690      1.0  0.84722  0.14224  0.21280  1.0000
  H   H691      1.0  0.00705  0.08713  0.29715  1.0000
  H   H692      1.0  0.77006  0.16654  0.19962  1.0000
  C   C436      1.0  0.06226  0.08939  0.30331  1.0000
  S   S176      1.0  0.90691  0.10671  0.36694  1.0000
  S   S177      1.0  0.86269  0.07190  0.32092  1.0000
  H   H693      1.0  0.85144  0.11348  0.24461  1.0000
  C   C437      1.0  0.91450  0.11107  0.16279  1.0000
  S   S178      1.0  0.94768  0.06247  0.33194  1.0000
  C   C438      1.0  0.82809  0.10091  0.20361  1.0000
  H   H694      1.0  0.98368  0.10083  0.16285  1.0000
  C   C439      1.0  0.61884  0.18661  0.29940  1.0000
  H   H695      1.0  0.69604  0.18382  0.21635  1.0000
  Fe  Fe88      1.0  0.95283  0.06725  0.27412  1.0000
  Fe  Fe89      1.0  0.90104  0.04849  0.31960  1.0000
  H   H696      1.0  0.60918  0.16060  0.28868  1.0000
  C   C440      1.0  0.60987  0.17695  0.24174  1.0000
  H   H697      1.0  0.91034  0.11281  0.19111  1.0000
  H   H698      1.0  0.68707  0.11594  0.09385  1.0000
  N   N46       1.0  0.64822  0.10574  0.06312  1.0000
  H   H699      1.0  0.02996  0.04920  0.31816  1.0000
  C   C441      1.0  0.67585  0.11750  0.06733  1.0000
  H   H700      1.0  0.62074  0.18387  0.32712  1.0000
  H   H701      1.0  0.82063  0.04563  0.34719  1.0000
  C   C442      1.0  0.61272  0.17341  0.27762  1.0000
  C   C443      1.0  0.66249  0.08778  0.07168  1.0000
  H   H702      1.0  0.77368  0.04740  0.34842  1.0000
  C   C444      1.0  0.07223  0.06721  0.24878  1.0000
  H   H703      1.0  0.04793  0.04469  0.37911  1.0000
  Fe  Fe90      1.0  0.58260  0.17317  0.08674  1.0000
  Fe  Fe91      1.0  0.58370  0.20714  0.12093  1.0000
  H   H704      1.0  0.77144  0.07179  0.38688  1.0000
  H   H705      1.0  0.81830  0.07103  0.38529  1.0000
  H   H706      1.0  0.63944  0.07050  0.61174  1.0000
  H   H707      1.0  0.71308  0.14367  0.54478  1.0000
  S   S179      1.0  0.76877  0.16622  0.53580  1.0000
  C   C445      1.0  0.67523  0.15262  0.50565  1.0000
  C   C446      1.0  0.95392  0.10170  0.47689  1.0000
  H   H708      1.0  0.91101  0.10475  0.55461  1.0000
  H   H709      1.0  0.85137  0.12186  0.69038  1.0000
  H   H710      1.0  0.66337  0.09612  0.63367  1.0000
  Fe  Fe92      1.0  0.60756  0.19145  0.43274  1.0000
  S   S180      1.0  0.62485  0.16603  0.46032  1.0000
  H   H711      1.0  0.84798  0.16777  0.71174  1.0000
  C   C447      1.0  0.66663  0.16481  0.47837  1.0000
  C   C448      1.0  0.69056  0.17653  0.46738  1.0000
  C   C449      1.0  0.72255  0.17647  0.48438  1.0000
  C   C450      1.0  0.73068  0.16467  0.51237  1.0000
  C   C451      1.0  0.91879  0.09926  0.52928  1.0000
  H   H712      1.0  0.68458  0.18559  0.44573  1.0000
  C   C452      1.0  0.92714  0.12735  0.50231  1.0000
  C   C453      1.0  0.88393  0.08276  0.41455  1.0000
  H   H713      1.0  0.81069  0.15736  0.69865  1.0000
  H   H714      1.0  0.85226  0.15296  0.67764  1.0000
  C   C454      1.0  0.86572  0.11267  0.42433  1.0000
  C   C455      1.0  0.83938  0.15540  0.70319  1.0000
  Fe  Fe93      1.0  0.79146  0.14062  0.55860  1.0000
  S   S181      1.0  0.76612  0.11572  0.56016  1.0000
  H   H715      1.0  0.98826  0.09749  0.53771  1.0000
  H   H716      1.0  0.65668  0.14358  0.51420  1.0000
  H   H717      1.0  0.63253  0.19372  0.51713  1.0000
  C   C456      1.0  0.70721  0.15258  0.52276  1.0000
  H   H718      1.0  0.61862  0.09871  0.53248  1.0000
  H   H719      1.0  0.79598  0.06991  0.42648  1.0000
  C   C457      1.0  0.64124  0.07656  0.58497  1.0000
  H   H720      1.0  0.95078  0.14236  0.66310  1.0000
  H   H721      1.0  0.96666  0.08839  0.48151  1.0000
  H   H722      1.0  0.62090  0.07140  0.56925  1.0000
  H   H723      1.0  0.83257  0.11720  0.46920  1.0000
  S   S182      1.0  0.91208  0.12856  0.60946  1.0000
  H   H724      1.0  0.63550  0.11745  0.54853  1.0000
  H   H725      1.0  0.91907  0.13378  0.52670  1.0000
  S   S183      1.0  0.80966  0.13771  0.61373  1.0000
  C   C458      1.0  0.90034  0.18071  0.65787  1.0000
  H   H726      1.0  0.90337  0.12721  0.48616  1.0000
  H   H727      1.0  0.05767  0.17331  0.68063  1.0000
  C   C459      1.0  0.64842  0.19560  0.54034  1.0000
  S   S184      1.0  0.89150  0.19992  0.67921  1.0000
  H   H728      1.0  0.76771  0.08093  0.60167  1.0000
  S   S185      1.0  0.75829  0.10261  0.66008  1.0000
  H   H729      1.0  0.93010  0.08576  0.53484  1.0000
  H   H730      1.0  0.96812  0.11663  0.55631  1.0000
  H   H731      1.0  0.67179  0.18605  0.53987  1.0000
  H   H732      1.0  0.66506  0.09936  0.53723  1.0000
  Fe  Fe94      1.0  0.78874  0.11183  0.61365  1.0000
  Fe  Fe95      1.0  0.81879  0.10421  0.54241  1.0000
  H   H733      1.0  0.86051  0.18770  0.61962  1.0000
  C   C460      1.0  0.70790  0.05430  0.63404  1.0000
  C   C461      1.0  0.74076  0.08340  0.65099  1.0000
  C   C462      1.0  0.71696  0.07629  0.67434  1.0000
  C   C463      1.0  0.70055  0.06175  0.66585  1.0000
  H   H734      1.0  0.71085  0.08216  0.69875  1.0000
  H   H735      1.0  0.69076  0.09799  0.59572  1.0000
  H   H736      1.0  0.59703  0.11516  0.60086  1.0000
  C   C464      1.0  0.73268  0.06106  0.61126  1.0000
  C   C465      1.0  0.88031  0.17785  0.62910  1.0000
  C   C466      1.0  0.66416  0.10172  0.60646  1.0000
  H   H737      1.0  0.94526  0.13561  0.48773  1.0000
  H   H738      1.0  0.68261  0.05621  0.68410  1.0000
  H   H739      1.0  0.86842  0.15971  0.59182  1.0000
  C   C467      1.0  0.74902  0.07563  0.61966  1.0000
  N   N47       1.0  0.63655  0.09558  0.58524  1.0000
  H   H740      1.0  0.80907  0.12565  0.71047  1.0000
  H   H741      1.0  0.89442  0.09866  0.51442  1.0000
  H   H742      1.0  0.89824  0.07314  0.39929  1.0000
  C   C468      1.0  0.93121  0.15228  0.65352  1.0000
  C   C469      1.0  0.88472  0.16199  0.61343  1.0000
  S   S186      1.0  0.83922  0.09802  0.59631  1.0000
  H   H743      1.0  0.74100  0.18561  0.47595  1.0000
  C   C470      1.0  0.60176  0.10088  0.60029  1.0000
  C   C471      1.0  0.86657  0.07774  0.44529  1.0000
  H   H744      1.0  0.86790  0.06429  0.45401  1.0000
  H   H745      1.0  0.86530  0.12621  0.41617  1.0000
  C   C472      1.0  0.84813  0.09013  0.46518  1.0000
  H   H746      1.0  0.93067  0.10079  0.46043  1.0000
  C   C473      1.0  0.63902  0.10310  0.54928  1.0000
  H   H747      1.0  0.73872  0.05524  0.58675  1.0000
  C   C474      1.0  0.88372  0.10025  0.40420  1.0000
  H   H748      1.0  0.66731  0.07197  0.57408  1.0000
  S   S187      1.0  0.61400  0.04956  0.69495  1.0000
  C   C475      1.0  0.92609  0.16799  0.66986  1.0000
  Fe  Fe96      1.0  0.85841  0.12430  0.59140  1.0000
  C   C476      1.0  0.84753  0.10760  0.45455  1.0000
  N   N48       1.0  0.94377  0.10971  0.50991  1.0000
  C   C477      1.0  0.90979  0.14911  0.62598  1.0000
  S   S188      1.0  0.82695  0.08352  0.50371  1.0000
  S   S189      1.0  0.84229  0.12951  0.53617  1.0000
  H   H749      1.0  0.97239  0.10935  0.46127  1.0000
  H   H750      1.0  0.59908  0.09542  0.62748  1.0000
  H   H751      1.0  0.99461  0.11837  0.51750  1.0000
  H   H752      1.0  0.06588  0.20038  0.70978  1.0000
  H   H753      1.0  0.63262  0.19225  0.56382  1.0000
  H   H754      1.0  0.66142  0.11601  0.60754  1.0000
  C   C478      1.0  0.97515  0.11058  0.53124  1.0000
  C   C479      1.0  0.79575  0.06565  0.39933  1.0000
  C   C480      1.0  0.06835  0.16586  0.70420  1.0000
  H   H755      1.0  0.90135  0.13586  0.71056  1.0000
  H   H756      1.0  0.85407  0.04466  0.40236  1.0000
  H   H757      1.0  0.94202  0.17024  0.69164  1.0000
  N   N49       1.0  0.79798  0.04663  0.39859  1.0000
  H   H758      1.0  0.58033  0.09629  0.58508  1.0000
  H   H759      1.0  0.70336  0.20905  0.50638  1.0000
  H   H760      1.0  0.74258  0.04534  0.40597  1.0000
  H   H761      1.0  0.70543  0.20586  0.56968  1.0000
  H   H762      1.0  0.76722  0.04385  0.44544  1.0000
  C   C481      1.0  0.83774  0.12480  0.71546  1.0000
  H   H763      1.0  0.04568  0.16307  0.72146  1.0000
  S   S190      1.0  0.58430  0.04249  0.61750  1.0000
  H   H764      1.0  0.65917  0.14305  0.00013  1.0000
  H   H765      1.0  0.60066  0.05840  0.84718  1.0000
  S   S191      1.0  0.92343  0.19911  0.83423  1.0000
  Fe  Fe97      1.0  0.79298  0.12479  0.03723  1.0000
  S   S192      1.0  0.62917  0.06184  0.00451  1.0000
  H   H766      1.0  0.78556  0.20451  0.89119  1.0000
  C   C482      1.0  0.69649  0.16204  0.99771  1.0000
  H   H767      1.0  0.62473  0.12070  0.01966  1.0000
  H   H768      1.0  0.70997  0.11140  0.93098  1.0000
  H   H769      1.0  0.77664  0.20150  0.93704  1.0000
  H   H770      1.0  0.83653  0.13384  0.78228  1.0000
  H   H771      1.0  0.71621  0.15393  0.98434  1.0000
  C   C483      1.0  0.03687  0.18808  0.82467  1.0000
  C   C484      1.0  0.70342  0.17857  0.00633  1.0000
  C   C485      1.0  0.70451  0.08559  0.95218  1.0000
  H   H772      1.0  0.62720  0.19042  0.04861  1.0000
  Fe  Fe98      1.0  0.78087  0.16320  0.02098  1.0000
  C   C486      1.0  0.74725  0.09386  0.00595  1.0000
  C   C487      1.0  0.73530  0.07744  0.00577  1.0000
  H   H773      1.0  0.84405  0.11358  0.73414  1.0000
  Fe  Fe99      1.0  0.63393  0.06613  0.94664  1.0000
  H   H774      1.0  0.68375  0.20162  0.03108  1.0000
  H   H775      1.0  0.69793  0.11498  0.04856  1.0000
  C   C488      1.0  0.71721  0.10189  0.95174  1.0000
  H   H776      1.0  0.83237  0.17035  0.94884  1.0000
  S   S193      1.0  0.86579  0.19177  0.77574  1.0000
  C   C489      1.0  0.07557  0.19207  0.73265  1.0000
  C   C490      1.0  0.82983  0.14437  0.76210  1.0000
  N   N50       1.0  0.65282  0.06069  0.82700  1.0000
  H   H777      1.0  0.65798  0.10409  0.00813  1.0000
  H   H778      1.0  0.82296  0.18816  0.97606  1.0000
  H   H779      1.0  0.05250  0.19000  0.74985  1.0000
  H   H780      1.0  0.74238  0.06792  0.02658  1.0000
  C   C491      1.0  0.63612  0.10736  0.02677  1.0000
  C   C492      1.0  0.71363  0.07337  0.97915  1.0000
  S   S194      1.0  0.74524  0.18528  0.99907  1.0000
  H   H781      1.0  0.68402  0.07919  0.84765  1.0000
  C   C493      1.0  0.73831  0.10610  0.97887  1.0000
  C   C494      1.0  0.63959  0.16587  0.02606  1.0000
  Fe  Fe100     1.0  0.90579  0.19870  0.73554  1.0000
  H   H782      1.0  0.74723  0.11885  0.97904  1.0000
  S   S195      1.0  0.67544  0.08079  0.92035  1.0000
  C   C495      1.0  0.67804  0.18899  0.02382  1.0000
  C   C496      1.0  0.87854  0.14003  0.88994  1.0000
  S   S196      1.0  0.80378  0.14154  0.98957  1.0000
  H   H783      1.0  0.62465  0.07328  0.86867  1.0000
  H   H784      1.0  0.89408  0.12900  0.75524  1.0000
  H   H785      1.0  0.70294  0.06880  0.81055  1.0000
  S   S197      1.0  0.95054  0.18221  0.76031  1.0000
  H   H786      1.0  0.86673  0.18309  0.95965  1.0000
  C   C497      1.0  0.87927  0.13971  0.92642  1.0000
  C   C498      1.0  0.88654  0.13922  0.73468  1.0000
  H   H787      1.0  0.84345  0.17539  0.88621  1.0000
  C   C499      1.0  0.64624  0.18256  0.03402  1.0000
  H   H788      1.0  0.84498  0.19699  0.86774  1.0000
  H   H789      1.0  0.83734  0.15649  0.77277  1.0000
  C   C500      1.0  0.66424  0.15584  0.00685  1.0000
  S   S198      1.0  0.77132  0.09898  0.04153  1.0000
  N   N51       1.0  0.83035  0.19530  0.92191  1.0000
  Fe  Fe101     1.0  0.91122  0.17707  0.80283  1.0000
  H   H790      1.0  0.66690  0.08516  0.80525  1.0000
  C   C501      1.0  0.90381  0.14855  0.94302  1.0000
  C   C502      1.0  0.83846  0.18375  0.95300  1.0000
  H   H791      1.0  0.78393  0.18311  0.91116  1.0000
  H   H792      1.0  0.80093  0.14565  0.75890  1.0000
  H   H793      1.0  0.67447  0.05076  0.87597  1.0000
  Fe  Fe102     1.0  0.85352  0.14569  0.01646  1.0000
  H   H794      1.0  0.86134  0.13234  0.94166  1.0000
  S   S199      1.0  0.90479  0.14880  0.98858  1.0000
  H   H795      1.0  0.85958  0.13314  0.87722  1.0000
  H   H796      1.0  0.01123  0.18340  0.82339  1.0000
  H   H797      1.0  0.06198  0.16364  0.84431  1.0000
  H   H798      1.0  0.87894  0.18764  0.89623  1.0000
  S   S200      1.0  0.89893  0.15094  0.82446  1.0000
  H   H799      1.0  0.89565  0.15144  0.74335  1.0000
  C   C503      1.0  0.06552  0.17694  0.83657  1.0000
  C   C504      1.0  0.92655  0.15819  0.88659  1.0000
  C   C505      1.0  0.79244  0.19615  0.91493  1.0000
  H   H800      1.0  0.94508  0.16523  0.87137  1.0000
  H   H801      1.0  0.94694  0.16432  0.93576  1.0000
  H   H802      1.0  0.63330  0.06470  0.77483  1.0000
  C   C506      1.0  0.92771  0.15760  0.92303  1.0000
  C   C507      1.0  0.90187  0.14947  0.86999  1.0000
  N   N52       1.0  0.84835  0.14094  0.72887  1.0000
  C   C508      1.0  0.85026  0.18854  0.89167  1.0000
  H   H803      1.0  0.60723  0.07901  0.82622  1.0000
  S   S201      1.0  0.83104  0.16857  0.04491  1.0000
  C   C509      1.0  0.61991  0.06819  0.84290  1.0000
  Fe  Fe103     1.0  0.95828  0.20585  0.78916  1.0000
  H   H804      1.0  0.68451  0.08380  0.05387  1.0000
  H   H805      1.0  0.70427  0.06069  0.97935  1.0000
  H   H806      1.0  0.66961  0.04849  0.77997  1.0000
  H   H807      1.0  0.61538  0.09862  0.02263  1.0000
  C   C510      1.0  0.04175  0.20512  0.81365  1.0000
  C   C511      1.0  0.67776  0.07405  0.82233  1.0000
  C   C512      1.0  0.64539  0.05424  0.79278  1.0000
  H   H808      1.0  0.62696  0.04404  0.79538  1.0000
  C   C513      1.0  0.66821  0.04627  0.85002  1.0000
  S   S202      1.0  0.60207  0.15700  0.04300  1.0000
  S   S203      1.0  0.60873  0.23198  0.12077  1.0000
  S   S204      1.0  0.06947  0.35736  0.11197  1.0000
  H   H809      1.0  0.66547  0.24945  0.30106  1.0000
  H   H810      1.0  0.64549  0.29297  0.36345  1.0000
  Fe  Fe104     1.0  0.01860  0.37407  0.11110  1.0000
  C   C514      1.0  0.65055  0.25816  0.36669  1.0000
  C   C515      1.0  0.67418  0.26197  0.30847  1.0000
  C   C516      1.0  0.85879  0.36566  0.21885  1.0000
  H   H811      1.0  0.62403  0.21949  0.23813  1.0000
  S   S205      1.0  0.71831  0.34304  0.29237  1.0000
  S   S206      1.0  0.79980  0.35359  0.34824  1.0000
  H   H812      1.0  0.62679  0.37336  0.32407  1.0000
  C   C517      1.0  0.61139  0.32488  0.32234  1.0000
  C   C518      1.0  0.62248  0.32584  0.28761  1.0000
  C   C519      1.0  0.65556  0.33122  0.27887  1.0000
  C   C520      1.0  0.67727  0.33617  0.30466  1.0000
  C   C521      1.0  0.66591  0.33552  0.33942  1.0000
  C   C522      1.0  0.63304  0.32977  0.34829  1.0000
  H   H813      1.0  0.60576  0.32220  0.26744  1.0000
  H   H814      1.0  0.66423  0.33172  0.25195  1.0000
  H   H815      1.0  0.68267  0.33919  0.35947  1.0000
  H   H816      1.0  0.98932  0.36211  0.38353  1.0000
  H   H817      1.0  0.67712  0.25564  0.37802  1.0000
  H   H818      1.0  0.66418  0.29549  0.32060  1.0000
  H   H819      1.0  0.97378  0.35477  0.34377  1.0000
  C   C523      1.0  0.61473  0.27293  0.32142  1.0000
  H   H820      1.0  0.64166  0.24546  0.36083  1.0000
  S   S207      1.0  0.97172  0.36364  0.08866  1.0000
  H   H821      1.0  0.60470  0.26066  0.31410  1.0000
  H   H822      1.0  0.61497  0.26829  0.12275  1.0000
  H   H823      1.0  0.61367  0.28198  0.29794  1.0000
  H   H824      1.0  0.84358  0.35662  0.20684  1.0000
  C   C524      1.0  0.58428  0.37013  0.11102  1.0000
  S   S208      1.0  0.72200  0.36803  0.37917  1.0000
  N   N53       1.0  0.65065  0.26988  0.33515  1.0000
  H   H825      1.0  0.64613  0.25222  0.07237  1.0000
  C   C525      1.0  0.58849  0.26649  0.11544  1.0000
  C   C526      1.0  0.66313  0.28646  0.34398  1.0000
  Fe  Fe105     1.0  0.74494  0.35924  0.32853  1.0000
  H   H826      1.0  0.68994  0.28465  0.35496  1.0000
  S   S209      1.0  0.62522  0.22045  0.31225  1.0000
  H   H827      1.0  0.82750  0.36602  0.26600  1.0000
  S   S210      1.0  0.89653  0.36615  0.15804  1.0000
  H   H828      1.0  0.67484  0.27050  0.28432  1.0000
  H   H829      1.0  0.01743  0.36141  0.34574  1.0000
  H   H830      1.0  0.62440  0.32921  0.37516  1.0000
  H   H831      1.0  0.59616  0.27877  0.34095  1.0000
  C   C527      1.0  0.88722  0.37215  0.20070  1.0000
  S   S211      1.0  0.59810  0.36542  0.06842  1.0000
  H   H832      1.0  0.70149  0.25939  0.31798  1.0000
  C   C528      1.0  0.84971  0.37095  0.25231  1.0000
  H   H833      1.0  0.65973  0.36752  0.25335  1.0000
  H   H834      1.0  0.61371  0.36828  0.26335  1.0000
  C   C529      1.0  0.98985  0.36432  0.35471  1.0000
  H   H835      1.0  0.06101  0.37093  0.38917  1.0000
  H   H836      1.0  0.67266  0.37364  0.31428  1.0000
  Fe  Fe106     1.0  0.60557  0.21453  0.36636  1.0000
  H   H837      1.0  0.63272  0.26362  0.38725  1.0000
  H   H838      1.0  0.96157  0.37569  0.29323  1.0000
  H   H839      1.0  0.03500  0.34003  0.64131  1.0000
  C   C530      1.0  0.67421  0.33456  0.66266  1.0000
  C   C531      1.0  0.91182  0.36111  0.45330  1.0000
  H   H840      1.0  0.00557  0.28614  0.70524  1.0000
  C   C532      1.0  0.00566  0.30039  0.65572  1.0000
  H   H841      1.0  0.59057  0.32703  0.71575  1.0000
  H   H842      1.0  0.63385  0.23920  0.54245  1.0000
  H   H843      1.0  0.90391  0.36674  0.50713  1.0000
  H   H844      1.0  0.72500  0.32099  0.67177  1.0000
  N   N54       1.0  0.70149  0.35998  0.52143  1.0000
  H   H845      1.0  0.96950  0.34377  0.71384  1.0000
  C   C533      1.0  0.86007  0.35482  0.42304  1.0000
  S   S212      1.0  0.96276  0.36058  0.55621  1.0000
  Fe  Fe107     1.0  0.77771  0.36489  0.39740  1.0000
  C   C534      1.0  0.64687  0.34517  0.67697  1.0000
  C   C535      1.0  0.59716  0.26376  0.48850  1.0000
  C   C536      1.0  0.03456  0.32590  0.69111  1.0000
  C   C537      1.0  0.85581  0.36085  0.48391  1.0000
  N   N55       1.0  0.94487  0.36735  0.69017  1.0000
  C   C538      1.0  0.89186  0.36306  0.48387  1.0000
  S   S213      1.0  0.00564  0.31805  0.59259  1.0000
  C   C539      1.0  0.62705  0.22561  0.54259  1.0000
  S   S214      1.0  0.67139  0.32791  0.61996  1.0000
  S   S215      1.0  0.64146  0.21167  0.41164  1.0000
  S   S216      1.0  0.79433  0.35563  0.45163  1.0000
  H   H846      1.0  0.62402  0.34946  0.66177  1.0000
  S   S217      1.0  0.60360  0.32954  0.54521  1.0000
  H   H847      1.0  0.90625  0.34934  0.70129  1.0000
  C   C540      1.0  0.61102  0.27526  0.50993  1.0000
  C   C541      1.0  0.67840  0.21744  0.50808  1.0000
  C   C542      1.0  0.68127  0.21497  0.57064  1.0000
  H   H848      1.0  0.95038  0.34780  0.65258  1.0000
  S   S218      1.0  0.04297  0.36517  0.58317  1.0000
  C   C543      1.0  0.02610  0.31075  0.70940  1.0000
  S   S219      1.0  0.95671  0.36382  0.45154  1.0000
  C   C544      1.0  0.73737  0.35562  0.53457  1.0000
  Fe  Fe108     1.0  0.61755  0.33509  0.59921  1.0000
  H   H849      1.0  0.93290  0.36883  0.63569  1.0000
  C   C545      1.0  0.70585  0.33429  0.71695  1.0000
  C   C546      1.0  0.01182  0.29798  0.69150  1.0000
  H   H850      1.0  0.66288  0.21557  0.48470  1.0000
  H   H851      1.0  0.06062  0.36722  0.45326  1.0000
  H   H852      1.0  0.04664  0.33557  0.70427  1.0000
  H   H853      1.0  0.67592  0.37466  0.47862  1.0000
  C   C547      1.0  0.68585  0.34394  0.51417  1.0000
  H   H854      1.0  0.95253  0.33347  0.49418  1.0000
  H   H855      1.0  0.95016  0.28628  0.51306  1.0000
  C   C548      1.0  0.70270  0.37106  0.48906  1.0000
  C   C549      1.0  0.83977  0.35702  0.45319  1.0000
  Fe  Fe109     1.0  0.98386  0.36520  0.50228  1.0000
  C   C550      1.0  0.90925  0.36341  0.70141  1.0000
  C   C551      1.0  0.90133  0.31184  0.49251  1.0000
  C   C552      1.0  0.89592  0.35675  0.42311  1.0000
  N   N56       1.0  0.65876  0.21341  0.54044  1.0000
  C   C553      1.0  0.95188  0.36193  0.65435  1.0000
  H   H856      1.0  0.99799  0.36071  0.70598  1.0000
  H   H857      1.0  0.61146  0.22299  0.56663  1.0000
  H   H858      1.0  0.89042  0.31747  0.56043  1.0000
  H   H859      1.0  0.99473  0.29039  0.64211  1.0000
  H   H860      1.0  0.66737  0.21202  0.59557  1.0000
  N   N57       1.0  0.92816  0.31230  0.51945  1.0000
  H   H861      1.0  0.90532  0.33633  0.53806  1.0000
  H   H862      1.0  0.97015  0.31264  0.48155  1.0000
  C   C554      1.0  0.91365  0.32291  0.54784  1.0000
  H   H863      1.0  0.95888  0.29468  0.55418  1.0000
  H   H864      1.0  0.91602  0.28842  0.54562  1.0000
  H   H865      1.0  0.87733  0.30640  0.50336  1.0000
  H   H866      1.0  0.63907  0.27592  0.51085  1.0000
  H   H867      1.0  0.75021  0.36743  0.53986  1.0000
  H   H868      1.0  0.91131  0.30386  0.47075  1.0000
  H   H869      1.0  0.89327  0.32501  0.48102  1.0000
  H   H870      1.0  0.93341  0.32369  0.56841  1.0000
  S   S220      1.0  0.03131  0.34656  0.51037  1.0000
  C   C555      1.0  0.93870  0.29462  0.53366  1.0000
  H   H871      1.0  0.98035  0.31994  0.52316  1.0000
  C   C556      1.0  0.95913  0.31990  0.50388  1.0000
  H   H872      1.0  0.67818  0.36109  0.57261  1.0000
  S   S221      1.0  0.62587  0.25100  0.46273  1.0000
  C   C557      1.0  0.02813  0.32839  0.65526  1.0000
  Fe  Fe110     1.0  0.01270  0.34395  0.56580  1.0000
  C   C558      1.0  0.01374  0.31559  0.63749  1.0000
  C   C559      1.0  0.64922  0.35047  0.71098  1.0000
  H   H873      1.0  0.68395  0.33540  0.53822  1.0000
  H   H874      1.0  0.68974  0.22823  0.57137  1.0000
  H   H875      1.0  0.65896  0.34683  0.50366  1.0000
  C   C560      1.0  0.70380  0.32922  0.68264  1.0000
  H   H876      1.0  0.73722  0.34738  0.55917  1.0000
  Fe  Fe111     1.0  0.60177  0.23024  0.43611  1.0000
  C   C561      1.0  0.97089  0.35798  0.71378  1.0000
  H   H877      1.0  0.84017  0.36274  0.50726  1.0000
  H   H878      1.0  0.60969  0.22477  0.52000  1.0000
  C   C562      1.0  0.58877  0.28591  0.53036  1.0000
  H   H879      1.0  0.97849  0.36488  0.64511  1.0000
  H   H880      1.0  0.68500  0.23108  0.50635  1.0000
  H   H881      1.0  0.75422  0.34850  0.51530  1.0000
  H   H882      1.0  0.62850  0.35906  0.72147  1.0000
  Fe  Fe112     1.0  0.05663  0.36959  0.52641  1.0000
  H   H883      1.0  0.70172  0.33653  0.49464  1.0000
  H   H884      1.0  0.71856  0.36442  0.46842  1.0000
  H   H885      1.0  0.84827  0.35151  0.39952  1.0000
  H   H886      1.0  0.58977  0.31360  0.42249  1.0000
  H   H887      1.0  0.91127  0.35493  0.39955  1.0000
  H   H888      1.0  0.88896  0.37026  0.68408  1.0000
  H   H889      1.0  0.59982  0.29435  0.54756  1.0000
  S   S222      1.0  0.59643  0.36272  0.59418  1.0000
  C   C563      1.0  0.67997  0.36920  0.54795  1.0000
  S   S223      1.0  0.59348  0.37056  0.49231  1.0000
  H   H890      1.0  0.65276  0.37276  0.53877  1.0000
  N   N58       1.0  0.87478  0.36782  0.92009  1.0000
  S   S224      1.0  0.06302  0.36909  0.83765  1.0000
  C   C564      1.0  0.65405  0.34036  0.86563  1.0000
  N   N59       1.0  0.95487  0.27523  0.79689  1.0000
  H   H891      1.0  0.91440  0.29349  0.77548  1.0000
  S   S225      1.0  0.78363  0.35057  0.76538  1.0000
  H   H892      1.0  0.01061  0.37072  0.89398  1.0000
  Fe  Fe113     1.0  0.77310  0.33721  0.86333  1.0000
  S   S226      1.0  0.74855  0.36208  0.83948  1.0000
  S   S227      1.0  0.76605  0.33391  0.92126  1.0000
  Fe  Fe114     1.0  0.73438  0.34637  0.79579  1.0000
  S   S228      1.0  0.67962  0.35072  0.77462  1.0000
  C   C565      1.0  0.00259  0.36751  0.92040  1.0000
  S   S229      1.0  0.75491  0.32110  0.82181  1.0000
  H   H893      1.0  0.72849  0.32984  0.73243  1.0000
  C   C566      1.0  0.72863  0.32342  0.93313  1.0000
  C   C567      1.0  0.71718  0.31099  0.91229  1.0000
  C   C568      1.0  0.68623  0.30334  0.92092  1.0000
  C   C569      1.0  0.66602  0.30853  0.94975  1.0000
  C   C570      1.0  0.67781  0.32065  0.97114  1.0000
  C   C571      1.0  0.70937  0.32793  0.96304  1.0000
  H   H894      1.0  0.73236  0.30713  0.88968  1.0000
  H   H895      1.0  0.67739  0.29381  0.90454  1.0000
  H   H896      1.0  0.66248  0.32457  0.99369  1.0000
  H   H897      1.0  0.71830  0.33745  0.97942  1.0000
  H   H898      1.0  0.68301  0.34012  0.86216  1.0000
  H   H899      1.0  0.94205  0.25629  0.83685  1.0000
  H   H900      1.0  0.65018  0.34886  0.93304  1.0000
  Fe  Fe115     1.0  0.58853  0.31626  0.99143  1.0000
  C   C572      1.0  0.65520  0.25686  0.98462  1.0000
  H   H901      1.0  0.64650  0.37169  0.92394  1.0000
  H   H902      1.0  0.64865  0.32908  0.88322  1.0000
  H   H903      1.0  0.04687  0.37006  0.99728  1.0000
  Fe  Fe116     1.0  0.80567  0.32653  0.79503  1.0000
  C   C573      1.0  0.82795  0.26669  0.83359  1.0000
  Fe  Fe117     1.0  0.79992  0.36387  0.81169  1.0000
  Fe  Fe118     1.0  0.02128  0.36719  0.79840  1.0000
  H   H904      1.0  0.81960  0.29441  0.83450  1.0000
  C   C574      1.0  0.61909  0.23789  0.01798  1.0000
  H   H905      1.0  0.66822  0.26910  0.98383  1.0000
  C   C575      1.0  0.06977  0.37143  0.01377  1.0000
  C   C576      1.0  0.83839  0.28644  0.78432  1.0000
  H   H906      1.0  0.92845  0.27635  0.74794  1.0000
  H   H907      1.0  0.84686  0.34555  0.91269  1.0000
  H   H908      1.0  0.96665  0.36182  0.74096  1.0000
  H   H909      1.0  0.97813  0.25504  0.76571  1.0000
  H   H910      1.0  0.90626  0.27184  0.82418  1.0000
  C   C577      1.0  0.98572  0.26439  0.78445  1.0000
  N   N60       1.0  0.63905  0.35670  0.87980  1.0000
  S   S230      1.0  0.82595  0.34019  0.83910  1.0000
  H   H911      1.0  0.85648  0.27459  0.73734  1.0000
  H   H912      1.0  0.00638  0.33404  0.98104  1.0000
  S   S231      1.0  0.84066  0.30742  0.76623  1.0000
  H   H913      1.0  0.83385  0.22189  0.90534  1.0000
  H   H914      1.0  0.97408  0.35637  0.01553  1.0000
  H   H915      1.0  0.58213  0.35708  0.76495  1.0000
  H   H916      1.0  0.67586  0.24611  0.98093  1.0000
  H   H917      1.0  0.82991  0.35847  0.94705  1.0000
  H   H918      1.0  0.95592  0.29355  0.75310  1.0000
  H   H919      1.0  0.94348  0.29574  0.83151  1.0000
  C   C578      1.0  0.84873  0.27242  0.76426  1.0000
  H   H920      1.0  0.59539  0.34488  0.90378  1.0000
  C   C579      1.0  0.82756  0.28360  0.81888  1.0000
  C   C580      1.0  0.92634  0.37401  0.79945  1.0000
  Fe  Fe119     1.0  0.88107  0.21428  0.80349  1.0000
  C   C581      1.0  0.96617  0.28735  0.82170  1.0000
  H   H921      1.0  0.82613  0.21809  0.95116  1.0000
  S   S232      1.0  0.91690  0.22276  0.76067  1.0000
  N   N61       1.0  0.63563  0.25431  0.01765  1.0000
  S   S233      1.0  0.00782  0.21860  0.79430  1.0000
  S   S234      1.0  0.84282  0.23170  0.83304  1.0000
  S   S235      1.0  0.62541  0.30026  0.95749  1.0000
  C   C582      1.0  0.60096  0.35602  0.88573  1.0000
  C   C583      1.0  0.85460  0.35356  0.93381  1.0000
  H   H922      1.0  0.99922  0.25666  0.80627  1.0000
  H   H923      1.0  0.85549  0.24480  0.76285  1.0000
  H   H924      1.0  0.98503  0.29595  0.80928  1.0000
  C   C584      1.0  0.60820  0.26875  0.02106  1.0000
  Fe  Fe120     1.0  0.04835  0.34296  0.85705  1.0000
  H   H925      1.0  0.61982  0.28116  0.02383  1.0000
  S   S236      1.0  0.00410  0.34210  0.82027  1.0000
  Fe  Fe121     1.0  0.04468  0.33006  0.78432  1.0000
  C   C585      1.0  0.84858  0.25555  0.77880  1.0000
  H   H926      1.0  0.84480  0.37181  0.87329  1.0000
  C   C586      1.0  0.01170  0.35102  0.93557  1.0000
  H   H927      1.0  0.92067  0.25490  0.79636  1.0000
  C   C587      1.0  0.65595  0.35914  0.91313  1.0000
  S   S237      1.0  0.03298  0.30728  0.75447  1.0000
  C   C588      1.0  0.92990  0.26410  0.81441  1.0000
  C   C589      1.0  0.00041  0.34694  0.96956  1.0000
  C   C590      1.0  0.83901  0.25267  0.81368  1.0000
  S   S238      1.0  0.05825  0.35520  0.75938  1.0000
  C   C591      1.0  0.64529  0.37123  0.85480  1.0000
  H   H928      1.0  0.94287  0.36209  0.80132  1.0000
  H   H929      1.0  0.87892  0.36164  0.81022  1.0000
  C   C592      1.0  0.98209  0.35957  0.98911  1.0000
  C   C593      1.0  0.90687  0.36070  0.90215  1.0000
  H   H930      1.0  0.00522  0.27236  0.77120  1.0000
  H   H931      1.0  0.97933  0.28035  0.84454  1.0000
  H   H932      1.0  0.68501  0.35873  0.91016  1.0000
  C   C594      1.0  0.93771  0.28509  0.76701  1.0000
  H   H933      1.0  0.63751  0.25774  0.96187  1.0000
  S   S239      1.0  0.03916  0.33574  0.91362  1.0000
  H   H934      1.0  0.63359  0.36963  0.82906  1.0000
  H   H935      1.0  0.86999  0.34484  0.95292  1.0000
  H   H936      1.0  0.67379  0.37213  0.85002  1.0000
  H   H937      1.0  0.82031  0.26451  0.86054  1.0000
  H   H938      1.0  0.63892  0.22670  0.01512  1.0000
  H   H939      1.0  0.60003  0.23796  0.99653  1.0000
  H   H940      1.0  0.64313  0.33841  0.83974  1.0000
  H   H941      1.0  0.92249  0.37115  0.89119  1.0000
  H   H942      1.0  0.90073  0.36980  0.96860  1.0000
  H   H943      1.0  0.68066  0.24281  0.04570  1.0000
  H   H944      1.0  0.90047  0.35290  0.88016  1.0000
  C   C595      1.0  0.88999  0.37374  0.80442  1.0000
  H   H945      1.0  0.61231  0.32785  0.75638  1.0000
  H   H946      1.0  0.59101  0.27049  0.99791  1.0000
  H   H947      1.0  0.60462  0.23549  0.04291  1.0000
  C   C596      1.0  0.07485  0.21116  0.81553  1.0000
  H   H948      1.0  0.59104  0.26658  0.04411  1.0000
  H   H949      1.0  0.07716  0.34045  0.04800  1.0000
  H   H950      1.0  0.92418  0.35229  0.92023  1.0000
  H   H951      1.0  0.06032  0.37122  0.04126  1.0000
  C   C597      1.0  0.67845  0.34487  0.73122  1.0000
  H   H952      1.0  0.06255  0.33788  0.00485  1.0000
  H   H953      1.0  0.90313  0.36748  0.72828  1.0000
  S   S240      1.0  0.58952  0.31679  0.04956  1.0000
  H   H954      1.0  0.86884  0.21262  0.93264  1.0000
  C   C598      1.0  0.84022  0.21275  0.92808  1.0000
  H   H955      1.0  0.58715  0.35466  0.86106  1.0000
  H   H956      1.0  0.58896  0.36791  0.89760  1.0000
  C   C599      1.0  0.58790  0.32432  0.74435  1.0000
  H   H957      1.0  0.58693  0.31016  0.74909  1.0000
  C   C600      1.0  0.66007  0.25379  0.04700  1.0000
  H   H958      1.0  0.67333  0.26591  0.04733  1.0000
  H   H959      1.0  0.07859  0.22436  0.80721  1.0000
  H   H960      1.0  0.80339  0.44958  0.18911  1.0000
  C   C601      1.0  0.04820  0.43591  0.10426  1.0000
  Fe  Fe122     1.0  0.73491  0.39414  0.35848  1.0000
  H   H961      1.0  0.00535  0.38209  0.29566  1.0000
  H   H962      1.0  0.69009  0.50700  0.38090  1.0000
  H   H963      1.0  0.76714  0.40944  0.22508  1.0000
  C   C602      1.0  0.70889  0.43370  0.33253  1.0000
  C   C603      1.0  0.07524  0.44351  0.08590  1.0000
  C   C604      1.0  0.74466  0.43444  0.32567  1.0000
  H   H964      1.0  0.91256  0.39840  0.26138  1.0000
  S   S241      1.0  0.69438  0.41669  0.35877  1.0000
  H   H965      1.0  0.07386  0.38380  0.16268  1.0000
  H   H966      1.0  0.82230  0.52045  0.13915  1.0000
  S   S242      1.0  0.75438  0.38570  0.30663  1.0000
  H   H967      1.0  0.76631  0.43701  0.18916  1.0000
  S   S243      1.0  0.78826  0.39205  0.38160  1.0000
  H   H968      1.0  0.61019  0.39352  0.10875  1.0000
  H   H969      1.0  0.59788  0.54141  0.12584  1.0000
  H   H970      1.0  0.79179  0.51280  0.36301  1.0000
  H   H971      1.0  0.81223  0.51760  0.09447  1.0000
  H   H972      1.0  0.76345  0.42450  0.33661  1.0000
  C   C605      1.0  0.78853  0.41398  0.24033  1.0000
  H   H973      1.0  0.80453  0.40234  0.25108  1.0000
  H   H974      1.0  0.82748  0.43841  0.26212  1.0000
  C   C606      1.0  0.90680  0.38384  0.21628  1.0000
  H   H975      1.0  0.77638  0.42070  0.26284  1.0000
  S   S244      1.0  0.66169  0.50176  0.22329  1.0000
  C   C607      1.0  0.07282  0.46136  0.07870  1.0000
  Fe  Fe123     1.0  0.67909  0.53452  0.29089  1.0000
  H   H976      1.0  0.66150  0.40719  0.24211  1.0000
  H   H977      1.0  0.77834  0.52549  0.12393  1.0000
  Fe  Fe124     1.0  0.70490  0.50057  0.26173  1.0000
  S   S245      1.0  0.74730  0.47877  0.26698  1.0000
  H   H978      1.0  0.92844  0.39866  0.34805  1.0000
  S   S246      1.0  0.66907  0.50730  0.30640  1.0000
  H   H979      1.0  0.78401  0.44922  0.30118  1.0000
  S   S247      1.0  0.85642  0.39083  0.30804  1.0000
  C   C608      1.0  0.68472  0.44669  0.31864  1.0000
  H   H980      1.0  0.67756  0.47041  0.28702  1.0000
  C   C609      1.0  0.75629  0.44834  0.30542  1.0000
  H   H981      1.0  0.84283  0.42376  0.17274  1.0000
  H   H982      1.0  0.62914  0.38196  0.22859  1.0000
  C   C610      1.0  0.69636  0.46049  0.29802  1.0000
  H   H983      1.0  0.96846  0.39799  0.29687  1.0000
  C   C611      1.0  0.89782  0.38908  0.24977  1.0000
  Fe  Fe125     1.0  0.62656  0.51110  0.26683  1.0000
  Fe  Fe126     1.0  0.67189  0.52955  0.21422  1.0000
  S   S248      1.0  0.71852  0.52760  0.24908  1.0000
  C   C612      1.0  0.77268  0.52271  0.37199  1.0000
  C   C613      1.0  0.01859  0.44614  0.11514  1.0000
  H   H984      1.0  0.68929  0.45882  0.38603  1.0000
  C   C614      1.0  0.01682  0.46406  0.10911  1.0000
  C   C615      1.0  0.73219  0.46134  0.29154  1.0000
  H   H985      1.0  0.85874  0.53642  0.07470  1.0000
  H   H986      1.0  0.74799  0.46722  0.36810  1.0000
  C   C616      1.0  0.86912  0.38275  0.26769  1.0000
  H   H987      1.0  0.84239  0.40401  0.19876  1.0000
  N   N62       1.0  0.63906  0.38991  0.27983  1.0000
  S   S249      1.0  0.01470  0.39801  0.07606  1.0000
  C   C617      1.0  0.82582  0.41576  0.18939  1.0000
  H   H988      1.0  0.92264  0.37627  0.34559  1.0000
  C   C618      1.0  0.97805  0.38459  0.30578  1.0000
  N   N63       1.0  0.97648  0.38219  0.34410  1.0000
  H   H989      1.0  0.77565  0.44816  0.22695  1.0000
  C   C619      1.0  0.99832  0.39436  0.35967  1.0000
  H   H990      1.0  0.65698  0.44609  0.32376  1.0000
  C   C620      1.0  0.66768  0.40032  0.26766  1.0000
  H   H991      1.0  0.85489  0.41962  0.25158  1.0000
  H   H992      1.0  0.73012  0.48739  0.34826  1.0000
  C   C621      1.0  0.04396  0.47167  0.09094  1.0000
  S   S250      1.0  0.98256  0.43666  0.13385  1.0000
  C   C622      1.0  0.73917  0.48084  0.37336  1.0000
  S   S251      1.0  0.98926  0.38611  0.15582  1.0000
  H   H993      1.0  0.98855  0.40800  0.35296  1.0000
  S   S252      1.0  0.63336  0.53909  0.25486  1.0000
  Fe  Fe127     1.0  0.80700  0.38108  0.33132  1.0000
  C   C623      1.0  0.78791  0.44067  0.20535  1.0000
  H   H994      1.0  0.76251  0.48704  0.38143  1.0000
  H   H995      1.0  0.64944  0.39163  0.33418  1.0000
  C   C624      1.0  0.83830  0.43087  0.24010  1.0000
  Fe  Fe128     1.0  0.98121  0.40935  0.11876  1.0000
  C   C625      1.0  0.60609  0.40124  0.28176  1.0000
  H   H996      1.0  0.85576  0.43905  0.22446  1.0000
  H   H997      1.0  0.74383  0.52502  0.32419  1.0000
  H   H998      1.0  0.60819  0.41166  0.30004  1.0000
  N   N64       1.0  0.81014  0.42533  0.21877  1.0000
  H   H999      1.0  0.99415  0.47203  0.11791  1.0000
  S   S253      1.0  0.93121  0.40217  0.09681  1.0000
  H   H1000     1.0  0.80541  0.41140  0.17258  1.0000
  C   C626      1.0  0.58436  0.38952  0.15821  1.0000
  H   H1001     1.0  0.60986  0.52215  0.17757  1.0000
  H   H1002     1.0  0.92846  0.38905  0.20229  1.0000
  H   H1003     1.0  0.05030  0.42215  0.11004  1.0000
  H   H1004     1.0  0.67238  0.41018  0.28648  1.0000
  H   H1005     1.0  0.59886  0.40745  0.25582  1.0000
  C   C627      1.0  0.74558  0.52963  0.35000  1.0000
  C   C628      1.0  0.80651  0.52605  0.11663  1.0000
  H   H1006     1.0  0.59213  0.40131  0.16808  1.0000
  H   H1007     1.0  0.04261  0.48552  0.08655  1.0000
  C   C629      1.0  0.64731  0.38178  0.31465  1.0000
  C   C630      1.0  0.58125  0.52135  0.18156  1.0000
  H   H1008     1.0  0.69255  0.39204  0.26437  1.0000
  C   C631      1.0  0.93979  0.38544  0.35629  1.0000
  C   C632      1.0  0.68144  0.47276  0.38919  1.0000
  C   C633      1.0  0.59453  0.38514  0.12455  1.0000
  S   S254      1.0  0.67037  0.54061  0.15896  1.0000
  H   H1009     1.0  0.02605  0.39255  0.35035  1.0000
  H   H1010     1.0  0.58383  0.39386  0.29073  1.0000
  H   H1011     1.0  0.99849  0.39253  0.38860  1.0000
  H   H1012     1.0  0.67104  0.47835  0.36380  1.0000
  H   H1013     1.0  0.93772  0.38407  0.38518  1.0000
  H   H1014     1.0  0.86910  0.53906  0.11940  1.0000
  C   C634      1.0  0.63529  0.37633  0.25522  1.0000
  Fe  Fe129     1.0  0.94162  0.37788  0.13043  1.0000
  S   S255      1.0  0.94473  0.53665  0.52838  1.0000
  C   C635      1.0  0.77524  0.52864  0.40542  1.0000
  H   H1015     1.0  0.00937  0.53339  0.63695  1.0000
  H   H1016     1.0  0.70476  0.47400  0.45431  1.0000
  S   S256      1.0  0.07255  0.45832  0.62805  1.0000
  H   H1017     1.0  0.01010  0.48010  0.61268  1.0000
  Fe  Fe130     1.0  0.82385  0.53569  0.47516  1.0000
  H   H1018     1.0  0.00634  0.45128  0.66164  1.0000
  H   H1019     1.0  0.73444  0.45973  0.43029  1.0000
  H   H1020     1.0  0.97413  0.49638  0.60903  1.0000
  H   H1021     1.0  0.97429  0.38956  0.68346  1.0000
  S   S257      1.0  0.80829  0.51913  0.43299  1.0000
  H   H1022     1.0  0.65946  0.47359  0.40844  1.0000
  Fe  Fe131     1.0  0.06019  0.47685  0.67009  1.0000
  H   H1023     1.0  0.90191  0.52220  0.64565  1.0000
  C   C636      1.0  0.95627  0.52708  0.64538  1.0000
  S   S258      1.0  0.84547  0.52438  0.52622  1.0000
  H   H1024     1.0  0.03242  0.48917  0.55523  1.0000
  H   H1025     1.0  0.72088  0.50709  0.41530  1.0000
  C   C637      1.0  0.69936  0.50008  0.40555  1.0000
  H   H1026     1.0  0.99680  0.50570  0.55036  1.0000
  H   H1027     1.0  0.00470  0.49025  0.51779  1.0000
  C   C638      1.0  0.01390  0.44135  0.64406  1.0000
  C   C639      1.0  0.03193  0.41585  0.59707  1.0000
  C   C640      1.0  0.99123  0.42861  0.63911  1.0000
  C   C641      1.0  0.98463  0.53199  0.62498  1.0000
  H   H1028     1.0  0.74767  0.48009  0.44244  1.0000
  S   S259      1.0  0.97084  0.40064  0.60802  1.0000
  S   S260      1.0  0.01024  0.38852  0.51477  1.0000
  S   S261      1.0  0.96126  0.52160  0.68979  1.0000
  C   C642      1.0  0.00008  0.41596  0.61533  1.0000
  H   H1029     1.0  0.96654  0.42874  0.65322  1.0000
  C   C643      1.0  0.00488  0.49189  0.54629  1.0000
  H   H1030     1.0  0.05027  0.40767  0.68640  1.0000
  C   C644      1.0  0.72511  0.47353  0.43333  1.0000
  Fe  Fe132     1.0  0.99410  0.38205  0.56984  1.0000
  C   C645      1.0  0.98295  0.48290  0.60291  1.0000
  H   H1031     1.0  0.67745  0.50131  0.42484  1.0000
  H   H1032     1.0  0.03897  0.40610  0.57865  1.0000
  H   H1033     1.0  0.96607  0.47427  0.61817  1.0000
  H   H1034     1.0  0.59657  0.37679  0.41858  1.0000
  H   H1035     1.0  0.99040  0.45980  0.53038  1.0000
  C   C646      1.0  0.04544  0.44150  0.62526  1.0000
  H   H1036     1.0  0.94284  0.48318  0.52487  1.0000
  H   H1037     1.0  0.92661  0.47641  0.56710  1.0000
  H   H1038     1.0  0.97688  0.45318  0.57363  1.0000
  H   H1039     1.0  0.02063  0.45898  0.56541  1.0000
  C   C647      1.0  0.94864  0.53391  0.57357  1.0000
  H   H1040     1.0  0.93574  0.49841  0.55791  1.0000
  C   C648      1.0  0.99272  0.46232  0.55835  1.0000
  C   C649      1.0  0.94503  0.48477  0.55325  1.0000
  Fe  Fe133     1.0  0.01215  0.50547  0.69963  1.0000
  C   C650      1.0  0.92379  0.52618  0.63001  1.0000
  S   S262      1.0  0.01354  0.47659  0.70581  1.0000
  N   N65       1.0  0.98136  0.48047  0.56520  1.0000
  H   H1041     1.0  0.01770  0.41642  0.71631  1.0000
  H   H1042     1.0  0.69109  0.38132  0.55430  1.0000
  C   C651      1.0  0.05455  0.42862  0.60202  1.0000
  C   C652      1.0  0.07693  0.43240  0.72018  1.0000
  H   H1043     1.0  0.71471  0.38321  0.49340  1.0000
  H   H1044     1.0  0.05280  0.44143  0.72153  1.0000
  C   C653      1.0  0.98095  0.53521  0.58902  1.0000
  C   C654      1.0  0.04292  0.40818  0.71447  1.0000
  H   H1045     1.0  0.94182  0.39077  0.71760  1.0000
  H   H1046     1.0  0.92887  0.39359  0.67299  1.0000
  H   H1047     1.0  0.03785  0.39494  0.72435  1.0000
  C   C655      1.0  0.91986  0.52978  0.59419  1.0000
  S   S263      1.0  0.05591  0.50557  0.66024  1.0000
  C   C656      1.0  0.94758  0.38612  0.69116  1.0000
  N   N66       1.0  0.71124  0.48181  0.40033  1.0000
  H   H1048     1.0  0.89481  0.52875  0.58245  1.0000
  H   H1049     1.0  0.07886  0.42869  0.58726  1.0000
  H   H1050     1.0  0.00319  0.53858  0.57322  1.0000
  C   C657      1.0  0.75077  0.54161  0.41670  1.0000
  Fe  Fe134     1.0  0.88781  0.54209  0.51604  1.0000
  Fe  Fe135     1.0  0.96535  0.38868  0.05706  1.0000
  H   H1051     1.0  0.92986  0.46328  0.01970  1.0000
  H   H1052     1.0  0.02663  0.45546  0.02467  1.0000
  Fe  Fe136     1.0  0.02636  0.49894  0.96152  1.0000
  S   S264      1.0  0.98560  0.39036  0.78117  1.0000
  H   H1053     1.0  0.07083  0.45115  0.86625  1.0000
  H   H1054     1.0  0.03109  0.44069  0.99043  1.0000
  H   H1055     1.0  0.96653  0.45550  0.94992  1.0000
  S   S265      1.0  0.82270  0.38943  0.80816  1.0000
  H   H1056     1.0  0.97777  0.39299  0.92827  1.0000
  C   C658      1.0  0.86814  0.38913  0.80158  1.0000
  C   C659      1.0  0.88268  0.40471  0.79368  1.0000
  C   C660      1.0  0.91881  0.40493  0.78799  1.0000
  C   C661      1.0  0.94077  0.38962  0.79094  1.0000
  H   H1057     1.0  0.86587  0.41665  0.79151  1.0000
  H   H1058     1.0  0.92971  0.41704  0.78132  1.0000
  C   C662      1.0  0.98394  0.38012  0.93984  1.0000
  H   H1059     1.0  0.98883  0.42277  0.02126  1.0000
  C   C663      1.0  0.97419  0.43482  0.02972  1.0000
  H   H1060     1.0  0.96827  0.46866  0.04135  1.0000
  C   C664      1.0  0.05915  0.41599  0.77140  1.0000
  H   H1061     1.0  0.63409  0.38378  0.86442  1.0000
  H   H1062     1.0  0.96768  0.52811  0.01023  1.0000
  C   C665      1.0  0.01532  0.45226  0.99969  1.0000
  Fe  Fe137     1.0  0.05219  0.47874  0.74776  1.0000
  S   S266      1.0  0.95433  0.39268  0.99956  1.0000
  H   H1063     1.0  0.93578  0.44272  0.97251  1.0000
  S   S267      1.0  0.04606  0.50769  0.74579  1.0000
  H   H1064     1.0  0.98430  0.43757  0.05552  1.0000
  H   H1065     1.0  0.03416  0.42435  0.77398  1.0000
  S   S268      1.0  0.02294  0.50021  0.01939  1.0000
  Fe  Fe138     1.0  0.03972  0.52693  0.00977  1.0000
  H   H1066     1.0  0.05476  0.40305  0.78343  1.0000
  C   C666      1.0  0.99298  0.48651  0.85912  1.0000
  H   H1067     1.0  0.01899  0.46321  0.98059  1.0000
  N   N67       1.0  0.97791  0.44929  0.00390  1.0000
  C   C667      1.0  0.00535  0.48035  0.89188  1.0000
  H   H1068     1.0  0.90019  0.38871  0.93988  1.0000
  H   H1069     1.0  0.94633  0.43210  0.03350  1.0000
  H   H1070     1.0  0.97115  0.49633  0.85715  1.0000
  C   C668      1.0  0.96400  0.44496  0.97025  1.0000
  C   C669      1.0  0.03357  0.46767  0.89439  1.0000
  H   H1071     1.0  0.90361  0.53233  0.00128  1.0000
  C   C670      1.0  0.04917  0.46104  0.86420  1.0000
  S   S269      1.0  0.03766  0.52636  0.95186  1.0000
  H   H1072     1.0  0.00018  0.48534  0.80357  1.0000
  S   S270      1.0  0.98572  0.48857  0.92965  1.0000
  C   C671      1.0  0.03736  0.46750  0.83143  1.0000
  C   C672      1.0  0.00937  0.48030  0.82885  1.0000
  H   H1073     1.0  0.97819  0.43302  0.96057  1.0000
  H   H1074     1.0  0.04313  0.46281  0.91959  1.0000
  N   N68       1.0  0.07056  0.41498  0.73463  1.0000
  C   C673      1.0  0.95818  0.46506  0.01606  1.0000
  H   H1075     1.0  0.07894  0.42153  0.78720  1.0000
  H   H1076     1.0  0.82875  0.38490  0.90779  1.0000
  C   C674      1.0  0.95362  0.54035  0.01534  1.0000
  S   S271      1.0  0.05946  0.46017  0.79417  1.0000
  H   H1077     1.0  0.86754  0.38986  0.88371  1.0000
  H   H1078     1.0  0.96032  0.47623  0.99704  1.0000
  H   H1079     1.0  0.86104  0.38366  0.96315  1.0000
  C   C675      1.0  0.85307  0.37911  0.89524  1.0000
  C   C676      1.0  0.97462  0.37631  0.97458  1.0000
  H   H1080     1.0  0.07668  0.49443  0.84151  1.0000
  C   C677      1.0  0.88455  0.37795  0.94916  1.0000
  H   H1081     1.0  0.07876  0.38440  0.00719  1.0000
  H   H1082     1.0  0.73917  0.58608  0.19641  1.0000
  H   H1083     1.0  0.00732  0.61292  0.10821  1.0000
  S   S272      1.0  0.03937  0.65595  0.19509  1.0000
  C   C678      1.0  0.85184  0.54421  0.09765  1.0000
  C   C679      1.0  0.69503  0.55844  0.15218  1.0000
  C   C680      1.0  0.70830  0.56621  0.18035  1.0000
  C   C681      1.0  0.72882  0.58014  0.17454  1.0000
  C   C682      1.0  0.73656  0.58619  0.14059  1.0000
  C   C683      1.0  0.72290  0.57857  0.11241  1.0000
  C   C684      1.0  0.70198  0.56477  0.11822  1.0000
  H   H1084     1.0  0.70266  0.56157  0.20664  1.0000
  H   H1085     1.0  0.95726  0.57520  0.12664  1.0000
  H   H1086     1.0  0.75711  0.59148  0.34051  1.0000
  H   H1087     1.0  0.85301  0.59044  0.35497  1.0000
  H   H1088     1.0  0.82319  0.56582  0.33621  1.0000
  S   S273      1.0  0.02802  0.70227  0.22833  1.0000
  H   H1089     1.0  0.77923  0.60919  0.35463  1.0000
  C   C685      1.0  0.03291  0.64947  0.38040  1.0000
  H   H1090     1.0  0.06857  0.62362  0.09600  1.0000
  H   H1091     1.0  0.59882  0.55379  0.18326  1.0000
  C   C686      1.0  0.72130  0.54271  0.36121  1.0000
  H   H1092     1.0  0.85847  0.55756  0.09032  1.0000
  S   S274      1.0  0.76490  0.60261  0.13438  1.0000
  H   H1093     1.0  0.98403  0.64575  0.15093  1.0000
  H   H1094     1.0  0.99093  0.56687  0.09760  1.0000
  H   H1095     1.0  0.05333  0.57091  0.14151  1.0000
  H   H1096     1.0  0.97142  0.59553  0.17040  1.0000
  C   C687      1.0  0.79272  0.55082  0.07739  1.0000
  Fe  Fe139     1.0  0.03692  0.67361  0.23921  1.0000
  N   N69       1.0  0.80190  0.58409  0.37262  1.0000
  H   H1097     1.0  0.07303  0.62906  0.15850  1.0000
  C   C688      1.0  0.83654  0.59013  0.37904  1.0000
  H   H1098     1.0  0.04920  0.57794  0.09646  1.0000
  C   C689      1.0  0.96045  0.64009  0.14457  1.0000
  C   C690      1.0  0.04365  0.58190  0.12351  1.0000
  H   H1099     1.0  0.79738  0.56444  0.07026  1.0000
  H   H1100     1.0  0.02055  0.67053  0.34273  1.0000
  H   H1101     1.0  0.96533  0.60465  0.10673  1.0000
  N   N70       1.0  0.81436  0.54395  0.10724  1.0000
  C   C691      1.0  0.99983  0.59238  0.16493  1.0000
  H   H1102     1.0  0.99311  0.69012  0.38623  1.0000
  Fe  Fe140     1.0  0.04630  0.64452  0.29456  1.0000
  N   N71       1.0  0.00590  0.58679  0.12911  1.0000
  C   C692      1.0  0.91234  0.62326  0.16153  1.0000
  C   C693      1.0  0.91717  0.63465  0.10187  1.0000
  H   H1103     1.0  0.77847  0.55429  0.14585  1.0000
  C   C694      1.0  0.94759  0.64212  0.11046  1.0000
  S   S275      1.0  0.95972  0.62616  0.21220  1.0000
  S   S276      1.0  0.04923  0.62423  0.25542  1.0000
  H   H1104     1.0  0.79835  0.59612  0.32099  1.0000
  Fe  Fe141     1.0  0.00475  0.64026  0.22920  1.0000
  Fe  Fe142     1.0  0.79071  0.60641  0.08186  1.0000
  H   H1105     1.0  0.72828  0.58336  0.08619  1.0000
  S   S277      1.0  0.99845  0.65914  0.27131  1.0000
  C   C695      1.0  0.78336  0.59575  0.34601  1.0000
  C   C696      1.0  0.98599  0.57178  0.12394  1.0000
  H   H1106     1.0  0.81024  0.56854  0.13057  1.0000
  C   C697      1.0  0.89937  0.62541  0.12762  1.0000
  C   C698      1.0  0.80662  0.56642  0.36019  1.0000
  H   H1107     1.0  0.99348  0.56092  0.14310  1.0000
  H   H1108     1.0  0.87550  0.61995  0.12152  1.0000
  C   C699      1.0  0.01923  0.66615  0.36983  1.0000
  H   H1109     1.0  0.69144  0.55890  0.09637  1.0000
  H   H1110     1.0  0.07509  0.67721  0.07778  1.0000
  H   H1111     1.0  0.96136  0.64936  0.09066  1.0000
  H   H1112     1.0  0.89854  0.61596  0.18122  1.0000
  C   C700      1.0  0.80624  0.55474  0.13720  1.0000
  C   C701      1.0  0.99401  0.60110  0.10407  1.0000
  S   S278      1.0  0.05391  0.63556  0.35079  1.0000
  C   C702      1.0  0.94291  0.63054  0.17011  1.0000
  H   H1113     1.0  0.83394  0.60337  0.38887  1.0000
  H   H1114     1.0  0.05949  0.59281  0.12800  1.0000
  H   H1115     1.0  0.81923  0.55709  0.38021  1.0000
  H   H1116     1.0  0.00961  0.58221  0.18468  1.0000
  H   H1117     1.0  0.78106  0.56174  0.35387  1.0000
  H   H1118     1.0  0.82292  0.55039  0.15988  1.0000
  H   H1119     1.0  0.01311  0.60419  0.16943  1.0000
  S   S279      1.0  0.68818  0.55196  0.33357  1.0000
  H   H1120     1.0  0.76429  0.55046  0.08326  1.0000
  S   S280      1.0  0.84700  0.59600  0.07871  1.0000
  H   H1121     1.0  0.99927  0.59763  0.07675  1.0000
  S   S281      1.0  0.80081  0.63256  0.05831  1.0000
  S   S282      1.0  0.90291  0.63601  0.05856  1.0000
  S   S283      1.0  0.79009  0.55732  0.49836  1.0000
  C   C703      1.0  0.72388  0.54867  0.39458  1.0000
  S   S284      1.0  0.98602  0.64616  0.60238  1.0000
  H   H1122     1.0  0.78334  0.57819  0.55992  1.0000
  C   C704      1.0  0.90648  0.56788  0.66063  1.0000
  S   S285      1.0  0.88832  0.64311  0.58523  1.0000
  C   C705      1.0  0.83981  0.60857  0.53416  1.0000
  H   H1123     1.0  0.82452  0.59790  0.54078  1.0000
  H   H1124     1.0  0.76578  0.68109  0.64946  1.0000
  H   H1125     1.0  0.95523  0.61462  0.47107  1.0000
  S   S286      1.0  0.74057  0.62286  0.63682  1.0000
  H   H1126     1.0  0.84480  0.61506  0.58733  1.0000
  Fe  Fe143     1.0  0.73605  0.63074  0.69195  1.0000
  C   C706      1.0  0.75209  0.60132  0.62782  1.0000
  C   C707      1.0  0.75003  0.58783  0.65312  1.0000
  C   C708      1.0  0.75989  0.57074  0.64455  1.0000
  C   C709      1.0  0.77256  0.56728  0.61102  1.0000
  C   C710      1.0  0.76383  0.59774  0.59420  1.0000
  H   H1127     1.0  0.74057  0.59056  0.67905  1.0000
  H   H1128     1.0  0.75812  0.56026  0.66395  1.0000
  H   H1129     1.0  0.79382  0.57505  0.42565  1.0000
  C   C711      1.0  0.77423  0.58079  0.58590  1.0000
  H   H1130     1.0  0.76514  0.60814  0.57451  1.0000
  H   H1131     1.0  0.80831  0.68684  0.63669  1.0000
  H   H1132     1.0  0.85111  0.58159  0.39908  1.0000
  H   H1133     1.0  0.98906  0.70387  0.69712  1.0000
  N   N72       1.0  0.86827  0.57035  0.66699  1.0000
  H   H1134     1.0  0.81664  0.65884  0.56102  1.0000
  C   C712      1.0  0.78329  0.68305  0.62650  1.0000
  H   H1135     1.0  0.83813  0.67394  0.58454  1.0000
  H   H1136     1.0  0.78954  0.65046  0.65312  1.0000
  H   H1137     1.0  0.75862  0.65011  0.58095  1.0000
  H   H1138     1.0  0.82396  0.58653  0.64707  1.0000
  N   N73       1.0  0.78910  0.66725  0.60691  1.0000
  C   C713      1.0  0.80597  0.65311  0.62969  1.0000
  C   C714      1.0  0.81202  0.67050  0.57645  1.0000
  S   S287      1.0  0.72062  0.65913  0.69193  1.0000
  S   S288      1.0  0.01100  0.69149  0.62804  1.0000
  C   C715      1.0  0.75519  0.66230  0.59495  1.0000
  H   H1139     1.0  0.81028  0.64090  0.61596  1.0000
  S   S289      1.0  0.04873  0.61461  0.54708  1.0000
  H   H1140     1.0  0.75200  0.54595  0.44271  1.0000
  H   H1141     1.0  0.87265  0.63033  0.46378  1.0000
  H   H1142     1.0  0.91337  0.59226  0.47908  1.0000
  H   H1143     1.0  0.01622  0.65079  0.46719  1.0000
  H   H1144     1.0  0.92938  0.60845  0.52921  1.0000
  C   C716      1.0  0.97670  0.60436  0.47734  1.0000
  C   C717      1.0  0.99385  0.57756  0.50963  1.0000
  H   H1145     1.0  0.01595  0.58331  0.52170  1.0000
  H   H1146     1.0  0.98550  0.56712  0.52803  1.0000
  H   H1147     1.0  0.97244  0.60463  0.54716  1.0000
  H   H1148     1.0  0.86476  0.54337  0.68039  1.0000
  H   H1149     1.0  0.99856  0.61065  0.48854  1.0000
  H   H1150     1.0  0.92586  0.57241  0.50334  1.0000
  C   C718      1.0  0.85103  0.61840  0.56044  1.0000
  N   N74       1.0  0.96449  0.59074  0.50167  1.0000
  C   C719      1.0  0.03144  0.64394  0.41554  1.0000
  C   C720      1.0  0.93587  0.58263  0.48557  1.0000
  S   S290      1.0  0.96704  0.64366  0.51987  1.0000
  S   S291      1.0  0.86919  0.55139  0.46306  1.0000
  H   H1151     1.0  0.95196  0.69287  0.68672  1.0000
  S   S292      1.0  0.78867  0.54635  0.60085  1.0000
  C   C721      1.0  0.85250  0.58382  0.64201  1.0000
  C   C722      1.0  0.86656  0.62699  0.49072  1.0000
  C   C723      1.0  0.84813  0.61263  0.49938  1.0000
  H   H1152     1.0  0.77103  0.69409  0.61013  1.0000
  H   H1153     1.0  0.00413  0.57136  0.48573  1.0000
  Fe  Fe144     1.0  0.01457  0.63933  0.55309  1.0000
  S   S293      1.0  0.86003  0.56414  0.54263  1.0000
  C   C724      1.0  0.03966  0.70647  0.61204  1.0000
  S   S294      1.0  0.83789  0.59903  0.46708  1.0000
  C   C725      1.0  0.87105  0.63218  0.55196  1.0000
  C   C726      1.0  0.85284  0.55393  0.66252  1.0000
  H   H1154     1.0  0.87232  0.58813  0.70717  1.0000
  C   C727      1.0  0.06115  0.70309  0.58307  1.0000
  C   C728      1.0  0.87806  0.63677  0.51705  1.0000
  Fe  Fe145     1.0  0.83736  0.57207  0.49049  1.0000
  H   H1155     1.0  0.73704  0.65992  0.61720  1.0000
  C   C729      1.0  0.00244  0.67169  0.42963  1.0000
  C   C730      1.0  0.86126  0.57572  0.70284  1.0000
  H   H1156     1.0  0.94474  0.57649  0.46117  1.0000
  H   H1157     1.0  0.83188  0.65628  0.63886  1.0000
  C   C731      1.0  0.78106  0.58407  0.40528  1.0000
  H   H1158     1.0  0.91916  0.57994  0.66408  1.0000
  H   H1159     1.0  0.74190  0.67250  0.57724  1.0000
  Fe  Fe146     1.0  0.93960  0.65267  0.56813  1.0000
  H   H1160     1.0  0.85657  0.54971  0.63545  1.0000
  S   S295      1.0  0.80255  0.67983  0.71670  1.0000
  H   H1161     1.0  0.85554  0.57983  0.61474  1.0000
  H   H1162     1.0  0.87287  0.56586  0.72239  1.0000
  H   H1163     1.0  0.83258  0.57759  0.70849  1.0000
  S   S296      1.0  0.03152  0.66581  0.54123  1.0000
  H   H1164     1.0  0.07565  0.59196  0.61017  1.0000
  H   H1165     1.0  0.86450  0.59622  0.64366  1.0000
  H   H1166     1.0  0.07022  0.57244  0.63610  1.0000
  H   H1167     1.0  0.04195  0.63104  0.42377  1.0000
  H   H1168     1.0  0.06889  0.59275  0.65629  1.0000
  C   C732      1.0  0.95149  0.59841  0.53422  1.0000
  Fe  Fe147     1.0  0.98153  0.67081  0.51220  1.0000
  H   H1169     1.0  0.06211  0.69077  0.57182  1.0000
  Fe  Fe148     1.0  0.81560  0.54744  0.54858  1.0000
  Fe  Fe149     1.0  0.99847  0.67323  0.58777  1.0000
  S   S297      1.0  0.94941  0.68038  0.55751  1.0000
  H   H1170     1.0  0.94180  0.58849  0.55301  1.0000
  H   H1171     1.0  0.80037  0.68120  0.55884  1.0000
  S   S298      1.0  0.98343  0.68547  0.46062  1.0000
  H   H1172     1.0  0.89234  0.64784  0.51030  1.0000
  C   C733      1.0  0.01650  0.65506  0.44011  1.0000
  H   H1173     1.0  0.91917  0.55765  0.67887  1.0000
  H   H1174     1.0  0.91255  0.56385  0.63374  1.0000
  H   H1175     1.0  0.82417  0.55511  0.66791  1.0000
  C   C734      1.0  0.00393  0.67727  0.39448  1.0000
  C   C735      1.0  0.96280  0.70058  0.70681  1.0000
  H   H1176     1.0  0.98639  0.59905  0.45236  1.0000
  H   H1177     1.0  0.89230  0.70361  0.70805  1.0000
  H   H1178     1.0  0.75437  0.58007  0.40127  1.0000
  H   H1179     1.0  0.77802  0.59709  0.41610  1.0000
  H   H1180     1.0  0.70482  0.55864  0.40345  1.0000
  H   H1181     1.0  0.87259  0.65321  0.98779  1.0000
  Fe  Fe150     1.0  0.79072  0.62127  0.00741  1.0000
  C   C736      1.0  0.74981  0.64077  0.89686  1.0000
  H   H1182     1.0  0.59663  0.63249  0.82026  1.0000
  H   H1183     1.0  0.83298  0.64294  0.94459  1.0000
  C   C737      1.0  0.60933  0.62758  0.84512  1.0000
  S   S299      1.0  0.75872  0.60927  0.81602  1.0000
  S   S300      1.0  0.75990  0.63774  0.96679  1.0000
  C   C738      1.0  0.59977  0.65522  0.75097  1.0000
  C   C739      1.0  0.77209  0.60637  0.88596  1.0000
  C   C740      1.0  0.77237  0.61248  0.91963  1.0000
  C   C741      1.0  0.76082  0.62966  0.92511  1.0000
  H   H1184     1.0  0.79898  0.54340  0.05384  1.0000
  H   H1185     1.0  0.78099  0.60382  0.94136  1.0000
  N   N75       1.0  0.64655  0.62148  0.83949  1.0000
  H   H1186     1.0  0.59412  0.61705  0.85635  1.0000
  H   H1187     1.0  0.90775  0.70353  0.75178  1.0000
  C   C742      1.0  0.05777  0.59126  0.99164  1.0000
  H   H1188     1.0  0.66493  0.64669  0.84191  1.0000
  H   H1189     1.0  0.03754  0.58428  0.00624  1.0000
  C   C743      1.0  0.66263  0.61522  0.87299  1.0000
  H   H1190     1.0  0.74250  0.64360  0.84185  1.0000
  C   C744      1.0  0.76112  0.61751  0.85760  1.0000
  H   H1191     1.0  0.81020  0.65804  0.91438  1.0000
  H   H1192     1.0  0.81727  0.68926  0.91582  1.0000
  Fe  Fe151     1.0  0.74566  0.62804  0.77027  1.0000
  C   C745      1.0  0.75051  0.63479  0.86321  1.0000
  H   H1193     1.0  0.78037  0.59298  0.88192  1.0000
  H   H1194     1.0  0.60651  0.63832  0.86310  1.0000
  C   C746      1.0  0.87316  0.66543  0.97131  1.0000
  H   H1195     1.0  0.80906  0.65966  0.99428  1.0000
  S   S301      1.0  0.77571  0.59607  0.03153  1.0000
  H   H1196     1.0  0.89614  0.66384  0.95336  1.0000
  C   C747      1.0  0.64914  0.60731  0.81535  1.0000
  H   H1197     1.0  0.87783  0.67577  0.98903  1.0000
  H   H1198     1.0  0.85674  0.65341  0.91008  1.0000
  C   C748      1.0  0.81180  0.68917  0.75541  1.0000
  C   C749      1.0  0.81500  0.68797  0.81842  1.0000
  C   C750      1.0  0.97140  0.55374  0.02722  1.0000
  C   C751      1.0  0.80836  0.68015  0.78756  1.0000
  H   H1199     1.0  0.64875  0.60457  0.88568  1.0000
  H   H1200     1.0  0.86360  0.68471  0.91086  1.0000
  H   H1201     1.0  0.80081  0.66711  0.78869  1.0000
  H   H1202     1.0  0.63743  0.61164  0.78975  1.0000
  H   H1203     1.0  0.81197  0.68104  0.84324  1.0000
  S   S302      1.0  0.73177  0.65637  0.77544  1.0000
  H   H1204     1.0  0.05506  0.55922  0.97246  1.0000
  C   C752      1.0  0.84194  0.68575  0.93048  1.0000
  H   H1205     1.0  0.96675  0.69206  0.73083  1.0000
  C   C753      1.0  0.66535  0.63585  0.82427  1.0000
  H   H1206     1.0  0.84615  0.69678  0.94658  1.0000
  H   H1207     1.0  0.65361  0.64110  0.79933  1.0000
  H   H1208     1.0  0.74103  0.65410  0.90094  1.0000
  H   H1209     1.0  0.69315  0.63150  0.81867  1.0000
  C   C754      1.0  0.82521  0.70478  0.81706  1.0000
  H   H1210     1.0  0.04497  0.59809  0.96846  1.0000
  C   C755      1.0  0.81059  0.67153  0.97704  1.0000
  S   S303      1.0  0.01650  0.55065  0.03529  1.0000
  N   N76       1.0  0.84018  0.66953  0.95202  1.0000
  H   H1211     1.0  0.96665  0.58022  0.04129  1.0000
  H   H1212     1.0  0.90294  0.58453  0.03175  1.0000
  C   C756      1.0  0.89886  0.55860  0.01659  1.0000
  H   H1213     1.0  0.69055  0.61022  0.86930  1.0000
  H   H1214     1.0  0.81315  0.68240  0.99405  1.0000
  C   C757      1.0  0.83491  0.65536  0.92925  1.0000
  H   H1215     1.0  0.67703  0.60254  0.81038  1.0000
  S   S304      1.0  0.84695  0.61208  0.99781  1.0000
  C   C758      1.0  0.91733  0.54274  0.01026  1.0000
  S   S305      1.0  0.85327  0.56127  0.01181  1.0000
  H   H1216     1.0  0.06421  0.57253  0.93458  1.0000
  C   C759      1.0  0.95299  0.56967  0.03307  1.0000
  H   H1217     1.0  0.66229  0.62572  0.89147  1.0000
  H   H1218     1.0  0.63532  0.59617  0.82594  1.0000
  Fe  Fe152     1.0  0.83311  0.58779  0.02647  1.0000
  H   H1219     1.0  0.78506  0.67395  0.96347  1.0000
  Fe  Fe153     1.0  0.85602  0.62122  0.05081  1.0000
  C   C760      1.0  0.91681  0.57211  0.02766  1.0000
  H   H1220     1.0  0.06601  0.60124  0.00855  1.0000
  S   S306      1.0  0.63609  0.66740  0.74820  1.0000
  C   C761      1.0  0.82244  0.70587  0.75407  1.0000
  S   S307      1.0  0.69996  0.62425  0.73642  1.0000
  C   C762      1.0  0.60231  0.63807  0.74152  1.0000
  Fe  Fe154     1.0  0.68850  0.65291  0.73893  1.0000
  C   C763      1.0  0.07565  0.56638  0.95905  1.0000
  Fe  Fe155     1.0  0.76538  0.65956  0.72787  1.0000
  H   H1221     1.0  0.62650  0.63233  0.73080  1.0000
  S   S308      1.0  0.78311  0.63153  0.72525  1.0000
  H   H1222     1.0  0.04351  0.74103  0.24026  1.0000
  H   H1223     1.0  0.03955  0.79284  0.19651  1.0000
  C   C764      1.0  0.05532  0.70977  0.19500  1.0000
  Fe  Fe156     1.0  0.06004  0.79446  0.08269  1.0000
  C   C765      1.0  0.02713  0.75218  0.22791  1.0000
  H   H1224     1.0  0.01492  0.77739  0.17751  1.0000
  H   H1225     1.0  0.00205  0.78543  0.21911  1.0000
  H   H1226     1.0  0.06835  0.75778  0.17174  1.0000
  Fe  Fe157     1.0  0.01516  0.85637  0.31125  1.0000
  S   S309      1.0  0.97136  0.87138  0.28118  1.0000
  S   S310      1.0  0.04063  0.76949  0.10273  1.0000
  H   H1227     1.0  0.05007  0.73323  0.11777  1.0000
  H   H1228     1.0  0.03918  0.77724  0.27062  1.0000
  C   C766      1.0  0.05241  0.82960  0.17667  1.0000
  S   S311      1.0  0.02580  0.85669  0.36841  1.0000
  H   H1229     1.0  0.95333  0.87244  0.35481  1.0000
  H   H1230     1.0  0.05474  0.83757  0.22919  1.0000
  C   C767      1.0  0.07748  0.76197  0.19684  1.0000
  H   H1231     1.0  0.02917  0.83810  0.17046  1.0000
  H   H1232     1.0  0.07810  0.76273  0.26649  1.0000
  N   N77       1.0  0.04765  0.76713  0.21999  1.0000
  C   C768      1.0  0.02503  0.78129  0.20254  1.0000
  H   H1233     1.0  0.67436  0.86222  0.34033  1.0000
  S   S312      1.0  0.02517  0.82757  0.30887  1.0000
  H   H1234     1.0  0.01232  0.71980  0.16239  1.0000
  H   H1235     1.0  0.61840  0.86171  0.30830  1.0000
  C   C769      1.0  0.04045  0.71872  0.16561  1.0000
  S   S313      1.0  0.06985  0.86142  0.29438  1.0000
  Fe  Fe158     1.0  0.04030  0.82821  0.36474  1.0000
  H   H1236     1.0  0.01617  0.74759  0.20389  1.0000
  H   H1237     1.0  0.00474  0.75544  0.24586  1.0000
  C   C770      1.0  0.06686  0.82930  0.20989  1.0000
  C   C771      1.0  0.06177  0.72651  0.14056  1.0000
  C   C772      1.0  0.06098  0.77309  0.25259  1.0000
  H   H1238     1.0  0.67349  0.86908  0.27739  1.0000
  H   H1239     1.0  0.07667  0.78435  0.24747  1.0000
  C   C773      1.0  0.06737  0.81865  0.15176  1.0000
  S   S314      1.0  0.04782  0.81871  0.11104  1.0000
  C   C774      1.0  0.61259  0.87566  0.31288  1.0000
  H   H1240     1.0  0.02637  0.70981  0.51343  1.0000
  C   C775      1.0  0.97638  0.82153  0.68505  1.0000
  H   H1241     1.0  0.99480  0.84492  0.49596  1.0000
  C   C776      1.0  0.92516  0.83600  0.65708  1.0000
  C   C777      1.0  0.98380  0.74859  0.48826  1.0000
  H   H1242     1.0  0.98929  0.80917  0.62212  1.0000
  C   C778      1.0  0.59997  0.85658  0.71600  1.0000
  H   H1243     1.0  0.00348  0.81531  0.68168  1.0000
  C   C779      1.0  0.04592  0.74158  0.49512  1.0000
  C   C780      1.0  0.02395  0.81168  0.44614  1.0000
  C   C781      1.0  0.00645  0.83232  0.48947  1.0000
  H   H1244     1.0  0.92376  0.84644  0.67576  1.0000
  C   C782      1.0  0.01464  0.72749  0.45261  1.0000
  N   N78       1.0  0.93947  0.71626  0.71331  1.0000
  H   H1245     1.0  0.98032  0.71530  0.50911  1.0000
  H   H1246     1.0  0.97308  0.84783  0.61139  1.0000
  H   H1247     1.0  0.91331  0.84155  0.63227  1.0000
  C   C783      1.0  0.93437  0.72690  0.68051  1.0000
  C   C784      1.0  0.00823  0.82783  0.45465  1.0000
  H   H1248     1.0  0.94632  0.80432  0.63659  1.0000
  H   H1249     1.0  0.00453  0.72549  0.54065  1.0000
  C   C785      1.0  0.00557  0.72075  0.51387  1.0000
  H   H1250     1.0  0.04621  0.79531  0.52728  1.0000
  C   C786      1.0  0.02071  0.82072  0.51562  1.0000
  H   H1251     1.0  0.07376  0.83592  0.43170  1.0000
  N   N79       1.0  0.01249  0.73459  0.48747  1.0000
  H   H1252     1.0  0.06057  0.85196  0.46237  1.0000
  S   S315      1.0  0.07519  0.81342  0.64149  1.0000
  C   C787      1.0  0.92641  0.77205  0.72087  1.0000
  S   S316      1.0  0.02211  0.82700  0.55848  1.0000
  C   C788      1.0  0.98290  0.84242  0.63715  1.0000
  H   H1253     1.0  0.98834  0.75928  0.46871  1.0000
  H   H1254     1.0  0.02044  0.73747  0.43203  1.0000
  C   C789      1.0  0.06160  0.73464  0.61388  1.0000
  H   H1255     1.0  0.99773  0.83689  0.43435  1.0000
  H   H1256     1.0  0.91631  0.73868  0.68441  1.0000
  C   C790      1.0  0.97794  0.77586  0.68465  1.0000
  C   C791      1.0  0.94225  0.77324  0.68789  1.0000
  H   H1257     1.0  0.96034  0.81152  0.69718  1.0000
  H   H1258     1.0  0.99012  0.77665  0.65927  1.0000
  H   H1259     1.0  0.92701  0.77200  0.66496  1.0000
  H   H1260     1.0  0.04490  0.74732  0.52099  1.0000
  C   C792      1.0  0.58938  0.86846  0.65695  1.0000
  H   H1261     1.0  0.95962  0.73116  0.67002  1.0000
  H   H1262     1.0  0.02447  0.72472  0.65074  1.0000
  H   H1263     1.0  0.97758  0.83169  0.70404  1.0000
  N   N80       1.0  0.96165  0.82872  0.65154  1.0000
  Fe  Fe159     1.0  0.05758  0.80750  0.58888  1.0000
  Fe  Fe160     1.0  0.06287  0.78657  0.65748  1.0000
  H   H1264     1.0  0.90844  0.82593  0.66775  1.0000
  H   H1265     1.0  0.06819  0.73137  0.49554  1.0000
  H   H1266     1.0  0.92298  0.71959  0.66014  1.0000
  S   S317      1.0  0.04012  0.78171  0.60606  1.0000
  H   H1267     1.0  0.01065  0.83735  0.63288  1.0000
  H   H1268     1.0  0.04889  0.78732  0.46595  1.0000
  C   C793      1.0  0.03681  0.79983  0.47250  1.0000
  C   C794      1.0  0.96215  0.81490  0.62678  1.0000
  H   H1269     1.0  0.98958  0.72236  0.44583  1.0000
  H   H1270     1.0  0.95182  0.81990  0.60095  1.0000
  C   C795      1.0  0.03545  0.80439  0.50718  1.0000
  H   H1271     1.0  0.05230  0.75191  0.47549  1.0000
  S   S318      1.0  0.02946  0.80627  0.40277  1.0000
  C   C796      1.0  0.58378  0.84191  0.70832  1.0000
  C   C797      1.0  0.04045  0.72214  0.62789  1.0000
  H   H1272     1.0  0.06216  0.74667  0.62631  1.0000
  C   C798      1.0  0.99761  0.77749  0.71436  1.0000
  S   S319      1.0  0.04152  0.78189  0.71142  1.0000
  H   H1273     1.0  0.98144  0.75421  0.51423  1.0000
  H   H1274     1.0  0.95815  0.74380  0.48245  1.0000
  H   H1275     1.0  0.98291  0.85322  0.65483  1.0000
  H   H1276     1.0  0.67305  0.83420  0.72316  1.0000
  H   H1277     1.0  0.03540  0.71658  0.45134  1.0000
  H   H1278     1.0  0.67681  0.81138  0.71697  1.0000
  C   C799      1.0  0.60323  0.86973  0.69014  1.0000
  S   S320      1.0  0.63542  0.79073  0.87250  1.0000
  S   S321      1.0  0.83286  0.71474  0.85553  1.0000
  H   H1279     1.0  0.82516  0.81535  0.93426  1.0000
  H   H1280     1.0  0.70838  0.83064  0.81219  1.0000
  H   H1281     1.0  0.69787  0.79078  0.76474  1.0000
  S   S322      1.0  0.79641  0.80226  0.86544  1.0000
  H   H1282     1.0  0.05596  0.75765  0.85995  1.0000
  C   C800      1.0  0.84681  0.81507  0.95335  1.0000
  C   C801      1.0  0.82925  0.71365  0.78484  1.0000
  H   H1283     1.0  0.75254  0.81719  0.77299  1.0000
  C   C802      1.0  0.68016  0.79389  0.87307  1.0000
  C   C803      1.0  0.70513  0.77977  0.86962  1.0000
  C   C804      1.0  0.74097  0.78220  0.86758  1.0000
  C   C805      1.0  0.75195  0.79872  0.86979  1.0000
  C   C806      1.0  0.69120  0.81037  0.87567  1.0000
  H   H1284     1.0  0.69669  0.76698  0.86776  1.0000
  H   H1285     1.0  0.76003  0.77128  0.86429  1.0000
  S   S323      1.0  0.81662  0.76114  0.80668  1.0000
  C   C807      1.0  0.72708  0.81274  0.87449  1.0000
  H   H1286     1.0  0.73552  0.82550  0.87664  1.0000
  Fe  Fe161     1.0  0.83043  0.77974  0.84567  1.0000
  H   H1287     1.0  0.04400  0.80003  0.81076  1.0000
  C   C808      1.0  0.88676  0.79936  0.91494  1.0000
  H   H1288     1.0  0.67213  0.82126  0.87898  1.0000
  C   C809      1.0  0.95544  0.72630  0.73926  1.0000
  H   H1289     1.0  0.90192  0.81070  0.90904  1.0000
  N   N81       1.0  0.69693  0.81844  0.76552  1.0000
  S   S324      1.0  0.60685  0.84208  0.85519  1.0000
  H   H1290     1.0  0.60436  0.85720  0.99909  1.0000
  H   H1291     1.0  0.05605  0.76036  0.81315  1.0000
  N   N82       1.0  0.07748  0.78070  0.83910  1.0000
  H   H1292     1.0  0.66741  0.80046  0.79560  1.0000
  Fe  Fe162     1.0  0.59938  0.81379  0.85480  1.0000
  S   S325      1.0  0.61634  0.85859  0.75770  1.0000
  C   C810      1.0  0.85231  0.78397  0.95727  1.0000
  Fe  Fe163     1.0  0.02351  0.76697  0.04808  1.0000
  H   H1293     1.0  0.88932  0.79914  0.00320  1.0000
  H   H1294     1.0  0.96046  0.71855  0.76410  1.0000
  H   H1295     1.0  0.82458  0.71295  0.72928  1.0000
  C   C811      1.0  0.89973  0.79947  0.97603  1.0000
  H   H1296     1.0  0.83715  0.72660  0.78359  1.0000
  S   S326      1.0  0.58720  0.81453  0.79813  1.0000
  H   H1297     1.0  0.90491  0.78762  0.91151  1.0000
  C   C812      1.0  0.68926  0.83197  0.79065  1.0000
  H   H1298     1.0  0.04504  0.79526  0.87527  1.0000
  H   H1299     1.0  0.71342  0.79850  0.80398  1.0000
  S   S327      1.0  0.07387  0.75302  0.03062  1.0000
  S   S328      1.0  0.03765  0.79319  0.02983  1.0000
  H   H1300     1.0  0.83462  0.81558  0.97976  1.0000
  H   H1301     1.0  0.84041  0.78362  0.98384  1.0000
  H   H1302     1.0  0.69002  0.84513  0.77799  1.0000
  S   S329      1.0  0.95942  0.76778  0.87050  1.0000
  S   S330      1.0  0.89883  0.74415  0.81362  1.0000
  C   C813      1.0  0.94638  0.77337  0.75045  1.0000
  C   C814      1.0  0.98181  0.77614  0.74721  1.0000
  H   H1303     1.0  0.93475  0.77212  0.77602  1.0000
  H   H1304     1.0  0.99691  0.77730  0.77029  1.0000
  C   C815      1.0  0.97056  0.75862  0.98764  1.0000
  C   C816      1.0  0.94207  0.75271  0.97115  1.0000
  C   C817      1.0  0.93917  0.75481  0.93486  1.0000
  C   C818      1.0  0.96450  0.76302  0.91519  1.0000
  C   C819      1.0  0.99352  0.76836  0.93158  1.0000
  C   C820      1.0  0.99664  0.76608  0.96770  1.0000
  H   H1305     1.0  0.92220  0.74664  0.98647  1.0000
  H   H1306     1.0  0.91741  0.75007  0.92221  1.0000
  H   H1307     1.0  0.01333  0.77456  0.91653  1.0000
  H   H1308     1.0  0.01907  0.77035  0.98005  1.0000
  S   S331      1.0  0.97261  0.75759  0.03310  1.0000
  Fe  Fe164     1.0  0.90586  0.76429  0.85121  1.0000
  C   C821      1.0  0.69371  0.80130  0.78314  1.0000
  H   H1309     1.0  0.91449  0.81108  0.97200  1.0000
  Fe  Fe165     1.0  0.84774  0.74141  0.84138  1.0000
  S   S332      1.0  0.85731  0.75967  0.88234  1.0000
  C   C822      1.0  0.07236  0.78930  0.87230  1.0000
  H   H1310     1.0  0.87004  0.77193  0.95524  1.0000
  N   N83       1.0  0.87143  0.79947  0.95043  1.0000
  S   S333      1.0  0.87988  0.78602  0.81799  1.0000
  Fe  Fe166     1.0  0.86906  0.76549  0.78236  1.0000
  H   H1311     1.0  0.91907  0.78800  0.97399  1.0000
  H   H1312     1.0  0.83072  0.78360  0.93837  1.0000
  H   H1313     1.0  0.73633  0.83203  0.73828  1.0000
  C   C823      1.0  0.05265  0.76733  0.83758  1.0000
  Fe  Fe167     1.0  0.58977  0.84300  0.79960  1.0000
  C   C824      1.0  0.73300  0.81925  0.75172  1.0000
  H   H1314     1.0  0.73975  0.80915  0.73279  1.0000
  H   H1315     1.0  0.02502  0.77310  0.83850  1.0000
  H   H1316     1.0  0.86023  0.82704  0.94819  1.0000
  H   H1317     1.0  0.86612  0.79960  0.89493  1.0000
  H   H1318     1.0  0.64440  0.82067  0.74632  1.0000
  H   H1319     1.0  0.93784  0.73787  0.74554  1.0000
  H   H1320     1.0  0.66268  0.83135  0.80249  1.0000
  C   C825      1.0  0.67180  0.82124  0.73666  1.0000
  C   C826      1.0  0.58418  0.86561  0.98594  1.0000
  C   C827      1.0  0.07106  0.79357  0.80970  1.0000
  H   H1321     1.0  0.58132  0.83166  0.72801  1.0000
  H   H1322     1.0  0.07423  0.78745  0.78421  1.0000
  H   H1323     1.0  0.57999  0.84875  0.94371  1.0000
  H   H1324     1.0  0.88694  0.72298  0.73154  1.0000
  H   H1325     1.0  0.98072  0.73088  0.72960  1.0000
  H   H1326     1.0  0.07759  0.78001  0.89509  1.0000
  S   S334      1.0  0.88222  0.76811  0.72531  1.0000
  C   C828      1.0  0.90517  0.71135  0.72671  1.0000
  S   S335      1.0  0.83381  0.90030  0.35966  1.0000
  S   S336      1.0  0.72329  0.94831  0.28114  1.0000
  Fe  Fe168     1.0  0.79363  0.91684  0.32777  1.0000
  S   S337      1.0  0.79915  0.92570  0.27172  1.0000
  Fe  Fe169     1.0  0.77980  0.95174  0.29000  1.0000
  Fe  Fe170     1.0  0.74225  0.92148  0.26779  1.0000
  S   S338      1.0  0.72079  0.90873  0.22267  1.0000
  S   S339      1.0  0.77812  0.94329  0.34650  1.0000
  H   H1327     1.0  0.60944  0.95968  0.10794  1.0000
  C   C829      1.0  0.67638  0.91458  0.21405  1.0000
  C   C830      1.0  0.66119  0.90854  0.18478  1.0000
  C   C831      1.0  0.62586  0.91339  0.17715  1.0000
  C   C832      1.0  0.60565  0.92420  0.19896  1.0000
  C   C833      1.0  0.62060  0.92991  0.22863  1.0000
  C   C834      1.0  0.65591  0.92513  0.23614  1.0000
  H   H1328     1.0  0.91747  0.96503  0.30806  1.0000
  H   H1329     1.0  0.03441  0.02318  0.38001  1.0000
  H   H1330     1.0  0.82937  0.00728  0.24756  1.0000
  H   H1331     1.0  0.66722  0.92963  0.25903  1.0000
  C   C835      1.0  0.85457  0.01501  0.29290  1.0000
  H   H1332     1.0  0.62041  0.90942  0.30015  1.0000
  C   C836      1.0  0.93204  0.93058  0.30114  1.0000
  H   H1333     1.0  0.90997  0.93609  0.23514  1.0000
  N   N84       1.0  0.66506  0.95438  0.11336  1.0000
  C   C837      1.0  0.66556  0.93782  0.09636  1.0000
  C   C838      1.0  0.69108  0.95277  0.14150  1.0000
  C   C839      1.0  0.62981  0.95882  0.12825  1.0000
  H   H1334     1.0  0.71803  0.94930  0.13138  1.0000
  H   H1335     1.0  0.64641  0.93862  0.07479  1.0000
  N   N85       1.0  0.64514  0.88430  0.31548  1.0000
  H   H1336     1.0  0.69188  0.93394  0.08518  1.0000
  H   H1337     1.0  0.69141  0.96503  0.15492  1.0000
  H   H1338     1.0  0.66001  0.90970  0.32393  1.0000
  H   H1339     1.0  0.62813  0.97142  0.14068  1.0000
  H   H1340     1.0  0.62263  0.94893  0.14838  1.0000
  C   C840      1.0  0.58640  0.98935  0.05908  1.0000
  C   C841      1.0  0.93092  0.87770  0.33984  1.0000
  H   H1341     1.0  0.59611  0.88158  0.29110  1.0000
  H   H1342     1.0  0.82435  0.97319  0.33872  1.0000
  H   H1343     1.0  0.85939  0.99229  0.37080  1.0000
  S   S340      1.0  0.67635  0.94372  0.37030  1.0000
  H   H1344     1.0  0.62075  0.90433  0.34628  1.0000
  H   H1345     1.0  0.65869  0.92721  0.11507  1.0000
  C   C842      1.0  0.83291  0.98476  0.32580  1.0000
  H   H1346     1.0  0.86557  0.94373  0.24575  1.0000
  H   H1347     1.0  0.60504  0.93831  0.24552  1.0000
  S   S341      1.0  0.80402  0.97479  0.26553  1.0000
  H   H1348     1.0  0.88223  0.92209  0.25875  1.0000
  C   C843      1.0  0.86379  0.01069  0.32738  1.0000
  H   H1349     1.0  0.88700  0.96831  0.27308  1.0000
  C   C844      1.0  0.83563  0.00401  0.27456  1.0000
  H   H1350     1.0  0.61433  0.90883  0.15433  1.0000
  H   H1351     1.0  0.79833  0.02729  0.36073  1.0000
  C   C845      1.0  0.85264  0.99562  0.34396  1.0000
  H   H1352     1.0  0.92590  0.91695  0.30613  1.0000
  C   C846      1.0  0.82494  0.98882  0.29079  1.0000
  H   H1353     1.0  0.84998  0.89639  0.28644  1.0000
  Fe  Fe171     1.0  0.72331  0.93724  0.33614  1.0000
  C   C847      1.0  0.90336  0.88509  0.28436  1.0000
  N   N86       1.0  0.06875  0.02952  0.33740  1.0000
  S   S342      1.0  0.88907  0.02402  0.35002  1.0000
  H   H1354     1.0  0.68524  0.94255  0.16162  1.0000
  H   H1355     1.0  0.88008  0.94556  0.34034  1.0000
  H   H1356     1.0  0.84848  0.94886  0.30622  1.0000
  C   C848      1.0  0.90980  0.95974  0.28334  1.0000
  H   H1357     1.0  0.05836  0.00294  0.33510  1.0000
  C   C849      1.0  0.87250  0.94089  0.31503  1.0000
  H   H1358     1.0  0.95385  0.93049  0.28168  1.0000
  H   H1359     1.0  0.70034  0.96536  0.07598  1.0000
  C   C850      1.0  0.88920  0.93565  0.25563  1.0000
  S   S343      1.0  0.73847  0.91003  0.32223  1.0000
  H   H1360     1.0  0.01695  0.02774  0.31785  1.0000
  H   H1361     1.0  0.94183  0.93491  0.32592  1.0000
  H   H1362     1.0  0.86224  0.02675  0.28006  1.0000
  N   N87       1.0  0.90095  0.94171  0.28879  1.0000
  H   H1363     1.0  0.86531  0.92748  0.32003  1.0000
  C   C851      1.0  0.87109  0.89121  0.33771  1.0000
  H   H1364     1.0  0.93176  0.96083  0.26431  1.0000
  C   C852      1.0  0.63613  0.90273  0.32171  1.0000
  C   C853      1.0  0.90020  0.88419  0.35689  1.0000
  C   C854      1.0  0.79749  0.04155  0.36219  1.0000
  C   C855      1.0  0.87258  0.89145  0.30141  1.0000
  H   H1365     1.0  0.67687  0.90020  0.16784  1.0000
  H   H1366     1.0  0.67269  0.98092  0.09894  1.0000
  H   H1367     1.0  0.60267  0.99002  0.08147  1.0000
  H   H1368     1.0  0.90446  0.88536  0.25625  1.0000
  C   C856      1.0  0.67366  0.96811  0.08734  1.0000
  H   H1369     1.0  0.89911  0.88389  0.38500  1.0000
  H   H1370     1.0  0.65487  0.96944  0.06540  1.0000
  C   C857      1.0  0.66558  0.88278  0.28270  1.0000
  H   H1371     1.0  0.68999  0.88947  0.28344  1.0000
  H   H1372     1.0  0.65033  0.88863  0.26002  1.0000
  C   C858      1.0  0.03966  0.03559  0.31387  1.0000
  C   C859      1.0  0.93265  0.87826  0.30351  1.0000
  C   C860      1.0  0.05676  0.03105  0.37387  1.0000
  H   H1373     1.0  0.04795  0.03502  0.28605  1.0000
  H   H1374     1.0  0.69028  0.88258  0.34828  1.0000
  H   H1375     1.0  0.65095  0.87635  0.36960  1.0000
  C   C861      1.0  0.66611  0.87600  0.34466  1.0000
  H   H1376     1.0  0.59657  0.87659  0.33727  1.0000
  H   H1377     1.0  0.59122  0.87883  0.63731  1.0000
  H   H1378     1.0  0.83475  0.02495  0.41282  1.0000
  H   H1379     1.0  0.71788  0.91512  0.53017  1.0000
  H   H1380     1.0  0.68339  0.96109  0.51510  1.0000
  C   C862      1.0  0.63881  0.89697  0.43133  1.0000
  C   C863      1.0  0.61528  0.91132  0.42302  1.0000
  C   C864      1.0  0.83088  0.03918  0.41505  1.0000
  C   C865      1.0  0.59011  0.95026  0.59011  1.0000
  C   C866      1.0  0.62695  0.92570  0.40421  1.0000
  C   C867      1.0  0.67372  0.89681  0.41999  1.0000
  S   S344      1.0  0.61011  0.88488  0.55506  1.0000
  S   S345      1.0  0.68476  0.03735  0.62115  1.0000
  S   S346      1.0  0.61523  0.00994  0.66874  1.0000
  C   C868      1.0  0.70549  0.93590  0.47252  1.0000
  H   H1381     1.0  0.60882  0.93689  0.39817  1.0000
  H   H1382     1.0  0.71879  0.92315  0.46606  1.0000
  H   H1383     1.0  0.68760  0.92689  0.55812  1.0000
  H   H1384     1.0  0.69007  0.94100  0.44934  1.0000
  H   H1385     1.0  0.64812  0.95658  0.48782  1.0000
  Fe  Fe172     1.0  0.58192  0.91104  0.56057  1.0000
  H   H1386     1.0  0.72608  0.94480  0.47605  1.0000
  C   C869      1.0  0.70421  0.92809  0.53417  1.0000
  H   H1387     1.0  0.58816  0.91139  0.43132  1.0000
  H   H1388     1.0  0.72434  0.93701  0.53932  1.0000
  H   H1389     1.0  0.60502  0.99093  0.60985  1.0000
  C   C870      1.0  0.66455  0.95148  0.51030  1.0000
  N   N88       1.0  0.68279  0.93440  0.50378  1.0000
  C   C871      1.0  0.60860  0.96419  0.59791  1.0000
  H   H1390     1.0  0.64678  0.95076  0.53340  1.0000
  H   H1391     1.0  0.63687  0.96260  0.59945  1.0000
  H   H1392     1.0  0.63859  0.92696  0.47690  1.0000
  H   H1393     1.0  0.64029  0.91988  0.52168  1.0000
  C   C872      1.0  0.65667  0.92208  0.49809  1.0000
  S   S347      1.0  0.61313  0.93013  0.58509  1.0000
  H   H1394     1.0  0.66926  0.90924  0.49133  1.0000
  H   H1395     1.0  0.07821  0.02666  0.39230  1.0000
  H   H1396     1.0  0.83124  0.04183  0.44312  1.0000
  C   C873      1.0  0.76782  0.04010  0.41793  1.0000
  H   H1397     1.0  0.69202  0.88575  0.42661  1.0000
  Fe  Fe173     1.0  0.63285  0.03523  0.64835  1.0000
  C   C874      1.0  0.59059  0.98018  0.60424  1.0000
  Fe  Fe174     1.0  0.58910  0.88727  0.50090  1.0000
  H   H1398     1.0  0.61007  0.96417  0.67222  1.0000
  C   C875      1.0  0.59393  0.95457  0.68566  1.0000
  H   H1399     1.0  0.76898  0.02577  0.41825  1.0000
  C   C876      1.0  0.66193  0.92556  0.39307  1.0000
  C   C877      1.0  0.68528  0.91109  0.40088  1.0000
  H   H1400     1.0  0.61225  0.94394  0.69708  1.0000
  H   H1401     1.0  0.71252  0.91108  0.39314  1.0000
  S   S348      1.0  0.62553  0.87940  0.45686  1.0000
  Fe  Fe175     1.0  0.59240  0.02478  0.71311  1.0000
  H   H1402     1.0  0.61590  0.88107  0.69593  1.0000
  Fe  Fe176     1.0  0.61173  0.03622  0.99223  1.0000
  H   H1403     1.0  0.58105  0.01978  0.88887  1.0000
  S   S349      1.0  0.62165  0.03952  0.93461  1.0000
  S   S350      1.0  0.62686  0.01287  0.02725  1.0000
  S   S351      1.0  0.58557  0.88587  0.04202  1.0000
  S   S352      1.0  0.60261  0.01154  0.76561  1.0000
  C   C878      1.0  0.58957  0.01572  0.83439  1.0000
  H   H1404     1.0  0.61050  0.00560  0.83888  1.0000
  C   C879      1.0  0.59223  0.97013  0.73818  1.0000
  H   H1405     1.0  0.64985  0.03605  0.85442  1.0000
  C   C880      1.0  0.59228  0.99963  0.02896  1.0000
  H   H1406     1.0  0.61063  0.96015  0.75158  1.0000
  H   H1407     1.0  0.69292  0.04015  0.83881  1.0000
  H   H1408     1.0  0.60820  0.98006  0.72566  1.0000
