data_image0
_chemical_formula_structural       CSH5SH2FeH2CH2NSNC3NH2C3HCHC3H2C4HFeH2FeCH4SHCHC2HC2S2H2SH2FeH2CHCSHCHCH4CFeH2SCFeH2FeS2FeHFeCS2FeS2FeSHFeHFeS3C2SH2SH2SH2SHSCHC6H4CHC6H4FeHCH2CHNCHCHNCH3CH4NS2HSCH5NH2CNHCHC4HSHC2H5NHFeCH2CH3CH5SCSHC3FeS2H2S2H4CHC4SH3CH3C2H2CH3C2H2SCHC2HC2HCHCHCHCH2CHSHSCHFeH2SHCHCH2C2NCH2SHCH2SHFeSC2H5CHC2H2SH4CH2CHNHC2SCH3NC2HC2H3C3H2CHC2FeHCH2CH7CH2SHSHNCHSH2C5H3C3NHC2HC2H2CHCH3CHSC3FeH2CH4FeH2FeS2FeHFeS3FeS2FeS2FeSFeS2FeHSH2CS2HFeHSHSHC2HC6H4NC6H4C4H2NC4H13CH2SCH2CHCNSHCFeCH2CHSHSCH3CHFeH3CH2CHCH2CHC2HS2H2NFeCNCHFeSNFeS2FeSFeS4HSC8H10CHCS2CH2CH3CS2H8C3HCHSCH3CSHNCH3C3SC3HSFeHFe2SNH3CH3CH3C2H3CS2C2FeHSFeS2C3H3C2FeH2C2H2CH2CH4SCHCH3CH2CFeHSFeHCHCS2C2SC2H3CH2NH2FeCNHCHCHFeHC2H2CH4C2H2CH2SH2CHCHCH3CH2CH12FeS2FeH2CH3CH3CFeNFeHSCS2C6H5CHC2H2CH4SH2CSCH4CHNH2FeHCH4CH3SHFeCHC2H2SCFeCHSFeS2FeSFeSFeS3FeCHC2H2FeS2HS2HC6H5C3HC2H3C3HNCH3NH2NCSH3CH4CH4CNC4H7NH4CH5CH8FeH2SCH2FeH2SH2CHCH2CH2C2HC2HCSNS2CHC4HCHCFeC2H2FeC3HCHCH5NSH2CH2CFeS2CH3CS2CH4C3HC4H4C2H5CNC2H2FeH2SH2NHCH6CH3FeH4CHC2H2FeHNHCHCHCSHC3H2C2H2CHCH5CSHCFeS2FeS2FeHFe2S4HSCHC7H6CHCHC3SCHNH3CHFeH5SHSH3CH2C3HCHC3H4FeH2CSHCH2CH4CHCH4SCHSFe2CSFeS2H2CHSFeH2C2H3CHC2H2SH2CSH2CH2CH2C2HCNCH2SCH2NCH3NHC2H2CHNCHCH2CHSH2NHFeHCH2C2HSHCS2HSCHC2NH2CH2CH3CS2H2C3HCNH2CH3SH3CHC2SH4CFeS2H2Fe2HSC2NCH8CHC2H3CHCHCFeCHCH2CH2C2H2SNH2CHSC3H2S2C6H5CH2CFeH5FeH2NHCH5C3H3CHC2H7SH2FeCH3FeSHFeSFeSFeCSH2FeS3CH2FeSHC6H4C3SC5H3CHCSH4SH3CHCHNHS2C2HCNSCSH2FeC2HSHFeC2SHC2H2NSH2CHC2H3CH3SFeC2SH3CHSNC3SCHFeSH2SHFeSHSFeS2FeS2FeSFeS3FeHFeSC2SH4NC6H5CSHCHC6H5CFeH2NH2CHCHC3HSHFeCH6SCHC3HCH2CH2SHSHSC2HCH2CHCHSHFe2S2FeSHNSC8H2CH2C2H3CH3CH4CNHC3HCH2CH4SCH3CHNHCSCHCHSHCH3FeCHCSHFeH2CHSH6C2H2SCHC2SHCH2C2Fe2HC2H4CHCH2FeHCHCFeSHNC2HC4H3SH3CHC3NH4FeC3HCHCHCHCSHNH4FeSHFeSCSFeSHFeS2FeSFeS3FeHSH3SHC3H3NHCHC6H4CFeSHC7H5SH3SH6SHCNC3H2CH4SHCH6CSH4CH4CHCH2SH4NS2C2HNC3FeH2CH2SHFe3CHSH2CHCH5CH3CH3CNH2CSH4CH3C2HCSCH2CH3
_chemical_formula_sum              "C640 S256 H1024 Fe128 N64"
_cell_length_a       74.919
_cell_length_b       41.3913
_cell_length_c       32.8645
_cell_angle_alpha    89.3885
_cell_angle_beta     94.8113
_cell_angle_gamma    88.1085

_space_group_name_H-M_alt    "P 1"
_space_group_IT_number       1

loop_
  _space_group_symop_operation_xyz
  'x, y, z'

loop_
  _atom_site_type_symbol
  _atom_site_label
  _atom_site_symmetry_multiplicity
  _atom_site_fract_x
  _atom_site_fract_y
  _atom_site_fract_z
  _atom_site_occupancy
  C   C1        1.0  0.26474  0.21880  0.54003  1.0000
  S   S1        1.0  0.24208  0.10683  0.21161  1.0000
  H   H1        1.0  0.25118  0.12100  0.29612  1.0000
  H   H2        1.0  0.04628  0.14130  0.17619  1.0000
  H   H3        1.0  0.19695  0.29893  0.51459  1.0000
  H   H4        1.0  0.27067  0.32894  0.51425  1.0000
  H   H5        1.0  0.19942  0.52365  0.21422  1.0000
  S   S2        1.0  0.23287  0.10913  0.09394  1.0000
  H   H6        1.0  0.04517  0.07214  0.10423  1.0000
  H   H7        1.0  0.25121  0.51443  0.29698  1.0000
  Fe  Fe1       1.0  0.25496  0.07931  0.07002  1.0000
  H   H8        1.0  0.18380  0.54745  0.27101  1.0000
  H   H9        1.0  0.27367  0.36684  0.53951  1.0000
  C   C2        1.0  0.04273  0.09618  0.11812  1.0000
  H   H10       1.0  0.23500  0.35114  0.08692  1.0000
  H   H11       1.0  0.06645  0.09175  0.18436  1.0000
  N   N1        1.0  0.26303  0.33779  0.09567  1.0000
  S   S3        1.0  0.26410  0.10820  0.53942  1.0000
  N   N2        1.0  0.19931  0.24851  0.53174  1.0000
  C   C3        1.0  0.26809  0.15868  0.06158  1.0000
  C   C4        1.0  0.21370  0.22371  0.54201  1.0000
  C   C5        1.0  0.25614  0.53730  0.28727  1.0000
  N   N3        1.0  0.03873  0.09281  0.16120  1.0000
  H   H12       1.0  0.03134  0.10838  0.09936  1.0000
  H   H13       1.0  0.26633  0.46785  0.08518  1.0000
  C   C6        1.0  0.25314  0.54728  0.24635  1.0000
  C   C7        1.0  0.20738  0.27948  0.52209  1.0000
  C   C8        1.0  0.25329  0.09528  0.29217  1.0000
  H   H14       1.0  0.18108  0.53719  0.17804  1.0000
  C   C9        1.0  0.24969  0.08181  0.25345  1.0000
  H   H15       1.0  0.04415  0.26387  0.49310  1.0000
  C   C10       1.0  0.26488  0.15071  0.53949  1.0000
  C   C11       1.0  0.27877  0.35105  0.51561  1.0000
  C   C12       1.0  0.27019  0.45132  0.06206  1.0000
  H   H16       1.0  0.26173  0.08584  0.35580  1.0000
  H   H17       1.0  0.27693  0.54723  0.54198  1.0000
  C   C13       1.0  0.27461  0.31102  0.11425  1.0000
  C   C14       1.0  0.26554  0.34032  0.05168  1.0000
  C   C15       1.0  0.03483  0.12507  0.17795  1.0000
  C   C16       1.0  0.26710  0.19255  0.06007  1.0000
  H   H18       1.0  0.26063  0.20574  0.08334  1.0000
  Fe  Fe2       1.0  0.23888  0.08050  0.15193  1.0000
  H   H19       1.0  0.24002  0.30837  0.08596  1.0000
  H   H20       1.0  0.05155  0.07401  0.21784  1.0000
  Fe  Fe3       1.0  0.23724  0.53856  0.14607  1.0000
  C   C17       1.0  0.18779  0.23808  0.49590  1.0000
  H   H21       1.0  0.27147  0.28756  0.09941  1.0000
  H   H22       1.0  0.26279  0.14603  0.08652  1.0000
  H   H23       1.0  0.27298  0.30815  0.14740  1.0000
  H   H24       1.0  0.27609  0.36417  0.48589  1.0000
  S   S4        1.0  0.25725  0.53376  0.09928  1.0000
  H   H25       1.0  0.03850  0.36783  0.44524  1.0000
  C   C18       1.0  0.25460  0.45196  0.52606  1.0000
  H   H26       1.0  0.22253  0.22040  0.51661  1.0000
  C   C19       1.0  0.05427  0.07718  0.18525  1.0000
  C   C20       1.0  0.26800  0.47368  0.51878  1.0000
  H   H27       1.0  0.03008  0.39551  0.37806  1.0000
  C   C21       1.0  0.25933  0.07546  0.32588  1.0000
  C   C22       1.0  0.24406  0.33139  0.10086  1.0000
  S   S5        1.0  0.21610  0.51197  0.10891  1.0000
  S   S6        1.0  0.26374  0.50331  0.48001  1.0000
  H   H28       1.0  0.05481  0.11062  0.11504  1.0000
  H   H29       1.0  0.17684  0.25635  0.48730  1.0000
  S   S7        1.0  0.24083  0.52264  0.21187  1.0000
  H   H30       1.0  0.24163  0.32935  0.13372  1.0000
  H   H31       1.0  0.27626  0.21470  0.48226  1.0000
  Fe  Fe4       1.0  0.23506  0.51178  0.06005  1.0000
  H   H32       1.0  0.21589  0.27721  0.49601  1.0000
  H   H33       1.0  0.24202  0.45316  0.50723  1.0000
  C   C23       1.0  0.03571  0.27968  0.50989  1.0000
  H   H34       1.0  0.19565  0.23455  0.46889  1.0000
  C   C24       1.0  0.27155  0.16770  0.50739  1.0000
  S   S8        1.0  0.26401  0.26140  0.53828  1.0000
  H   H35       1.0  0.25974  0.38931  0.10174  1.0000
  C   C25       1.0  0.27134  0.20168  0.50751  1.0000
  H   H36       1.0  0.03181  0.12331  0.21054  1.0000
  C   C26       1.0  0.19385  0.54441  0.19477  1.0000
  H   H37       1.0  0.20344  0.54850  0.17153  1.0000
  H   H38       1.0  0.18144  0.21480  0.50216  1.0000
  H   H39       1.0  0.26784  0.54877  0.34729  1.0000
  H   H40       1.0  0.03672  0.44465  0.05330  1.0000
  C   C27       1.0  0.26796  0.36845  0.11563  1.0000
  Fe  Fe5       1.0  0.21517  0.06879  0.07313  1.0000
  H   H41       1.0  0.27662  0.15468  0.48217  1.0000
  H   H42       1.0  0.26606  0.36772  0.14882  1.0000
  S   S9        1.0  0.26253  0.05373  0.12959  1.0000
  C   C28       1.0  0.03402  0.55212  0.07499  1.0000
  Fe  Fe6       1.0  0.25889  0.35651  0.62620  1.0000
  H   H43       1.0  0.08257  0.18332  0.97698  1.0000
  H   H44       1.0  0.26625  0.48516  0.95306  1.0000
  Fe  Fe7       1.0  0.22176  0.32766  0.61685  1.0000
  S   S10       1.0  0.23251  0.27739  0.63158  1.0000
  S   S11       1.0  0.19269  0.33615  0.59431  1.0000
  Fe  Fe8       1.0  0.24960  0.30132  0.68128  1.0000
  H   H45       1.0  0.12560  0.36536  0.80403  1.0000
  Fe  Fe9       1.0  0.25419  0.28910  0.59137  1.0000
  C   C29       1.0  0.21734  0.16180  0.92448  1.0000
  S   S12       1.0  0.23730  0.35119  0.66935  1.0000
  S   S13       1.0  0.23899  0.47063  0.01709  1.0000
  Fe  Fe10      1.0  0.10671  0.29124  0.69453  1.0000
  S   S14       1.0  0.09027  0.30324  0.74688  1.0000
  S   S15       1.0  0.13648  0.28464  0.71118  1.0000
  Fe  Fe11      1.0  0.07379  0.29326  0.63228  1.0000
  S   S16       1.0  0.05519  0.30717  0.67957  1.0000
  H   H46       1.0  0.07065  0.14616  0.97696  1.0000
  Fe  Fe12      1.0  0.07674  0.34029  0.70344  1.0000
  H   H47       1.0  0.05879  0.20478  0.66565  1.0000
  Fe  Fe13      1.0  0.07059  0.26870  0.71815  1.0000
  S   S17       1.0  0.05510  0.23024  0.74785  1.0000
  S   S18       1.0  0.09410  0.32980  0.65224  1.0000
  S   S19       1.0  0.08827  0.25325  0.66982  1.0000
  C   C30       1.0  0.05387  0.20236  0.63292  1.0000
  C   C31       1.0  0.05954  0.14648  0.89815  1.0000
  S   S20       1.0  0.09434  0.07862  0.94324  1.0000
  H   H48       1.0  0.20195  0.15223  0.01818  1.0000
  H   H49       1.0  0.06831  0.20305  0.86707  1.0000
  S   S21       1.0  0.10238  0.11884  0.84134  1.0000
  H   H50       1.0  0.19537  0.18249  0.97976  1.0000
  H   H51       1.0  0.20785  0.14576  0.90718  1.0000
  S   S22       1.0  0.25135  0.27837  0.74396  1.0000
  H   H52       1.0  0.08845  0.18124  0.88561  1.0000
  H   H53       1.0  0.23412  0.54548  0.59070  1.0000
  S   S23       1.0  0.24215  0.33780  0.57266  1.0000
  H   H54       1.0  0.17747  0.27160  0.56026  1.0000
  S   S24       1.0  0.19083  0.08728  0.03350  1.0000
  C   C32       1.0  0.12179  0.36246  0.77086  1.0000
  H   H55       1.0  0.26174  0.31784  0.03534  1.0000
  C   C33       1.0  0.06843  0.19811  0.77074  1.0000
  C   C34       1.0  0.06034  0.16987  0.78284  1.0000
  C   C35       1.0  0.07074  0.14454  0.80273  1.0000
  C   C36       1.0  0.08918  0.14777  0.81152  1.0000
  C   C37       1.0  0.09728  0.17570  0.79849  1.0000
  C   C38       1.0  0.08696  0.20075  0.77801  1.0000
  H   H56       1.0  0.04602  0.16759  0.77690  1.0000
  H   H57       1.0  0.06446  0.12273  0.81174  1.0000
  H   H58       1.0  0.11158  0.17823  0.80489  1.0000
  H   H59       1.0  0.09333  0.22237  0.76857  1.0000
  C   C39       1.0  0.20112  0.15752  0.98472  1.0000
  H   H60       1.0  0.24595  0.52940  0.96992  1.0000
  C   C40       1.0  0.17712  0.32200  0.62698  1.0000
  C   C41       1.0  0.15874  0.32439  0.61455  1.0000
  C   C42       1.0  0.14612  0.31264  0.63988  1.0000
  C   C43       1.0  0.15185  0.29860  0.67783  1.0000
  C   C44       1.0  0.17023  0.29616  0.69015  1.0000
  C   C45       1.0  0.18285  0.30776  0.66478  1.0000
  H   H61       1.0  0.15425  0.33527  0.58524  1.0000
  H   H62       1.0  0.13199  0.31437  0.62995  1.0000
  H   H63       1.0  0.17475  0.28527  0.71946  1.0000
  H   H64       1.0  0.19701  0.30578  0.67461  1.0000
  Fe  Fe14      1.0  0.09052  0.07771  0.87470  1.0000
  H   H65       1.0  0.06659  0.47032  0.97512  1.0000
  C   C46       1.0  0.14438  0.05593  0.97859  1.0000
  H   H66       1.0  0.23055  0.15910  0.91142  1.0000
  H   H67       1.0  0.03922  0.46699  0.92659  1.0000
  C   C47       1.0  0.07352  0.40861  0.76614  1.0000
  H   H68       1.0  0.15865  0.39348  0.73354  1.0000
  N   N4        1.0  0.06614  0.17452  0.92157  1.0000
  C   C48       1.0  0.04610  0.41986  0.98309  1.0000
  H   H69       1.0  0.18207  0.22999  0.57525  1.0000
  C   C49       1.0  0.07649  0.19485  0.89542  1.0000
  H   H70       1.0  0.25362  0.21475  0.59812  1.0000
  N   N5        1.0  0.21890  0.15375  0.96858  1.0000
  C   C50       1.0  0.22569  0.11996  0.97484  1.0000
  H   H71       1.0  0.27009  0.51155  0.02118  1.0000
  H   H72       1.0  0.25320  0.15480  0.59707  1.0000
  H   H73       1.0  0.21236  0.18722  0.91865  1.0000
  C   C51       1.0  0.12545  0.38071  0.70221  1.0000
  H   H74       1.0  0.11086  0.38665  0.69603  1.0000
  H   H75       1.0  0.06509  0.46339  0.02858  1.0000
  H   H76       1.0  0.07088  0.13143  0.88810  1.0000
  H   H77       1.0  0.03670  0.32308  0.59726  1.0000
  N   N6        1.0  0.04107  0.45401  0.99041  1.0000
  S   S25       1.0  0.04653  0.08621  0.97977  1.0000
  S   S26       1.0  0.06176  0.06359  0.87244  1.0000
  H   H78       1.0  0.08988  0.14944  0.94834  1.0000
  S   S27       1.0  0.07373  0.39364  0.71615  1.0000
  C   C52       1.0  0.12747  0.41842  0.75771  1.0000
  H   H79       1.0  0.05428  0.49856  0.00390  1.0000
  H   H80       1.0  0.15902  0.09986  0.98125  1.0000
  H   H81       1.0  0.13273  0.39658  0.68216  1.0000
  H   H82       1.0  0.25524  0.42225  0.96944  1.0000
  H   H83       1.0  0.15416  0.35194  0.74334  1.0000
  N   N7        1.0  0.13143  0.38477  0.74578  1.0000
  H   H84       1.0  0.24694  0.41204  0.56297  1.0000
  H   H85       1.0  0.23293  0.17017  0.02378  1.0000
  C   C53       1.0  0.03101  0.46792  0.95333  1.0000
  N   N8        1.0  0.03435  0.20937  0.62645  1.0000
  H   H86       1.0  0.07388  0.38495  0.86585  1.0000
  C   C54       1.0  0.15887  0.07499  0.99160  1.0000
  H   H87       1.0  0.10703  0.36685  0.76579  1.0000
  C   C55       1.0  0.26960  0.28907  0.77780  1.0000
  C   C56       1.0  0.23147  0.17568  0.99040  1.0000
  C   C57       1.0  0.05070  0.19353  0.93495  1.0000
  C   C58       1.0  0.27350  0.42722  0.58226  1.0000
  H   H88       1.0  0.07399  0.36207  0.79619  1.0000
  S   S28       1.0  0.27136  0.25149  0.02509  1.0000
  H   H89       1.0  0.15593  0.37991  0.78481  1.0000
  C   C59       1.0  0.27438  0.20933  0.02855  1.0000
  C   C60       1.0  0.03455  0.06183  0.01168  1.0000
  H   H90       1.0  0.03789  0.26044  0.62309  1.0000
  H   H91       1.0  0.04165  0.20250  0.90830  1.0000
  H   H92       1.0  0.19657  0.26098  0.59443  1.0000
  H   H93       1.0  0.27882  0.55118  0.02514  1.0000
  H   H94       1.0  0.05745  0.17738  0.62363  1.0000
  N   N9        1.0  0.27409  0.53399  0.96377  1.0000
  H   H95       1.0  0.04260  0.17858  0.95448  1.0000
  Fe  Fe15      1.0  0.06628  0.06099  0.94102  1.0000
  C   C61       1.0  0.07780  0.16293  0.95764  1.0000
  H   H96       1.0  0.03572  0.22331  0.56367  1.0000
  H   H97       1.0  0.12476  0.33678  0.76327  1.0000
  C   C62       1.0  0.26388  0.42528  0.99714  1.0000
  H   H98       1.0  0.22674  0.11298  0.00768  1.0000
  H   H99       1.0  0.12783  0.35536  0.69257  1.0000
  H   H100      1.0  0.25591  0.53320  0.61414  1.0000
  C   C63       1.0  0.27550  0.50314  0.94181  1.0000
  H   H101      1.0  0.13170  0.42238  0.79050  1.0000
  H   H102      1.0  0.11280  0.42446  0.75314  1.0000
  H   H103      1.0  0.27194  0.50650  0.90846  1.0000
  H   H104      1.0  0.06146  0.21929  0.61482  1.0000
  H   H105      1.0  0.05079  0.15415  0.87049  1.0000
  S   S29       1.0  0.27474  0.09912  0.02907  1.0000
  C   C64       1.0  0.27019  0.27938  0.81893  1.0000
  S   S30       1.0  0.27242  0.30823  0.64238  1.0000
  H   H106      1.0  0.08139  0.21669  0.91167  1.0000
  C   C65       1.0  0.25539  0.54687  0.95833  1.0000
  C   C66       1.0  0.07386  0.38797  0.80021  1.0000
  C   C67       1.0  0.15091  0.37729  0.75222  1.0000
  Fe  Fe16      1.0  0.07553  0.50441  0.90123  1.0000
  S   S31       1.0  0.05171  0.53862  0.90407  1.0000
  S   S32       1.0  0.07293  0.45030  0.89472  1.0000
  H   H107      1.0  0.05156  0.13062  0.91666  1.0000
  H   H108      1.0  0.05400  0.40870  0.01013  1.0000
  S   S33       1.0  0.09018  0.52245  0.95858  1.0000
  S   S34       1.0  0.08976  0.53652  0.86042  1.0000
  H   H109      1.0  0.13442  0.43601  0.73926  1.0000
  H   H110      1.0  0.22690  0.20146  0.98641  1.0000
  H   H111      1.0  0.23929  0.11629  0.96399  1.0000
  H   H112      1.0  0.25730  0.36067  0.03670  1.0000
  C   C68       1.0  0.07375  0.40097  0.83960  1.0000
  H   H113      1.0  0.25936  0.26580  0.82954  1.0000
  C   C69       1.0  0.18837  0.25282  0.56686  1.0000
  C   C70       1.0  0.07322  0.44216  0.77171  1.0000
  C   C71       1.0  0.07317  0.45513  0.81102  1.0000
  C   C72       1.0  0.07338  0.43459  0.84510  1.0000
  S   S35       1.0  0.06450  0.28115  0.56696  1.0000
  H   H114      1.0  0.07288  0.45825  0.74546  1.0000
  H   H115      1.0  0.07269  0.48104  0.81483  1.0000
  H   H116      1.0  0.22246  0.23063  0.56925  1.0000
  C   C73       1.0  0.25736  0.42866  0.55757  1.0000
  H   H117      1.0  0.13357  0.06611  0.95810  1.0000
  H   H118      1.0  0.05451  0.41770  0.95672  1.0000
  H   H119      1.0  0.27080  0.08438  0.62475  1.0000
  C   C74       1.0  0.24851  0.54212  0.58519  1.0000
  C   C75       1.0  0.05745  0.47236  0.99999  1.0000
  H   H120      1.0  0.24507  0.17339  0.97919  1.0000
  H   H121      1.0  0.21605  0.28808  0.54855  1.0000
  C   C76       1.0  0.25892  0.44735  0.02649  1.0000
  H   H122      1.0  0.19141  0.14046  0.97004  1.0000
  H   H123      1.0  0.21653  0.10263  0.95889  1.0000
  H   H124      1.0  0.05513  0.21489  0.95289  1.0000
  C   C77       1.0  0.03030  0.24263  0.63959  1.0000
  C   C78       1.0  0.25831  0.16784  0.57205  1.0000
  H   H125      1.0  0.20818  0.19982  0.54891  1.0000
  H   H126      1.0  0.03119  0.18150  0.57157  1.0000
  S   S36       1.0  0.27769  0.39788  0.62138  1.0000
  C   C79       1.0  0.25844  0.20179  0.57259  1.0000
  H   H127      1.0  0.24946  0.52248  0.56242  1.0000
  C   C80       1.0  0.17309  0.06209  0.01791  1.0000
  C   C81       1.0  0.27583  0.14142  0.03086  1.0000
  H   H128      1.0  0.03406  0.40524  0.97600  1.0000
  C   C82       1.0  0.03153  0.31279  0.56874  1.0000
  C   C83       1.0  0.02976  0.45589  0.02514  1.0000
  H   H129      1.0  0.03400  0.24559  0.67281  1.0000
  C   C84       1.0  0.04251  0.29237  0.54726  1.0000
  H   H130      1.0  0.25103  0.55182  0.92562  1.0000
  C   C85       1.0  0.27930  0.52832  0.00768  1.0000
  H   H131      1.0  0.17648  0.58929  0.26875  1.0000
  C   C86       1.0  0.24496  0.80267  0.52058  1.0000
  H   H132      1.0  0.27128  0.80199  0.44132  1.0000
  C   C87       1.0  0.22076  0.84556  0.07140  1.0000
  H   H133      1.0  0.20848  0.84618  0.08828  1.0000
  H   H134      1.0  0.04624  0.86504  0.47873  1.0000
  C   C88       1.0  0.23409  0.88673  0.11445  1.0000
  H   H135      1.0  0.25710  0.58485  0.20248  1.0000
  S   S37       1.0  0.22721  0.58820  0.12532  1.0000
  H   H136      1.0  0.24722  0.65100  0.10600  1.0000
  S   S38       1.0  0.17768  0.57468  0.08786  1.0000
  C   C89       1.0  0.18414  0.60053  0.19142  1.0000
  H   H137      1.0  0.13955  0.57280  0.06746  1.0000
  Fe  Fe17      1.0  0.24509  0.58089  0.07435  1.0000
  H   H138      1.0  0.26509  0.85736  0.09406  1.0000
  H   H139      1.0  0.25016  0.68133  0.52224  1.0000
  S   S39       1.0  0.26273  0.76267  0.07749  1.0000
  H   H140      1.0  0.27483  0.64506  0.50256  1.0000
  C   C90       1.0  0.25262  0.70073  0.09217  1.0000
  H   H141      1.0  0.25166  0.83561  0.15277  1.0000
  C   C91       1.0  0.17868  0.56756  0.24992  1.0000
  H   H142      1.0  0.27934  0.91940  0.12673  1.0000
  H   H143      1.0  0.17110  0.59436  0.17493  1.0000
  C   C92       1.0  0.20883  0.58273  0.23939  1.0000
  C   C93       1.0  0.25942  0.57699  0.23401  1.0000
  N   N10       1.0  0.19137  0.57385  0.21892  1.0000
  C   C94       1.0  0.26174  0.04213  0.32088  1.0000
  H   H144      1.0  0.21479  0.56289  0.25993  1.0000
  H   H145      1.0  0.24718  0.71007  0.11933  1.0000
  S   S40       1.0  0.27799  0.58849  0.45381  1.0000
  H   H146      1.0  0.22229  0.88847  0.13281  1.0000
  C   C95       1.0  0.25261  0.66735  0.08464  1.0000
  H   H147      1.0  0.26001  0.00296  0.27822  1.0000
  H   H148      1.0  0.18203  0.62325  0.20838  1.0000
  S   S41       1.0  0.21889  0.04274  0.13398  1.0000
  H   H149      1.0  0.25145  0.87162  0.04949  1.0000
  Fe  Fe18      1.0  0.24233  0.01775  0.10738  1.0000
  S   S42       1.0  0.24996  0.96539  0.12025  1.0000
  C   C96       1.0  0.25228  0.04854  0.24848  1.0000
  C   C97       1.0  0.25822  0.02875  0.28217  1.0000
  H   H150      1.0  0.23192  0.90522  0.08949  1.0000
  H   H151      1.0  0.18374  0.01977  0.05139  1.0000
  H   H152      1.0  0.24127  0.80528  0.12125  1.0000
  H   H153      1.0  0.16542  0.56064  0.23536  1.0000
  H   H154      1.0  0.03905  0.75840  0.51630  1.0000
  C   C98       1.0  0.03072  0.77433  0.53321  1.0000
  H   H155      1.0  0.04014  0.89067  0.40931  1.0000
  C   C99       1.0  0.25262  0.85299  0.07435  1.0000
  C   C100      1.0  0.25868  0.92597  0.53665  1.0000
  H   H156      1.0  0.22786  0.83074  0.15145  1.0000
  H   H157      1.0  0.23732  0.78061  0.51291  1.0000
  S   S43       1.0  0.27093  0.03011  0.48076  1.0000
  H   H158      1.0  0.24636  0.92707  0.51688  1.0000
  H   H159      1.0  0.26611  0.75091  0.50713  1.0000
  H   H160      1.0  0.25122  0.60533  0.51937  1.0000
  H   H161      1.0  0.25122  0.78021  0.44673  1.0000
  C   C101      1.0  0.26188  0.94688  0.08280  1.0000
  H   H162      1.0  0.20759  0.60483  0.25803  1.0000
  H   H163      1.0  0.19336  0.60568  0.16744  1.0000
  C   C102      1.0  0.24607  0.58248  0.53130  1.0000
  H   H164      1.0  0.22235  0.82082  0.05881  1.0000
  N   N11       1.0  0.23673  0.85392  0.09818  1.0000
  H   H165      1.0  0.04106  0.83103  0.41728  1.0000
  C   C103      1.0  0.27569  0.92426  0.09462  1.0000
  C   C104      1.0  0.23948  0.83037  0.13245  1.0000
  S   S44       1.0  0.26931  0.01648  0.36214  1.0000
  C   C105      1.0  0.26030  0.72177  0.06538  1.0000
  H   H166      1.0  0.21876  0.58739  0.21680  1.0000
  H   H167      1.0  0.27376  0.61941  0.25315  1.0000
  H   H168      1.0  0.25452  0.82909  0.05989  1.0000
  N   N12       1.0  0.26216  0.80258  0.50157  1.0000
  C   C106      1.0  0.27187  0.83203  0.51342  1.0000
  C   C107      1.0  0.26563  0.55666  0.31577  1.0000
  H   H169      1.0  0.27073  0.96377  0.50402  1.0000
  C   C108      1.0  0.26882  0.59650  0.26266  1.0000
  C   C109      1.0  0.26038  0.65513  0.05043  1.0000
  H   H170      1.0  0.04469  0.55726  0.09805  1.0000
  H   H171      1.0  0.24597  0.89400  0.13452  1.0000
  H   H172      1.0  0.24945  0.03796  0.21877  1.0000
  C   C110      1.0  0.27690  0.66006  0.52904  1.0000
  C   C111      1.0  0.27244  0.94696  0.52948  1.0000
  C   C112      1.0  0.27311  0.77353  0.51550  1.0000
  H   H173      1.0  0.25034  0.82370  0.44526  1.0000
  H   H174      1.0  0.03570  0.98722  0.05687  1.0000
  C   C113      1.0  0.25859  0.80208  0.45668  1.0000
  H   H175      1.0  0.26391  0.85438  0.50353  1.0000
  C   C114      1.0  0.27209  0.58621  0.30352  1.0000
  C   C115      1.0  0.03151  0.86616  0.48120  1.0000
  Fe  Fe19      1.0  0.20699  0.56130  0.08551  1.0000
  H   H176      1.0  0.23634  0.82435  0.51111  1.0000
  C   C116      1.0  0.26298  0.68081  0.54009  1.0000
  H   H177      1.0  0.24741  0.56376  0.50749  1.0000
  H   H178      1.0  0.23152  0.58657  0.53459  1.0000
  C   C117      1.0  0.03107  0.01171  0.04895  1.0000
  H   H179      1.0  0.05745  0.05276  0.17325  1.0000
  H   H180      1.0  0.26410  0.76779  0.87302  1.0000
  H   H181      1.0  0.26568  0.00026  0.66194  1.0000
  H   H182      1.0  0.26122  0.59117  0.63091  1.0000
  H   H183      1.0  0.11518  0.63094  0.89854  1.0000
  H   H184      1.0  0.27585  0.77287  0.54931  1.0000
  H   H185      1.0  0.25521  0.03997  0.65674  1.0000
  C   C118      1.0  0.26558  0.70103  0.57388  1.0000
  H   H186      1.0  0.24719  0.80321  0.55434  1.0000
  H   H187      1.0  0.25867  0.04100  0.58146  1.0000
  S   S45       1.0  0.08100  0.59621  0.92234  1.0000
  H   H188      1.0  0.03626  0.67899  0.63086  1.0000
  S   S46       1.0  0.05720  0.59907  0.80932  1.0000
  H   H189      1.0  0.26270  0.94168  0.97966  1.0000
  N   N13       1.0  0.25592  0.57237  0.57048  1.0000
  C   C119      1.0  0.16279  0.57062  0.96650  1.0000
  H   H190      1.0  0.25979  0.62110  0.59080  1.0000
  S   S47       1.0  0.05731  0.57052  0.02011  1.0000
  H   H191      1.0  0.03086  0.69129  0.72140  1.0000
  H   H192      1.0  0.27255  0.72576  0.00864  1.0000
  C   C120      1.0  0.06231  0.69375  0.83740  1.0000
  C   C121      1.0  0.06028  0.66022  0.84094  1.0000
  C   C122      1.0  0.06027  0.64093  0.80629  1.0000
  C   C123      1.0  0.06266  0.65517  0.76831  1.0000
  C   C124      1.0  0.06517  0.68854  0.76501  1.0000
  H   H193      1.0  0.06193  0.70871  0.86415  1.0000
  H   H194      1.0  0.05825  0.64945  0.87026  1.0000
  H   H195      1.0  0.06276  0.64023  0.74149  1.0000
  C   C125      1.0  0.13824  0.63773  0.84115  1.0000
  C   C126      1.0  0.17313  0.57184  0.00403  1.0000
  C   C127      1.0  0.26081  0.90353  0.56906  1.0000
  N   N14       1.0  0.11853  0.64238  0.83571  1.0000
  H   H196      1.0  0.03206  0.81765  0.62072  1.0000
  C   C128      1.0  0.25406  0.59810  0.60087  1.0000
  C   C129      1.0  0.11048  0.61228  0.82023  1.0000
  H   H197      1.0  0.22338  0.77308  0.86617  1.0000
  C   C130      1.0  0.03768  0.78715  0.57032  1.0000
  C   C131      1.0  0.11164  0.65043  0.87536  1.0000
  H   H198      1.0  0.14387  0.63149  0.81186  1.0000
  H   H199      1.0  0.27460  0.03287  0.69225  1.0000
  C   C132      1.0  0.11373  0.66906  0.80614  1.0000
  H   H200      1.0  0.14228  0.61772  0.86335  1.0000
  C   C133      1.0  0.14619  0.86339  0.70701  1.0000
  H   H201      1.0  0.09678  0.65359  0.87247  1.0000
  H   H202      1.0  0.11855  0.66380  0.77569  1.0000
  H   H203      1.0  0.09897  0.67321  0.80167  1.0000
  C   C134      1.0  0.06477  0.70799  0.79944  1.0000
  H   H204      1.0  0.06728  0.69919  0.73584  1.0000
  S   S48       1.0  0.13162  0.56856  0.91752  1.0000
  C   C135      1.0  0.03672  0.55624  0.03355  1.0000
  C   C136      1.0  0.26742  0.67636  0.02301  1.0000
  C   C137      1.0  0.25730  0.95340  0.04135  1.0000
  Fe  Fe20      1.0  0.06738  0.55913  0.95859  1.0000
  H   H205      1.0  0.23975  0.60342  0.60583  1.0000
  H   H206      1.0  0.11508  0.60567  0.79002  1.0000
  C   C138      1.0  0.14408  0.56972  0.96525  1.0000
  H   H207      1.0  0.21842  0.86281  0.04510  1.0000
  H   H208      1.0  0.26784  0.00019  0.58780  1.0000
  H   H209      1.0  0.15799  0.98593  0.02854  1.0000
  H   H210      1.0  0.11954  0.69221  0.81676  1.0000
  Fe  Fe21      1.0  0.24850  0.83927  0.62601  1.0000
  H   H211      1.0  0.26426  0.81729  0.80375  1.0000
  H   H212      1.0  0.16664  0.89267  0.62651  1.0000
  Fe  Fe22      1.0  0.23125  0.80449  0.69473  1.0000
  S   S49       1.0  0.25297  0.76549  0.70152  1.0000
  S   S50       1.0  0.20893  0.80995  0.73660  1.0000
  Fe  Fe23      1.0  0.27150  0.80678  0.69610  1.0000
  H   H213      1.0  0.25103  0.79213  0.90502  1.0000
  Fe  Fe24      1.0  0.25123  0.76621  0.63260  1.0000
  S   S51       1.0  0.12565  0.99981  0.97639  1.0000
  S   S52       1.0  0.24988  0.84572  0.69365  1.0000
  S   S53       1.0  0.22776  0.80164  0.62678  1.0000
  Fe  Fe25      1.0  0.11115  0.76900  0.69176  1.0000
  S   S54       1.0  0.10562  0.79364  0.74984  1.0000
  S   S55       1.0  0.13679  0.74286  0.67843  1.0000
  Fe  Fe26      1.0  0.07401  0.78678  0.65005  1.0000
  S   S56       1.0  0.06524  0.81344  0.70475  1.0000
  S   S57       1.0  0.27182  0.80392  0.62793  1.0000
  Fe  Fe27      1.0  0.09293  0.83346  0.70933  1.0000
  S   S58       1.0  0.10186  0.88447  0.72047  1.0000
  Fe  Fe28      1.0  0.07865  0.77137  0.74090  1.0000
  S   S59       1.0  0.10057  0.81031  0.65149  1.0000
  S   S60       1.0  0.08525  0.74322  0.68606  1.0000
  Fe  Fe29      1.0  0.07308  0.01249  0.87417  1.0000
  H   H214      1.0  0.13535  0.84619  0.71141  1.0000
  S   S61       1.0  0.05974  0.97055  0.84180  1.0000
  H   H215      1.0  0.16482  0.82427  0.65909  1.0000
  H   H216      1.0  0.22046  0.77857  0.81169  1.0000
  C   C139      1.0  0.25742  0.79203  0.87568  1.0000
  S   S62       1.0  0.07519  0.00881  0.94264  1.0000
  S   S63       1.0  0.27891  0.80594  0.97987  1.0000
  H   H217      1.0  0.26819  0.81001  0.87797  1.0000
  Fe  Fe30      1.0  0.06732  0.57267  0.86764  1.0000
  H   H218      1.0  0.15860  0.85374  0.72436  1.0000
  S   S64       1.0  0.05984  0.77596  0.58838  1.0000
  H   H219      1.0  0.15378  0.83853  0.61148  1.0000
  S   S65       1.0  0.24759  0.72630  0.58652  1.0000
  H   H220      1.0  0.13389  0.88751  0.60919  1.0000
  C   C140      1.0  0.27121  0.02617  0.58909  1.0000
  C   C141      1.0  0.26641  0.93697  0.01177  1.0000
  H   H221      1.0  0.05215  0.01984  0.00955  1.0000
  C   C142      1.0  0.09002  0.90823  0.75408  1.0000
  C   C143      1.0  0.09642  0.93853  0.76576  1.0000
  C   C144      1.0  0.08718  0.95801  0.79242  1.0000
  C   C145      1.0  0.07141  0.94737  0.80727  1.0000
  C   C146      1.0  0.06498  0.91712  0.79544  1.0000
  C   C147      1.0  0.07434  0.89746  0.76921  1.0000
  H   H222      1.0  0.10849  0.94708  0.75396  1.0000
  H   H223      1.0  0.09212  0.98144  0.80097  1.0000
  H   H224      1.0  0.05275  0.90880  0.80675  1.0000
  H   H225      1.0  0.06927  0.87418  0.76032  1.0000
  N   N15       1.0  0.24421  0.79917  0.84049  1.0000
  C   C148      1.0  0.18932  0.78948  0.72177  1.0000
  C   C149      1.0  0.17411  0.79462  0.74325  1.0000
  C   C150      1.0  0.15788  0.78045  0.73014  1.0000
  C   C151      1.0  0.15699  0.76025  0.69625  1.0000
  C   C152      1.0  0.17240  0.75411  0.67576  1.0000
  C   C153      1.0  0.18851  0.76896  0.68821  1.0000
  H   H226      1.0  0.17478  0.81010  0.76961  1.0000
  H   H227      1.0  0.14611  0.78489  0.74643  1.0000
  H   H228      1.0  0.17179  0.73831  0.64968  1.0000
  H   H229      1.0  0.20024  0.76454  0.67177  1.0000
  C   C154      1.0  0.23062  0.77402  0.83801  1.0000
  C   C155      1.0  0.16483  0.57262  0.04056  1.0000
  C   C156      1.0  0.13570  0.57042  0.00172  1.0000
  C   C157      1.0  0.13249  0.88361  0.64229  1.0000
  H   H230      1.0  0.12057  0.86869  0.64511  1.0000
  H   H231      1.0  0.03969  0.76443  0.66145  1.0000
  N   N16       1.0  0.10126  0.91458  0.91586  1.0000
  C   C158      1.0  0.11776  0.89458  0.92601  1.0000
  C   C159      1.0  0.08797  0.89565  0.89131  1.0000
  C   C160      1.0  0.10565  0.94332  0.89214  1.0000
  C   C161      1.0  0.09369  0.92501  0.95390  1.0000
  H   H232      1.0  0.12384  0.88658  0.89787  1.0000
  H   H233      1.0  0.11499  0.87260  0.94388  1.0000
  H   H234      1.0  0.12797  0.90844  0.94457  1.0000
  H   H235      1.0  0.07524  0.91004  0.88398  1.0000
  H   H236      1.0  0.09295  0.88835  0.86162  1.0000
  H   H237      1.0  0.08456  0.87337  0.90779  1.0000
  H   H238      1.0  0.09358  0.95927  0.88494  1.0000
  H   H239      1.0  0.11093  0.93658  0.86262  1.0000
  H   H240      1.0  0.11586  0.95801  0.90932  1.0000
  H   H241      1.0  0.10298  0.94090  0.97215  1.0000
  H   H242      1.0  0.09089  0.90402  0.97350  1.0000
  H   H243      1.0  0.08081  0.93902  0.94715  1.0000
  H   H244      1.0  0.11725  0.67318  0.88782  1.0000
  C   C162      1.0  0.25345  0.79940  0.80254  1.0000
  H   H245      1.0  0.25961  0.77528  0.79680  1.0000
  H   H246      1.0  0.16216  0.91273  0.67309  1.0000
  S   S66       1.0  0.10156  0.02676  0.87056  1.0000
  C   C163      1.0  0.16428  0.88865  0.65915  1.0000
  H   H247      1.0  0.23687  0.74963  0.83380  1.0000
  H   H248      1.0  0.09560  0.61458  0.81663  1.0000
  C   C164      1.0  0.04037  0.03012  0.02195  1.0000
  H   H249      1.0  0.11407  0.59156  0.84153  1.0000
  C   C165      1.0  0.17283  0.02985  0.03103  1.0000
  N   N17       1.0  0.14880  0.86796  0.66327  1.0000
  S   S67       1.0  0.06701  0.75009  0.79592  1.0000
  H   H250      1.0  0.24538  0.85062  0.84713  1.0000
  C   C166      1.0  0.23542  0.83119  0.84550  1.0000
  Fe  Fe31      1.0  0.10299  0.02651  0.93899  1.0000
  C   C167      1.0  0.14395  0.02382  0.99198  1.0000
  H   H251      1.0  0.24405  0.80586  0.77553  1.0000
  H   H252      1.0  0.14226  0.88654  0.72133  1.0000
  C   C168      1.0  0.15229  0.83621  0.64476  1.0000
  H   H253      1.0  0.17684  0.87738  0.67454  1.0000
  S   S68       1.0  0.24335  0.87730  0.57658  1.0000
  H   H254      1.0  0.27862  0.88464  0.61921  1.0000
  S   S69       1.0  0.22390  0.55869  0.03251  1.0000
  C   C169      1.0  0.14607  0.57212  0.03933  1.0000
  H   H255      1.0  0.14122  0.81939  0.64863  1.0000
  H   H256      1.0  0.22539  0.83715  0.81922  1.0000
  H   H257      1.0  0.12933  0.90745  0.65590  1.0000
  C   C170      1.0  0.03401  0.74865  0.68440  1.0000
  H   H258      1.0  0.14475  0.65990  0.85300  1.0000
  Fe  Fe32      1.0  0.10241  0.55760  0.91790  1.0000
  H   H259      1.0  0.12124  0.56989  0.00096  1.0000
  H   H260      1.0  0.22831  0.83205  0.87386  1.0000
  H   H261      1.0  0.04669  0.71653  0.62179  1.0000
  C   C171      1.0  0.15825  0.01075  0.01807  1.0000
  H   H262      1.0  0.05262  0.69425  0.66826  1.0000
  H   H263      1.0  0.16933  0.57013  0.93839  1.0000
  C   C172      1.0  0.27508  0.56673  0.56439  1.0000
  H   H264      1.0  0.24646  0.97050  0.03209  1.0000
  C   C173      1.0  0.26838  0.02658  0.66155  1.0000
  H   H265      1.0  0.27334  0.66705  0.99638  1.0000
  H   H266      1.0  0.04488  0.74288  0.70889  1.0000
  C   C174      1.0  0.27683  0.90200  0.59422  1.0000
  H   H267      1.0  0.18751  0.57257  0.00457  1.0000
  C   C175      1.0  0.04121  0.70138  0.64577  1.0000
  C   C176      1.0  0.26721  0.70961  0.03024  1.0000
  H   H268      1.0  0.25374  0.56985  0.97517  1.0000
  S   S70       1.0  0.23704  0.04065  0.04517  1.0000
  S   S71       1.0  0.26331  0.61347  0.04329  1.0000
  H   H269      1.0  0.27928  0.99622  0.99159  1.0000
  H   H270      1.0  0.27462  0.83348  0.54714  1.0000
  N   N18       1.0  0.49533  0.08794  0.25519  1.0000
  Fe  Fe33      1.0  0.45893  0.08887  0.37418  1.0000
  C   C177      1.0  0.49537  0.11655  0.28176  1.0000
  N   N19       1.0  0.52117  0.37084  0.21420  1.0000
  C   C178      1.0  0.31433  0.05587  0.34370  1.0000
  H   H271      1.0  0.28228  0.37368  0.11242  1.0000
  Fe  Fe34      1.0  0.44933  0.30780  0.12421  1.0000
  S   S72       1.0  0.47286  0.33642  0.14734  1.0000
  N   N20       1.0  0.31542  0.08556  0.31883  1.0000
  Fe  Fe35      1.0  0.46279  0.24724  0.17073  1.0000
  S   S73       1.0  0.48729  0.27067  0.19884  1.0000
  S   S74       1.0  0.45603  0.19523  0.18129  1.0000
  Fe  Fe36      1.0  0.46902  0.31367  0.20774  1.0000
  S   S75       1.0  0.47179  0.34265  0.26558  1.0000
  Fe  Fe37      1.0  0.48944  0.29183  0.13625  1.0000
  S   S76       1.0  0.51764  0.29809  0.11852  1.0000
  S   S77       1.0  0.44420  0.28816  0.18580  1.0000
  S   S78       1.0  0.46621  0.26503  0.10680  1.0000
  S   S79       1.0  0.46140  0.14236  0.36332  1.0000
  H   H272      1.0  0.40181  0.08025  0.40267  1.0000
  S   S80       1.0  0.42691  0.33521  0.08760  1.0000
  C   C179      1.0  0.30825  0.37282  0.52530  1.0000
  C   C180      1.0  0.36908  0.53798  0.42366  1.0000
  C   C181      1.0  0.45593  0.18231  0.23244  1.0000
  C   C182      1.0  0.46337  0.20088  0.26443  1.0000
  C   C183      1.0  0.46443  0.18881  0.30473  1.0000
  C   C184      1.0  0.45811  0.15814  0.31320  1.0000
  C   C185      1.0  0.45013  0.14003  0.28137  1.0000
  C   C186      1.0  0.44905  0.15213  0.24107  1.0000
  H   H273      1.0  0.46859  0.22429  0.25809  1.0000
  H   H274      1.0  0.47050  0.20301  0.32932  1.0000
  H   H275      1.0  0.44490  0.11667  0.28774  1.0000
  H   H276      1.0  0.44299  0.13798  0.21642  1.0000
  H   H277      1.0  0.33585  0.11421  0.29561  1.0000
  H   H278      1.0  0.31184  0.06072  0.26169  1.0000
  H   H279      1.0  0.49284  0.11652  0.19987  1.0000
  H   H280      1.0  0.39075  0.35338  0.05936  1.0000
  H   H281      1.0  0.39205  0.34840  0.14832  1.0000
  H   H282      1.0  0.46769  0.09416  0.23219  1.0000
  C   C187      1.0  0.40104  0.53773  0.41428  1.0000
  H   H283      1.0  0.29507  0.43640  0.09581  1.0000
  C   C188      1.0  0.51509  0.33895  0.22683  1.0000
  S   S81       1.0  0.31113  0.54524  0.50144  1.0000
  S   S82       1.0  0.30786  0.06332  0.52038  1.0000
  C   C189      1.0  0.37445  0.08647  0.41848  1.0000
  H   H284      1.0  0.32289  0.36762  0.53173  1.0000
  H   H285      1.0  0.50170  0.07603  0.19448  1.0000
  C   C190      1.0  0.40840  0.31182  0.07306  1.0000
  H   H286      1.0  0.42401  0.41201  0.17890  1.0000
  H   H287      1.0  0.30203  0.33247  0.46208  1.0000
  H   H288      1.0  0.48716  0.13701  0.26695  1.0000
  C   C191      1.0  0.40087  0.34270  0.17665  1.0000
  S   S83       1.0  0.33968  0.09452  0.43794  1.0000
  S   S84       1.0  0.44888  0.07072  0.43247  1.0000
  H   H289      1.0  0.30605  0.10330  0.25872  1.0000
  H   H290      1.0  0.50232  0.33309  0.20945  1.0000
  H   H291      1.0  0.45893  0.38529  0.19802  1.0000
  H   H292      1.0  0.41174  0.32607  0.16756  1.0000
  H   H293      1.0  0.51253  0.33830  0.25974  1.0000
  H   H294      1.0  0.52132  0.07006  0.28018  1.0000
  H   H295      1.0  0.31382  0.11683  0.37034  1.0000
  H   H296      1.0  0.50369  0.39626  0.25266  1.0000
  C   C192      1.0  0.35909  0.07111  0.42949  1.0000
  C   C193      1.0  0.33445  0.09207  0.31441  1.0000
  C   C194      1.0  0.46546  0.43682  0.29571  1.0000
  H   H297      1.0  0.43131  0.34776  0.22653  1.0000
  C   C195      1.0  0.30705  0.11309  0.33932  1.0000
  H   H298      1.0  0.37434  0.11256  0.41581  1.0000
  S   S85       1.0  0.48824  0.53538  0.33495  1.0000
  C   C196      1.0  0.39511  0.25982  0.06067  1.0000
  H   H299      1.0  0.29659  0.29814  0.49215  1.0000
  H   H300      1.0  0.39643  0.23370  0.06055  1.0000
  H   H301      1.0  0.30775  0.13599  0.32161  1.0000
  C   C197      1.0  0.49982  0.54680  0.49932  1.0000
  S   S86       1.0  0.31078  0.38673  0.04913  1.0000
  H   H302      1.0  0.32189  0.05797  0.37409  1.0000
  N   N21       1.0  0.29804  0.34284  0.52468  1.0000
  C   C198      1.0  0.52459  0.37010  0.17055  1.0000
  H   H303      1.0  0.52498  0.31916  0.22121  1.0000
  H   H304      1.0  0.39295  0.32910  0.19785  1.0000
  H   H305      1.0  0.31861  0.31422  0.49881  1.0000
  C   C199      1.0  0.46896  0.40322  0.29774  1.0000
  C   C200      1.0  0.46067  0.39944  0.22531  1.0000
  C   C201      1.0  0.30412  0.32099  0.49297  1.0000
  S   S87       1.0  0.44316  0.05435  0.33425  1.0000
  C   C202      1.0  0.28644  0.43344  0.06808  1.0000
  C   C203      1.0  0.50730  0.06215  0.27484  1.0000
  C   C204      1.0  0.52294  0.50445  0.50528  1.0000
  H   H306      1.0  0.37532  0.54068  0.51001  1.0000
  S   S88       1.0  0.28823  0.08983  0.43236  1.0000
  Fe  Fe38      1.0  0.32411  0.54561  0.44230  1.0000
  H   H307      1.0  0.41397  0.52510  0.41594  1.0000
  Fe  Fe39      1.0  0.31529  0.06876  0.45602  1.0000
  Fe  Fe40      1.0  0.28024  0.07999  0.49575  1.0000
  S   S89       1.0  0.48428  0.05800  0.38095  1.0000
  N   N22       1.0  0.40816  0.37229  0.19554  1.0000
  H   H308      1.0  0.51230  0.36405  0.15099  1.0000
  H   H309      1.0  0.41096  0.39429  0.13685  1.0000
  H   H310      1.0  0.34191  0.09577  0.34477  1.0000
  C   C205      1.0  0.39322  0.39410  0.20581  1.0000
  H   H311      1.0  0.49457  0.39107  0.20110  1.0000
  H   H312      1.0  0.41213  0.35045  0.25558  1.0000
  H   H313      1.0  0.38480  0.38232  0.22763  1.0000
  C   C206      1.0  0.41891  0.38887  0.16645  1.0000
  H   H314      1.0  0.43070  0.37355  0.15932  1.0000
  H   H315      1.0  0.38437  0.40126  0.17804  1.0000
  H   H316      1.0  0.34131  0.07154  0.29979  1.0000
  C   C207      1.0  0.41964  0.36362  0.23317  1.0000
  C   C208      1.0  0.46660  0.38446  0.26254  1.0000
  H   H317      1.0  0.47355  0.39180  0.32669  1.0000
  H   H318      1.0  0.48973  0.11116  0.31133  1.0000
  H   H319      1.0  0.51548  0.10620  0.21903  1.0000
  C   C209      1.0  0.50712  0.39581  0.22031  1.0000
  S   S90       1.0  0.29918  0.53146  0.40478  1.0000
  S   S91       1.0  0.35072  0.51829  0.44177  1.0000
  C   C210      1.0  0.52166  0.29362  0.06673  1.0000
  C   C211      1.0  0.50166  0.09703  0.21536  1.0000
  Fe  Fe41      1.0  0.47837  0.52767  0.39692  1.0000
  H   H320      1.0  0.30613  0.38623  0.49565  1.0000
  S   S92       1.0  0.49723  0.49880  0.44180  1.0000
  Fe  Fe42      1.0  0.46036  0.52289  0.31157  1.0000
  S   S93       1.0  0.45502  0.49369  0.25449  1.0000
  S   S94       1.0  0.45098  0.51159  0.37321  1.0000
  C   C212      1.0  0.50709  0.51786  0.48534  1.0000
  C   C213      1.0  0.45720  0.43298  0.22323  1.0000
  C   C214      1.0  0.45956  0.45175  0.25840  1.0000
  H   H321      1.0  0.46732  0.45114  0.32301  1.0000
  H   H322      1.0  0.45279  0.44453  0.19427  1.0000
  H   H323      1.0  0.42515  0.38546  0.24852  1.0000
  C   C215      1.0  0.39197  0.32726  0.05997  1.0000
  C   C216      1.0  0.38586  0.52171  0.42527  1.0000
  Fe  Fe43      1.0  0.28572  0.53585  0.46318  1.0000
  H   H324      1.0  0.38717  0.49672  0.43542  1.0000
  H   H325      1.0  0.42252  0.26600  0.08442  1.0000
  C   C217      1.0  0.30583  0.08117  0.27817  1.0000
  C   C218      1.0  0.47695  0.07602  0.24872  1.0000
  H   H326      1.0  0.50912  0.12533  0.28892  1.0000
  H   H327      1.0  0.39827  0.41667  0.22021  1.0000
  C   C219      1.0  0.40989  0.27807  0.07411  1.0000
  H   H328      1.0  0.29266  0.10905  0.34301  1.0000
  H   H329      1.0  0.51131  0.42040  0.21211  1.0000
  C   C220      1.0  0.39001  0.06824  0.41104  1.0000
  H   H330      1.0  0.52853  0.48190  0.49478  1.0000
  H   H331      1.0  0.47143  0.07034  0.27827  1.0000
  H   H332      1.0  0.29149  0.07572  0.28075  1.0000
  H   H333      1.0  0.51252  0.06222  0.46802  1.0000
  S   S95       1.0  0.31458  0.29475  0.04945  1.0000
  C   C221      1.0  0.37707  0.30899  0.04762  1.0000
  H   H334      1.0  0.29457  0.48875  0.53807  1.0000
  C   C222      1.0  0.28416  0.47217  0.54341  1.0000
  H   H335      1.0  0.28902  0.31524  0.11088  1.0000
  H   H336      1.0  0.50279  0.05475  0.30489  1.0000
  H   H337      1.0  0.52908  0.39377  0.15967  1.0000
  C   C223      1.0  0.37872  0.27524  0.04711  1.0000
  H   H338      1.0  0.47656  0.05344  0.23060  1.0000
  H   H339      1.0  0.44978  0.05383  0.52122  1.0000
  C   C224      1.0  0.51735  0.05330  0.49813  1.0000
  Fe  Fe44      1.0  0.31351  0.30590  0.93255  1.0000
  H   H340      1.0  0.39619  0.27843  0.87206  1.0000
  S   S96       1.0  0.31747  0.31374  0.86621  1.0000
  Fe  Fe45      1.0  0.33523  0.27963  0.00756  1.0000
  H   H341      1.0  0.36442  0.32107  0.03784  1.0000
  C   C225      1.0  0.29885  0.30451  0.83267  1.0000
  H   H342      1.0  0.35520  0.32335  0.89951  1.0000
  C   C226      1.0  0.29128  0.41104  0.03899  1.0000
  S   S97       1.0  0.31552  0.25673  0.96233  1.0000
  S   S98       1.0  0.33458  0.32760  0.97542  1.0000
  C   C227      1.0  0.28008  0.40728  0.00327  1.0000
  C   C228      1.0  0.38255  0.29216  0.94319  1.0000
  S   S99       1.0  0.29058  0.32371  0.96706  1.0000
  C   C229      1.0  0.28351  0.06959  0.62966  1.0000
  C   C230      1.0  0.35837  0.25958  0.91594  1.0000
  H   H343      1.0  0.39143  0.24156  0.89781  1.0000
  H   H344      1.0  0.52634  0.25311  0.76039  1.0000
  H   H345      1.0  0.39368  0.30805  0.93668  1.0000
  C   C231      1.0  0.50523  0.21905  0.80631  1.0000
  H   H346      1.0  0.37811  0.25414  0.85194  1.0000
  H   H347      1.0  0.30916  0.32758  0.78084  1.0000
  N   N23       1.0  0.52062  0.23847  0.82093  1.0000
  H   H348      1.0  0.38836  0.27145  0.96246  1.0000
  H   H349      1.0  0.35678  0.30168  0.85327  1.0000
  Fe  Fe46      1.0  0.29465  0.27642  0.00131  1.0000
  C   C232      1.0  0.51136  0.28401  0.99597  1.0000
  N   N24       1.0  0.37272  0.28100  0.90532  1.0000
  H   H350      1.0  0.29309  0.51744  0.01304  1.0000
  C   C233      1.0  0.28473  0.28729  0.84643  1.0000
  H   H351      1.0  0.50054  0.27916  0.97319  1.0000
  C   C234      1.0  0.36468  0.30921  0.88164  1.0000
  H   H352      1.0  0.37505  0.32593  0.87281  1.0000
  Fe  Fe47      1.0  0.31195  0.34092  0.01295  1.0000
  H   H353      1.0  0.34898  0.27239  0.93502  1.0000
  C   C235      1.0  0.28684  0.44913  0.57522  1.0000
  C   C236      1.0  0.52493  0.55000  0.55121  1.0000
  H   H354      1.0  0.35028  0.25126  0.88828  1.0000
  H   H355      1.0  0.36383  0.23798  0.93397  1.0000
  C   C237      1.0  0.38519  0.26298  0.88063  1.0000
  H   H356      1.0  0.28856  0.20499  0.97440  1.0000
  H   H357      1.0  0.29054  0.07690  0.65910  1.0000
  H   H358      1.0  0.37350  0.30613  0.96222  1.0000
  H   H359      1.0  0.28508  0.27977  0.87811  1.0000
  C   C238      1.0  0.51416  0.27114  0.83181  1.0000
  C   C239      1.0  0.29829  0.31415  0.79155  1.0000
  H   H360      1.0  0.29659  0.34239  0.58972  1.0000
  H   H361      1.0  0.49771  0.23038  0.77886  1.0000
  C   C240      1.0  0.28299  0.19215  0.99894  1.0000
  H   H362      1.0  0.29935  0.44809  0.59429  1.0000
  H   H363      1.0  0.52549  0.28646  0.84266  1.0000
  S   S100      1.0  0.36096  0.25202  0.02684  1.0000
  H   H364      1.0  0.28391  0.39063  0.98024  1.0000
  H   H365      1.0  0.30400  0.38945  0.54943  1.0000
  C   C241      1.0  0.52884  0.28695  0.98433  1.0000
  H   H366      1.0  0.49569  0.21648  0.83029  1.0000
  C   C242      1.0  0.50776  0.28735  0.03706  1.0000
  H   H367      1.0  0.28975  0.14497  0.97626  1.0000
  C   C243      1.0  0.28362  0.30669  0.76421  1.0000
  H   H368      1.0  0.50671  0.28388  0.80531  1.0000
  H   H369      1.0  0.50520  0.27016  0.85717  1.0000
  H   H370      1.0  0.31528  0.31962  0.57280  1.0000
  C   C244      1.0  0.28362  0.15818  0.99997  1.0000
  H   H371      1.0  0.50971  0.19427  0.79780  1.0000
  H   H372      1.0  0.29317  0.30399  0.56587  1.0000
  C   C245      1.0  0.30091  0.32648  0.56500  1.0000
  H   H373      1.0  0.30034  0.54881  0.95140  1.0000
  H   H374      1.0  0.52143  0.22115  0.88311  1.0000
  H   H375      1.0  0.28322  0.31437  0.73262  1.0000
  H   H376      1.0  0.28930  0.49211  0.94617  1.0000
  H   H377      1.0  0.29190  0.07653  0.60472  1.0000
  H   H378      1.0  0.30820  0.06450  0.02162  1.0000
  H   H379      1.0  0.44002  0.05501  0.56928  1.0000
  H   H380      1.0  0.49425  0.28508  0.04575  1.0000
  H   H381      1.0  0.38980  0.55144  0.55358  1.0000
  H   H382      1.0  0.34870  0.54671  0.54701  1.0000
  H   H383      1.0  0.27978  0.34451  0.04677  1.0000
  H   H384      1.0  0.41230  0.71662  0.30228  1.0000
  Fe  Fe48      1.0  0.43541  0.03321  0.39329  1.0000
  S   S101      1.0  0.45009  0.57453  0.31041  1.0000
  S   S102      1.0  0.41840  0.59207  0.39173  1.0000
  Fe  Fe49      1.0  0.47714  0.58606  0.33944  1.0000
  H   H385      1.0  0.32175  0.68454  0.19165  1.0000
  H   H386      1.0  0.51696  0.64150  0.46000  1.0000
  C   C246      1.0  0.30514  0.66900  0.09467  1.0000
  H   H387      1.0  0.29583  0.89123  0.07438  1.0000
  H   H388      1.0  0.28626  0.77262  0.50208  1.0000
  H   H389      1.0  0.50564  0.60411  0.46083  1.0000
  C   C247      1.0  0.38273  0.58647  0.40038  1.0000
  H   H390      1.0  0.40493  0.01906  0.49807  1.0000
  H   H391      1.0  0.40256  0.65968  0.29797  1.0000
  H   H392      1.0  0.44951  0.63918  0.33868  1.0000
  C   C248      1.0  0.41431  0.65293  0.31970  1.0000
  Fe  Fe50      1.0  0.30452  0.59764  0.48782  1.0000
  N   N25       1.0  0.31318  0.68922  0.12770  1.0000
  Fe  Fe51      1.0  0.29339  0.58495  0.39825  1.0000
  H   H393      1.0  0.28769  0.03836  0.06584  1.0000
  S   S103      1.0  0.31939  0.59890  0.43144  1.0000
  C   C249      1.0  0.51507  0.67658  0.11494  1.0000
  S   S104      1.0  0.49140  0.63221  0.32850  1.0000
  S   S105      1.0  0.46964  0.57949  0.40343  1.0000
  C   C250      1.0  0.47204  0.68675  0.21051  1.0000
  C   C251      1.0  0.48064  0.70311  0.24321  1.0000
  C   C252      1.0  0.48691  0.68605  0.27908  1.0000
  C   C253      1.0  0.48431  0.65275  0.28260  1.0000
  C   C254      1.0  0.47583  0.63640  0.24982  1.0000
  C   C255      1.0  0.46984  0.65334  0.21374  1.0000
  H   H394      1.0  0.49347  0.69880  0.30441  1.0000
  H   H395      1.0  0.47393  0.61066  0.25215  1.0000
  H   H396      1.0  0.46322  0.64056  0.18848  1.0000
  H   H397      1.0  0.40981  0.65368  0.35114  1.0000
  H   H398      1.0  0.38146  0.61159  0.39088  1.0000
  C   C256      1.0  0.31564  0.67005  0.16609  1.0000
  H   H399      1.0  0.52805  0.63515  0.37296  1.0000
  C   C257      1.0  0.44470  0.66423  0.34455  1.0000
  C   C258      1.0  0.39018  0.03451  0.41427  1.0000
  H   H400      1.0  0.28600  0.99532  0.06646  1.0000
  H   H401      1.0  0.51408  0.67057  0.08189  1.0000
  C   C259      1.0  0.43485  0.67250  0.27323  1.0000
  H   H402      1.0  0.44310  0.00944  0.47365  1.0000
  H   H403      1.0  0.30280  0.68289  0.06539  1.0000
  H   H404      1.0  0.50008  0.72543  0.06660  1.0000
  H   H405      1.0  0.51922  0.74505  0.17071  1.0000
  S   S106      1.0  0.46355  0.70722  0.16555  1.0000
  H   H406      1.0  0.28496  0.83286  0.49986  1.0000
  H   H407      1.0  0.32452  0.64829  0.16286  1.0000
  C   C260      1.0  0.33075  0.70024  0.11667  1.0000
  S   S107      1.0  0.48513  0.02206  0.49951  1.0000
  C   C261      1.0  0.43871  0.99503  0.49936  1.0000
  H   H408      1.0  0.35462  0.58278  0.40812  1.0000
  H   H409      1.0  0.51310  0.58327  0.37410  1.0000
  H   H410      1.0  0.45635  0.68001  0.34232  1.0000
  H   H411      1.0  0.30259  0.66148  0.17531  1.0000
  C   C262      1.0  0.42380  0.70810  0.32379  1.0000
  H   H412      1.0  0.30023  0.05084  0.34901  1.0000
  N   N26       1.0  0.42941  0.67443  0.31533  1.0000
  H   H413      1.0  0.52912  0.70552  0.18215  1.0000
  H   H414      1.0  0.43493  0.72492  0.32057  1.0000
  Fe  Fe52      1.0  0.47302  0.03687  0.43621  1.0000
  H   H415      1.0  0.45070  0.98066  0.51250  1.0000
  C   C263      1.0  0.44510  0.03854  0.54604  1.0000
  H   H416      1.0  0.44614  0.68859  0.26877  1.0000
  H   H417      1.0  0.33696  0.71669  0.14000  1.0000
  H   H418      1.0  0.44095  0.66452  0.37663  1.0000
  H   H419      1.0  0.43931  0.64743  0.26596  1.0000
  C   C264      1.0  0.36938  0.82347  0.06452  1.0000
  H   H420      1.0  0.41818  0.62726  0.31387  1.0000
  H   H421      1.0  0.29904  0.73266  0.10506  1.0000
  H   H422      1.0  0.41965  0.71040  0.35540  1.0000
  S   S108      1.0  0.28414  0.61059  0.33890  1.0000
  H   H423      1.0  0.42368  0.67987  0.25022  1.0000
  Fe  Fe53      1.0  0.28167  0.03806  0.42001  1.0000
  C   C265      1.0  0.35936  0.03742  0.43297  1.0000
  H   H424      1.0  0.36568  0.61099  0.48243  1.0000
  C   C266      1.0  0.50086  0.72888  0.10022  1.0000
  C   C267      1.0  0.30117  0.71759  0.13335  1.0000
  H   H425      1.0  0.30586  0.01336  0.08890  1.0000
  H   H426      1.0  0.38793  0.90400  0.18298  1.0000
  S   S109      1.0  0.30915  0.01756  0.44009  1.0000
  C   C268      1.0  0.51763  0.71875  0.16511  1.0000
  Fe  Fe54      1.0  0.29898  0.01387  0.50212  1.0000
  C   C269      1.0  0.28490  0.90809  0.06506  1.0000
  H   H427      1.0  0.48737  0.55685  0.48477  1.0000
  S   S110      1.0  0.30181  0.82186  0.06692  1.0000
  Fe  Fe55      1.0  0.44563  0.82146  0.12255  1.0000
  S   S111      1.0  0.46727  0.85416  0.14654  1.0000
  S   S112      1.0  0.42155  0.84574  0.08751  1.0000
  Fe  Fe56      1.0  0.46509  0.76155  0.16130  1.0000
  S   S113      1.0  0.48791  0.78959  0.18962  1.0000
  Fe  Fe57      1.0  0.46666  0.82608  0.20483  1.0000
  S   S114      1.0  0.46310  0.84892  0.26571  1.0000
  Fe  Fe58      1.0  0.48650  0.81520  0.12857  1.0000
  S   S115      1.0  0.51253  0.82777  0.10282  1.0000
  S   S116      1.0  0.44388  0.79544  0.18203  1.0000
  S   S117      1.0  0.46489  0.78488  0.09896  1.0000
  Fe  Fe59      1.0  0.44308  0.56454  0.37425  1.0000
  C   C270      1.0  0.39953  0.57029  0.40233  1.0000
  H   H428      1.0  0.32945  0.71396  0.08719  1.0000
  C   C271      1.0  0.52229  0.57547  0.40097  1.0000
  C   C272      1.0  0.39990  0.79724  0.10995  1.0000
  H   H429      1.0  0.39020  0.57326  0.50596  1.0000
  H   H430      1.0  0.52681  0.66273  0.13009  1.0000
  Fe  Fe60      1.0  0.46785  0.02202  0.34456  1.0000
  S   S118      1.0  0.47877  0.99756  0.29009  1.0000
  S   S119      1.0  0.45894  0.99801  0.40024  1.0000
  H   H431      1.0  0.50735  0.03996  0.25594  1.0000
  S   S120      1.0  0.31074  0.63164  0.54013  1.0000
  S   S121      1.0  0.40938  0.01055  0.40603  1.0000
  H   H432      1.0  0.40104  0.93561  0.16384  1.0000
  C   C273      1.0  0.46794  0.89003  0.27220  1.0000
  C   C274      1.0  0.47710  0.90702  0.24385  1.0000
  C   C275      1.0  0.48034  0.94002  0.24954  1.0000
  C   C276      1.0  0.47440  0.95621  0.28349  1.0000
  C   C277      1.0  0.46512  0.93922  0.31154  1.0000
  C   C278      1.0  0.46203  0.90621  0.30608  1.0000
  H   H433      1.0  0.48189  0.89468  0.21786  1.0000
  H   H434      1.0  0.48758  0.95296  0.22776  1.0000
  H   H435      1.0  0.46043  0.95137  0.33768  1.0000
  H   H436      1.0  0.45497  0.89322  0.32818  1.0000
  H   H437      1.0  0.29199  0.65989  0.10221  1.0000
  C   C279      1.0  0.36814  0.79505  0.08738  1.0000
  C   C280      1.0  0.38341  0.78209  0.11021  1.0000
  C   C281      1.0  0.52002  0.80688  0.06082  1.0000
  H   H438      1.0  0.34623  0.61577  0.51071  1.0000
  C   C282      1.0  0.40115  0.82571  0.08727  1.0000
  C   C283      1.0  0.38128  0.56151  0.52680  1.0000
  H   H439      1.0  0.48232  0.72890  0.24105  1.0000
  H   H440      1.0  0.40404  0.90918  0.25212  1.0000
  H   H441      1.0  0.28770  0.71023  0.14121  1.0000
  C   C284      1.0  0.51284  0.62038  0.44122  1.0000
  C   C285      1.0  0.50874  0.56285  0.53216  1.0000
  C   C286      1.0  0.29539  0.01519  0.06282  1.0000
  H   H442      1.0  0.34036  0.67960  0.11320  1.0000
  N   N27       1.0  0.51669  0.71172  0.12098  1.0000
  C   C287      1.0  0.36751  0.57022  0.41037  1.0000
  H   H443      1.0  0.42806  0.90539  0.25796  1.0000
  H   H444      1.0  0.38254  0.76004  0.12778  1.0000
  H   H445      1.0  0.34770  0.02532  0.44177  1.0000
  N   N28       1.0  0.36722  0.58438  0.53931  1.0000
  H   H446      1.0  0.40048  0.89689  0.13953  1.0000
  H   H447      1.0  0.43325  0.89364  0.14742  1.0000
  N   N29       1.0  0.43123  0.01629  0.52998  1.0000
  C   C288      1.0  0.37483  0.01920  0.42527  1.0000
  S   S122      1.0  0.34772  0.77537  0.08873  1.0000
  H   H448      1.0  0.50517  0.71169  0.17871  1.0000
  H   H449      1.0  0.42862  0.97811  0.48600  1.0000
  H   H450      1.0  0.37492  0.99312  0.42801  1.0000
  C   C289      1.0  0.35692  0.59823  0.50262  1.0000
  H   H451      1.0  0.41939  0.05014  0.48455  1.0000
  H   H452      1.0  0.41163  0.78669  0.12704  1.0000
  H   H453      1.0  0.31392  0.64760  0.08904  1.0000
  H   H454      1.0  0.43449  0.93132  0.17395  1.0000
  C   C290      1.0  0.50664  0.03335  0.51977  1.0000
  H   H455      1.0  0.31997  0.03431  0.32870  1.0000
  H   H456      1.0  0.41736  0.94061  0.23335  1.0000
  H   H457      1.0  0.44502  0.89543  0.19717  1.0000
  H   H458      1.0  0.48820  0.72008  0.11091  1.0000
  C   C291      1.0  0.38585  0.83886  0.06468  1.0000
  N   N30       1.0  0.41638  0.89760  0.19702  1.0000
  C   C292      1.0  0.41550  0.86232  0.20344  1.0000
  C   C293      1.0  0.43300  0.90486  0.17803  1.0000
  C   C294      1.0  0.41640  0.91395  0.23682  1.0000
  C   C295      1.0  0.40074  0.90912  0.16970  1.0000
  H   H459      1.0  0.40310  0.85587  0.21758  1.0000
  H   H460      1.0  0.42714  0.85277  0.22386  1.0000
  H   H461      1.0  0.41559  0.84924  0.17403  1.0000
  H   H462      1.0  0.40963  0.05173  0.53258  1.0000
  H   H463      1.0  0.35028  0.57891  0.48439  1.0000
  H   H464      1.0  0.50299  0.62927  0.41599  1.0000
  H   H465      1.0  0.51488  0.55852  0.41935  1.0000
  N   N31       1.0  0.52843  0.60347  0.42526  1.0000
  H   H466      1.0  0.50119  0.75525  0.10624  1.0000
  H   H467      1.0  0.30680  0.73350  0.15796  1.0000
  H   H468      1.0  0.50280  0.66766  0.12790  1.0000
  H   H469      1.0  0.50324  0.58553  0.54246  1.0000
  C   C296      1.0  0.41561  0.03516  0.51063  1.0000
  H   H470      1.0  0.38489  0.62420  0.54516  1.0000
  H   H471      1.0  0.30654  0.02189  0.61236  1.0000
  H   H472      1.0  0.50708  0.83768  0.91228  1.0000
  H   H473      1.0  0.51740  0.88681  0.97997  1.0000
  H   H474      1.0  0.50680  0.89646  0.93003  1.0000
  C   C297      1.0  0.29612  0.67937  0.58578  1.0000
  H   H475      1.0  0.30892  0.67872  0.60373  1.0000
  H   H476      1.0  0.29527  0.98945  0.63431  1.0000
  H   H477      1.0  0.45721  0.02505  0.56026  1.0000
  H   H478      1.0  0.51683  0.82934  0.96320  1.0000
  H   H479      1.0  0.28092  0.03921  0.99071  1.0000
  H   H480      1.0  0.49456  0.78684  0.04190  1.0000
  H   H481      1.0  0.50491  0.00650  0.57578  1.0000
  H   H482      1.0  0.29259  0.72328  0.82710  1.0000
  Fe  Fe61      1.0  0.30314  0.77732  0.96365  1.0000
  H   H483      1.0  0.30734  0.83885  0.81769  1.0000
  H   H484      1.0  0.28259  0.56259  0.91439  1.0000
  S   S123      1.0  0.30696  0.75146  0.02396  1.0000
  C   C298      1.0  0.29058  0.92319  0.58715  1.0000
  H   H485      1.0  0.31945  0.98034  0.99065  1.0000
  H   H486      1.0  0.36525  0.62843  0.57288  1.0000
  Fe  Fe62      1.0  0.29879  0.84224  0.00299  1.0000
  H   H487      1.0  0.29042  0.75127  0.75950  1.0000
  H   H488      1.0  0.30463  0.96164  0.02297  1.0000
  S   S124      1.0  0.32295  0.81530  0.98199  1.0000
  H   H489      1.0  0.50658  0.75299  0.98791  1.0000
  H   H490      1.0  0.30293  0.92206  0.60680  1.0000
  C   C299      1.0  0.28882  0.01604  0.98964  1.0000
  H   H491      1.0  0.30904  0.81112  0.88541  1.0000
  C   C300      1.0  0.30410  0.81362  0.81973  1.0000
  H   H492      1.0  0.34384  0.58346  0.57306  1.0000
  H   H493      1.0  0.52766  0.81409  0.92037  1.0000
  C   C301      1.0  0.51306  0.02203  0.55888  1.0000
  H   H494      1.0  0.43704  0.98173  0.57887  1.0000
  H   H495      1.0  0.29426  0.01473  0.95919  1.0000
  C   C302      1.0  0.29452  0.76430  0.78688  1.0000
  C   C303      1.0  0.29856  0.79695  0.78422  1.0000
  H   H496      1.0  0.30429  0.02105  0.66638  1.0000
  C   C304      1.0  0.29579  0.74852  0.82508  1.0000
  C   C305      1.0  0.52000  0.83529  0.93155  1.0000
  H   H497      1.0  0.28437  0.71615  0.62260  1.0000
  C   C306      1.0  0.42554  0.99630  0.56377  1.0000
  S   S125      1.0  0.29152  0.89422  0.98637  1.0000
  N   N32       1.0  0.30329  0.01361  0.02312  1.0000
  S   S126      1.0  0.30070  0.74577  0.90827  1.0000
  S   S127      1.0  0.29604  0.81769  0.73714  1.0000
  C   C307      1.0  0.30088  0.76541  0.86070  1.0000
  H   H498      1.0  0.28108  0.58886  0.55269  1.0000
  C   C308      1.0  0.52001  0.89205  0.94768  1.0000
  C   C309      1.0  0.29345  0.65894  0.55214  1.0000
  C   C310      1.0  0.51539  0.76856  0.00593  1.0000
  C   C311      1.0  0.30506  0.79799  0.85803  1.0000
  H   H499      1.0  0.28015  0.03052  0.56452  1.0000
  C   C312      1.0  0.28225  0.70056  0.59652  1.0000
  H   H500      1.0  0.32162  0.04041  0.98997  1.0000
  C   C313      1.0  0.35496  0.56708  0.56425  1.0000
  Fe  Fe63      1.0  0.32446  0.79195  0.04454  1.0000
  C   C314      1.0  0.50859  0.78754  0.03661  1.0000
  C   C315      1.0  0.29730  0.01598  0.63607  1.0000
  H   H501      1.0  0.36213  0.55675  0.59269  1.0000
  H   H502      1.0  0.38341  0.60121  0.59141  1.0000
  Fe  Fe64      1.0  0.28421  0.78296  0.04168  1.0000
  C   C316      1.0  0.28838  0.94583  0.55489  1.0000
  C   C317      1.0  0.28611  0.55766  0.94750  1.0000
  C   C318      1.0  0.31344  0.98256  0.02038  1.0000
  H   H503      1.0  0.28300  0.55933  0.59333  1.0000
  C   C319      1.0  0.37558  0.61072  0.56330  1.0000
  H   H504      1.0  0.41979  0.01155  0.58745  1.0000
  C   C320      1.0  0.31547  0.04070  0.01963  1.0000
  H   H505      1.0  0.52071  0.87705  0.86821  1.0000
  H   H506      1.0  0.41513  0.97918  0.55251  1.0000
  H   H507      1.0  0.28517  0.58119  0.96361  1.0000
  H   H508      1.0  0.32650  0.03978  0.04454  1.0000
  H   H509      1.0  0.52743  0.91492  0.94734  1.0000
  N   N33       1.0  0.28010  0.03460  0.62917  1.0000
  S   S128      1.0  0.30547  0.97305  0.54777  1.0000
  H   H510      1.0  0.35766  0.83358  0.04679  1.0000
  H   H511      1.0  0.32445  0.97982  0.04518  1.0000
  C   C321      1.0  0.28010  0.91411  0.02362  1.0000
  H   H512      1.0  0.38676  0.86082  0.04693  1.0000
  H   H513      1.0  0.74254  0.46076  0.40136  1.0000
  C   C322      1.0  0.53780  0.37840  0.23914  1.0000
  Fe  Fe65      1.0  0.73135  0.27810  0.14096  1.0000
  S   S129      1.0  0.75569  0.25386  0.11733  1.0000
  S   S130      1.0  0.72509  0.28545  0.20634  1.0000
  C   C323      1.0  0.75302  0.20457  0.38525  1.0000
  H   H514      1.0  0.77364  0.16865  0.44010  1.0000
  H   H515      1.0  0.66158  0.34587  0.18418  1.0000
  H   H516      1.0  0.65661  0.30727  0.08208  1.0000
  C   C324      1.0  0.74044  0.15339  0.36667  1.0000
  S   S131      1.0  0.71167  0.25360  0.09729  1.0000
  S   S132      1.0  0.73231  0.32256  0.10165  1.0000
  C   C325      1.0  0.77087  0.25082  0.29914  1.0000
  H   H517      1.0  0.61401  0.09792  0.50468  1.0000
  H   H518      1.0  0.54282  0.40228  0.23033  1.0000
  H   H519      1.0  0.67876  0.34811  0.10324  1.0000
  H   H520      1.0  0.76237  0.36120  0.11092  1.0000
  C   C326      1.0  0.77201  0.37471  0.09582  1.0000
  C   C327      1.0  0.65607  0.33109  0.15825  1.0000
  C   C328      1.0  0.75469  0.46729  0.42097  1.0000
  H   H521      1.0  0.74226  0.21093  0.40544  1.0000
  C   C329      1.0  0.75803  0.27356  0.31053  1.0000
  C   C330      1.0  0.74383  0.28391  0.28210  1.0000
  C   C331      1.0  0.74259  0.27184  0.24222  1.0000
  C   C332      1.0  0.75529  0.24876  0.23132  1.0000
  H   H522      1.0  0.68901  0.27226  0.16372  1.0000
  H   H523      1.0  0.75912  0.28331  0.34100  1.0000
  H   H524      1.0  0.73401  0.30173  0.29073  1.0000
  H   H525      1.0  0.75421  0.23865  0.20115  1.0000
  C   C333      1.0  0.66241  0.29135  0.10775  1.0000
  C   C334      1.0  0.76935  0.23826  0.25967  1.0000
  H   H526      1.0  0.74266  0.12670  0.36563  1.0000
  H   H527      1.0  0.73927  0.45220  0.51347  1.0000
  H   H528      1.0  0.69088  0.34512  0.15315  1.0000
  H   H529      1.0  0.67273  0.27523  0.09524  1.0000
  H   H530      1.0  0.76452  0.42006  0.12257  1.0000
  C   C335      1.0  0.67827  0.28826  0.17487  1.0000
  N   N34       1.0  0.75664  0.16930  0.38419  1.0000
  C   C336      1.0  0.68426  0.33096  0.12787  1.0000
  C   C337      1.0  0.77129  0.17054  0.07268  1.0000
  H   H531      1.0  0.54994  0.30139  0.07790  1.0000
  H   H532      1.0  0.73381  0.50989  0.49227  1.0000
  Fe  Fe66      1.0  0.71454  0.29617  0.05601  1.0000
  H   H533      1.0  0.54859  0.35979  0.23541  1.0000
  H   H534      1.0  0.76458  0.33567  0.50710  1.0000
  S   S133      1.0  0.76404  0.21404  0.51806  1.0000
  H   H535      1.0  0.75156  0.42559  0.48236  1.0000
  H   H536      1.0  0.76399  0.48923  0.51947  1.0000
  N   N35       1.0  0.67025  0.31040  0.14221  1.0000
  H   H537      1.0  0.64978  0.34800  0.13419  1.0000
  C   C338      1.0  0.77164  0.16245  0.35870  1.0000
  H   H538      1.0  0.66812  0.27242  0.18670  1.0000
  H   H539      1.0  0.76437  0.13040  0.42690  1.0000
  H   H540      1.0  0.64526  0.31635  0.16935  1.0000
  H   H541      1.0  0.77451  0.13605  0.35626  1.0000
  H   H542      1.0  0.72465  0.49786  0.44267  1.0000
  H   H543      1.0  0.65160  0.27579  0.11708  1.0000
  C   C339      1.0  0.74231  0.44725  0.48145  1.0000
  H   H544      1.0  0.76876  0.17269  0.32722  1.0000
  H   H545      1.0  0.69493  0.31611  0.11488  1.0000
  H   H546      1.0  0.74298  0.52510  0.44777  1.0000
  Fe  Fe67      1.0  0.75498  0.29655  0.07442  1.0000
  H   H547      1.0  0.54253  0.07731  0.49877  1.0000
  H   H548      1.0  0.76084  0.48797  0.40608  1.0000
  H   H549      1.0  0.72885  0.15836  0.38506  1.0000
  H   H550      1.0  0.68467  0.30178  0.20105  1.0000
  C   C340      1.0  0.76816  0.17283  0.52995  1.0000
  H   H551      1.0  0.58840  0.11071  0.54612  1.0000
  C   C341      1.0  0.75458  0.15492  0.54536  1.0000
  C   C342      1.0  0.76148  0.15696  0.42617  1.0000
  H   H552      1.0  0.75059  0.16209  0.44653  1.0000
  H   H553      1.0  0.76518  0.21725  0.39700  1.0000
  Fe  Fe68      1.0  0.73604  0.23309  0.07015  1.0000
  H   H554      1.0  0.63517  0.08362  0.52941  1.0000
  N   N36       1.0  0.75026  0.47541  0.46272  1.0000
  H   H555      1.0  0.72958  0.44058  0.46423  1.0000
  C   C343      1.0  0.75645  0.16086  0.04769  1.0000
  H   H556      1.0  0.73654  0.16218  0.33488  1.0000
  C   C344      1.0  0.73731  0.50322  0.46110  1.0000
  H   H557      1.0  0.62784  0.12506  0.53465  1.0000
  C   C345      1.0  0.77339  0.40799  0.10278  1.0000
  S   S134      1.0  0.77261  0.27733  0.43678  1.0000
  H   H558      1.0  0.74899  0.21476  0.35421  1.0000
  C   C346      1.0  0.76746  0.35866  0.52116  1.0000
  C   C347      1.0  0.62322  0.09979  0.53293  1.0000
  C   C348      1.0  0.76678  0.48391  0.48748  1.0000
  H   H559      1.0  0.77277  0.50590  0.47527  1.0000
  H   H560      1.0  0.53502  0.35130  0.16465  1.0000
  C   C349      1.0  0.77336  0.10605  0.54524  1.0000
  C   C350      1.0  0.53188  0.52049  0.53810  1.0000
  H   H561      1.0  0.53554  0.37925  0.27220  1.0000
  H   H562      1.0  0.76991  0.19040  0.09335  1.0000
  C   C351      1.0  0.53914  0.29660  0.05508  1.0000
  H   H563      1.0  0.76443  0.44628  0.42137  1.0000
  C   C352      1.0  0.53435  0.06182  0.51563  1.0000
  H   H564      1.0  0.77710  0.46395  0.48848  1.0000
  H   H565      1.0  0.59848  0.05433  0.53899  1.0000
  H   H566      1.0  0.77916  0.22049  0.25082  1.0000
  H   H567      1.0  0.73349  0.43523  0.01504  1.0000
  H   H568      1.0  0.60861  0.14616  0.92498  1.0000
  C   C353      1.0  0.62003  0.20687  0.86268  1.0000
  S   S135      1.0  0.55803  0.53045  0.68780  1.0000
  H   H569      1.0  0.57589  0.35595  0.79482  1.0000
  C   C354      1.0  0.54273  0.29325  0.01399  1.0000
  Fe  Fe69      1.0  0.60124  0.27392  0.92857  1.0000
  S   S136      1.0  0.58380  0.31651  0.94424  1.0000
  S   S137      1.0  0.62288  0.24671  0.96813  1.0000
  Fe  Fe70      1.0  0.58215  0.26660  0.84423  1.0000
  S   S138      1.0  0.56326  0.30874  0.85191  1.0000
  S   S139      1.0  0.58178  0.23922  0.78518  1.0000
  Fe  Fe71      1.0  0.58735  0.33348  0.88001  1.0000
  H   H570      1.0  0.55625  0.29546  0.00533  1.0000
  Fe  Fe72      1.0  0.56109  0.28840  0.91487  1.0000
  Fe  Fe73      1.0  0.72628  0.53057  0.64547  1.0000
  S   S140      1.0  0.60660  0.29301  0.86687  1.0000
  S   S141      1.0  0.57822  0.24424  0.90483  1.0000
  S   S142      1.0  0.58822  0.07762  0.68016  1.0000
  S   S143      1.0  0.56409  0.09054  0.78258  1.0000
  H   H571      1.0  0.76947  0.47904  0.74342  1.0000
  S   S144      1.0  0.73729  0.27383  0.02506  1.0000
  C   C355      1.0  0.59843  0.11280  0.57293  1.0000
  H   H572      1.0  0.72635  0.39949  0.95550  1.0000
  C   C356      1.0  0.53014  0.22254  0.85732  1.0000
  C   C357      1.0  0.57692  0.19792  0.78505  1.0000
  C   C358      1.0  0.57928  0.17988  0.74999  1.0000
  C   C359      1.0  0.57544  0.14690  0.74894  1.0000
  C   C360      1.0  0.56912  0.13180  0.78291  1.0000
  C   C361      1.0  0.56662  0.14995  0.81792  1.0000
  C   C362      1.0  0.57057  0.18290  0.81904  1.0000
  H   H573      1.0  0.58403  0.19144  0.72344  1.0000
  H   H574      1.0  0.57706  0.13339  0.72157  1.0000
  H   H575      1.0  0.56163  0.13841  0.84421  1.0000
  H   H576      1.0  0.56852  0.19665  0.84598  1.0000
  H   H577      1.0  0.76556  0.21786  0.99431  1.0000
  H   H578      1.0  0.53052  0.53389  0.79406  1.0000
  C   C363      1.0  0.60753  0.17032  0.90964  1.0000
  H   H579      1.0  0.75568  0.45043  0.02385  1.0000
  C   C364      1.0  0.62686  0.09363  0.60635  1.0000
  H   H580      1.0  0.65765  0.22629  0.00401  1.0000
  C   C365      1.0  0.64219  0.26853  0.98132  1.0000
  C   C366      1.0  0.64228  0.30196  0.97485  1.0000
  C   C367      1.0  0.65766  0.31908  0.98704  1.0000
  S   S145      1.0  0.53286  0.28251  0.93253  1.0000
  C   C368      1.0  0.63951  0.17062  0.90523  1.0000
  H   H581      1.0  0.63041  0.31470  0.96099  1.0000
  N   N37       1.0  0.62183  0.17432  0.88176  1.0000
  H   H582      1.0  0.64099  0.18896  0.92985  1.0000
  H   H583      1.0  0.63086  0.15174  0.82813  1.0000
  H   H584      1.0  0.60819  0.18887  0.93399  1.0000
  C   C369      1.0  0.55005  0.47900  0.78673  1.0000
  H   H585      1.0  0.77779  0.07331  0.68781  1.0000
  Fe  Fe74      1.0  0.60135  0.53585  0.63236  1.0000
  H   H586      1.0  0.55103  0.51745  0.87771  1.0000
  H   H587      1.0  0.57927  0.51362  0.78962  1.0000
  H   H588      1.0  0.73031  0.45871  0.94542  1.0000
  H   H589      1.0  0.62172  0.22609  0.88594  1.0000
  H   H590      1.0  0.74675  0.12670  0.00274  1.0000
  S   S146      1.0  0.56218  0.06158  0.57603  1.0000
  H   H591      1.0  0.65064  0.17388  0.88532  1.0000
  S   S147      1.0  0.74328  0.42062  0.59555  1.0000
  H   H592      1.0  0.61580  0.44678  0.70348  1.0000
  H   H593      1.0  0.74697  0.44964  0.91040  1.0000
  H   H594      1.0  0.59400  0.17277  0.89299  1.0000
  C   C370      1.0  0.59443  0.42959  0.80443  1.0000
  H   H595      1.0  0.60203  0.44393  0.82662  1.0000
  H   H596      1.0  0.62122  0.12470  0.86280  1.0000
  C   C371      1.0  0.67904  0.53283  0.61610  1.0000
  C   C372      1.0  0.62021  0.14963  0.84957  1.0000
  C   C373      1.0  0.67306  0.30278  0.00519  1.0000
  H   H597      1.0  0.74542  0.37365  0.97140  1.0000
  C   C374      1.0  0.75824  0.13444  0.02188  1.0000
  H   H598      1.0  0.64142  0.14633  0.92009  1.0000
  C   C375      1.0  0.75919  0.40235  0.56582  1.0000
  C   C376      1.0  0.65763  0.25219  0.99914  1.0000
  C   C377      1.0  0.57545  0.39197  0.74683  1.0000
  H   H599      1.0  0.55628  0.45558  0.79863  1.0000
  H   H600      1.0  0.63021  0.21049  0.84045  1.0000
  H   H601      1.0  0.60707  0.15219  0.83101  1.0000
  H   H602      1.0  0.65757  0.34503  0.98262  1.0000
  Fe  Fe75      1.0  0.75199  0.53999  0.57936  1.0000
  H   H603      1.0  0.60663  0.21104  0.84600  1.0000
  H   H604      1.0  0.65001  0.39512  0.65736  1.0000
  C   C378      1.0  0.54530  0.53608  0.79889  1.0000
  S   S148      1.0  0.73625  0.05564  0.62631  1.0000
  H   H605      1.0  0.69049  0.52712  0.59932  1.0000
  C   C379      1.0  0.67311  0.26922  0.01063  1.0000
  H   H606      1.0  0.54479  0.25561  0.79844  1.0000
  H   H607      1.0  0.74314  0.39084  0.92066  1.0000
  C   C380      1.0  0.64380  0.45934  0.66066  1.0000
  H   H608      1.0  0.58100  0.48821  0.83453  1.0000
  H   H609      1.0  0.53536  0.47576  0.78156  1.0000
  H   H610      1.0  0.76640  0.45800  0.81324  1.0000
  H   H611      1.0  0.60544  0.42941  0.61526  1.0000
  C   C381      1.0  0.75704  0.12716  0.67174  1.0000
  H   H612      1.0  0.62934  0.38618  0.62848  1.0000
  C   C382      1.0  0.57983  0.37986  0.78663  1.0000
  H   H613      1.0  0.61205  0.40705  0.68468  1.0000
  H   H614      1.0  0.63278  0.41549  0.71373  1.0000
  H   H615      1.0  0.77716  0.15480  0.73259  1.0000
  H   H616      1.0  0.59131  0.10681  0.60028  1.0000
  S   S149      1.0  0.59367  0.38534  0.86658  1.0000
  C   C383      1.0  0.66652  0.55173  0.67741  1.0000
  H   H617      1.0  0.54431  0.51036  0.55260  1.0000
  S   S150      1.0  0.74324  0.49025  0.67605  1.0000
  Fe  Fe76      1.0  0.76626  0.52191  0.66655  1.0000
  Fe  Fe77      1.0  0.74675  0.47289  0.61264  1.0000
  C   C384      1.0  0.64667  0.53670  0.61897  1.0000
  S   S151      1.0  0.72752  0.51039  0.58243  1.0000
  Fe  Fe78      1.0  0.57726  0.49070  0.67284  1.0000
  S   S152      1.0  0.57790  0.50741  0.60789  1.0000
  S   S153      1.0  0.57409  0.43785  0.68618  1.0000
  H   H618      1.0  0.64993  0.46680  0.63243  1.0000
  H   H619      1.0  0.74636  0.54558  0.72938  1.0000
  C   C385      1.0  0.62248  0.42547  0.69016  1.0000
  H   H620      1.0  0.60221  0.13850  0.57534  1.0000
  S   S154      1.0  0.60175  0.51630  0.69627  1.0000
  Fe  Fe79      1.0  0.57288  0.05964  0.73095  1.0000
  H   H621      1.0  0.77374  0.27584  0.98431  1.0000
  H   H622      1.0  0.62072  0.08597  0.63448  1.0000
  C   C386      1.0  0.58026  0.42312  0.73596  1.0000
  C   C387      1.0  0.58993  0.44183  0.76472  1.0000
  H   H623      1.0  0.59393  0.46567  0.75645  1.0000
  H   H624      1.0  0.64523  0.41138  0.60654  1.0000
  H   H625      1.0  0.75159  0.15139  0.67975  1.0000
  C   C388      1.0  0.64910  0.54785  0.65901  1.0000
  H   H626      1.0  0.55438  0.47504  0.86841  1.0000
  C   C389      1.0  0.74480  0.45305  0.94323  1.0000
  C   C390      1.0  0.57385  0.50978  0.81977  1.0000
  H   H627      1.0  0.75236  0.47470  0.95335  1.0000
  H   H628      1.0  0.75204  0.40815  0.03042  1.0000
  S   S155      1.0  0.62518  0.53053  0.59518  1.0000
  H   H629      1.0  0.74650  0.10773  0.56392  1.0000
  H   H630      1.0  0.68500  0.25639  0.02406  1.0000
  C   C391      1.0  0.63914  0.40544  0.63536  1.0000
  S   S156      1.0  0.77135  0.50123  0.60572  1.0000
  H   H631      1.0  0.63115  0.11889  0.61091  1.0000
  H   H632      1.0  0.60951  0.46924  0.63337  1.0000
  C   C392      1.0  0.61611  0.44719  0.62189  1.0000
  H   H633      1.0  0.54200  0.23631  0.86860  1.0000
  H   H634      1.0  0.65983  0.52056  0.56663  1.0000
  C   C393      1.0  0.74102  0.39580  0.95316  1.0000
  H   H635      1.0  0.63759  0.48157  0.67303  1.0000
  H   H636      1.0  0.75276  0.12309  0.63902  1.0000
  C   C394      1.0  0.54791  0.49796  0.85539  1.0000
  C   C395      1.0  0.77035  0.41809  0.96450  1.0000
  H   H637      1.0  0.75050  0.10879  0.69002  1.0000
  C   C396      1.0  0.77457  0.41843  0.55713  1.0000
  N   N38       1.0  0.55427  0.50571  0.81515  1.0000
  C   C397      1.0  0.58911  0.39883  0.81570  1.0000
  H   H638      1.0  0.75231  0.54020  0.78294  1.0000
  H   H639      1.0  0.65484  0.45068  0.68331  1.0000
  S   S157      1.0  0.69162  0.32505  0.02316  1.0000
  C   C398      1.0  0.66166  0.52921  0.59760  1.0000
  H   H640      1.0  0.55514  0.48343  0.75635  1.0000
  H   H641      1.0  0.77670  0.20979  0.94891  1.0000
  N   N39       1.0  0.63040  0.43434  0.65204  1.0000
  C   C399      1.0  0.74788  0.42979  0.01119  1.0000
  H   H642      1.0  0.53826  0.21696  0.77950  1.0000
  H   H643      1.0  0.62151  0.45423  0.59262  1.0000
  H   H644      1.0  0.63914  0.07804  0.60436  1.0000
  N   N40       1.0  0.75100  0.42419  0.96799  1.0000
  H   H645      1.0  0.56812  0.37726  0.72457  1.0000
  C   C400      1.0  0.60835  0.05723  0.56592  1.0000
  C   C401      1.0  0.77172  0.05575  0.81390  1.0000
  H   H646      1.0  0.53489  0.19755  0.85064  1.0000
  H   H647      1.0  0.76080  0.07109  0.82290  1.0000
  C   C402      1.0  0.77500  0.11868  0.01963  1.0000
  H   H648      1.0  0.77636  0.09905  0.99866  1.0000
  N   N41       1.0  0.61422  0.09088  0.56956  1.0000
  C   C403      1.0  0.53300  0.24113  0.78837  1.0000
  H   H649      1.0  0.57746  0.53116  0.83862  1.0000
  C   C404      1.0  0.68152  0.54422  0.65597  1.0000
  H   H650      1.0  0.53315  0.49489  0.85306  1.0000
  H   H651      1.0  0.72917  0.54581  0.76404  1.0000
  C   C405      1.0  0.77636  0.49042  0.76932  1.0000
  H   H652      1.0  0.55017  0.54312  0.76913  1.0000
  S   S158      1.0  0.77701  0.06429  0.55354  1.0000
  H   H653      1.0  0.74399  0.35951  0.55509  1.0000
  H   H654      1.0  0.77574  0.11226  0.74286  1.0000
  N   N42       1.0  0.77676  0.12484  0.67947  1.0000
  H   H655      1.0  0.77752  0.44125  0.57110  1.0000
  Fe  Fe80      1.0  0.56104  0.54996  0.62492  1.0000
  H   H656      1.0  0.77337  0.41511  0.93211  1.0000
  C   C406      1.0  0.77470  0.47844  0.80889  1.0000
  H   H657      1.0  0.77539  0.39591  0.98171  1.0000
  H   H658      1.0  0.77833  0.43857  0.97680  1.0000
  C   C407      1.0  0.75582  0.37216  0.54831  1.0000
  C   C408      1.0  0.75716  0.12155  0.55298  1.0000
  H   H659      1.0  0.77934  0.08680  0.63613  1.0000
  S   S159      1.0  0.70319  0.54948  0.67952  1.0000
  H   H660      1.0  0.74192  0.16680  0.55067  1.0000
  C   C409      1.0  0.77879  0.21159  0.98268  1.0000
  S   S160      1.0  0.77918  0.52414  0.99136  1.0000
  S   S161      1.0  0.73583  0.18247  0.04605  1.0000
  H   H661      1.0  0.69268  0.90169  0.49554  1.0000
  S   S162      1.0  0.73546  0.68474  0.08645  1.0000
  C   C410      1.0  0.72174  0.93790  0.50713  1.0000
  H   H662      1.0  0.53370  0.56142  0.38952  1.0000
  C   C411      1.0  0.76588  0.67280  0.52669  1.0000
  C   C412      1.0  0.77796  0.90985  0.50971  1.0000
  N   N43       1.0  0.74609  0.68127  0.38797  1.0000
  H   H663      1.0  0.71768  0.93365  0.47433  1.0000
  H   H664      1.0  0.71522  0.96119  0.51568  1.0000
  C   C413      1.0  0.69092  0.68624  0.11146  1.0000
  H   H665      1.0  0.73651  0.94103  0.50995  1.0000
  H   H666      1.0  0.72050  0.66213  0.36866  1.0000
  C   C414      1.0  0.72618  0.88081  0.52180  1.0000
  H   H667      1.0  0.55344  0.58043  0.44881  1.0000
  H   H668      1.0  0.75052  0.87779  0.15059  1.0000
  H   H669      1.0  0.76982  0.66511  0.36031  1.0000
  C   C415      1.0  0.73499  0.65487  0.37129  1.0000
  S   S163      1.0  0.77066  0.76976  0.43388  1.0000
  S   S164      1.0  0.73373  0.83208  0.08591  1.0000
  H   H670      1.0  0.53265  0.71834  0.07015  1.0000
  H   H671      1.0  0.53448  0.74942  0.10761  1.0000
  C   C416      1.0  0.53802  0.80875  0.05245  1.0000
  C   C417      1.0  0.67106  0.72780  0.07891  1.0000
  C   C418      1.0  0.66731  0.67188  0.06098  1.0000
  H   H672      1.0  0.74530  0.61751  0.07755  1.0000
  C   C419      1.0  0.77248  0.62064  0.49716  1.0000
  N   N44       1.0  0.68053  0.69649  0.07299  1.0000
  H   H673      1.0  0.53506  0.57370  0.47861  1.0000
  H   H674      1.0  0.67404  0.64802  0.05611  1.0000
  C   C420      1.0  0.74339  0.70992  0.36060  1.0000
  H   H675      1.0  0.70103  0.70430  0.12128  1.0000
  H   H676      1.0  0.69855  0.66303  0.10783  1.0000
  H   H677      1.0  0.66234  0.73540  0.05115  1.0000
  S   S165      1.0  0.75832  0.56368  0.52024  1.0000
  H   H678      1.0  0.66237  0.72664  0.10465  1.0000
  H   H679      1.0  0.68063  0.74749  0.08558  1.0000
  H   H680      1.0  0.75157  0.73031  0.37230  1.0000
  C   C421      1.0  0.75447  0.63176  0.06178  1.0000
  H   H681      1.0  0.74941  0.70872  0.44321  1.0000
  C   C422      1.0  0.76516  0.67053  0.39091  1.0000
  C   C423      1.0  0.74086  0.68965  0.42907  1.0000
  S   S166      1.0  0.76727  0.71515  0.52761  1.0000
  H   H682      1.0  0.77251  0.83203  0.14259  1.0000
  H   H683      1.0  0.74759  0.70465  0.32953  1.0000
  H   H684      1.0  0.74100  0.88312  0.52573  1.0000
  H   H685      1.0  0.75847  0.75273  0.19860  1.0000
  C   C424      1.0  0.75271  0.66561  0.06157  1.0000
  Fe  Fe81      1.0  0.74101  0.79787  0.13830  1.0000
  S   S167      1.0  0.76049  0.76799  0.10508  1.0000
  S   S168      1.0  0.74708  0.82028  0.19988  1.0000
  H   H686      1.0  0.54229  0.64730  0.41649  1.0000
  H   H687      1.0  0.76768  0.64851  0.41051  1.0000
  Fe  Fe82      1.0  0.71219  0.79782  0.06682  1.0000
  Fe  Fe83      1.0  0.75145  0.80002  0.05102  1.0000
  H   H688      1.0  0.72671  0.69882  0.42806  1.0000
  S   S169      1.0  0.71782  0.76637  0.12257  1.0000
  C   C425      1.0  0.77841  0.85569  0.53822  1.0000
  C   C426      1.0  0.76151  0.60554  0.52368  1.0000
  N   N45       1.0  0.71677  0.91091  0.53328  1.0000
  C   C427      1.0  0.76236  0.80601  0.27674  1.0000
  H   H689      1.0  0.68214  0.68313  0.13676  1.0000
  H   H690      1.0  0.73869  0.64798  0.34034  1.0000
  H   H691      1.0  0.74231  0.66838  0.45026  1.0000
  H   H692      1.0  0.77465  0.79495  0.33729  1.0000
  H   H693      1.0  0.65778  0.66863  0.08479  1.0000
  H   H694      1.0  0.75911  0.83092  0.28364  1.0000
  H   H695      1.0  0.54690  0.82387  0.07097  1.0000
  H   H696      1.0  0.68983  0.92957  0.53632  1.0000
  C   C428      1.0  0.54114  0.59206  0.45966  1.0000
  H   H697      1.0  0.72915  0.71868  0.35727  1.0000
  C   C429      1.0  0.75780  0.79423  0.23752  1.0000
  C   C430      1.0  0.76196  0.76200  0.22877  1.0000
  H   H698      1.0  0.73676  0.63288  0.39126  1.0000
  H   H699      1.0  0.54529  0.61213  0.48028  1.0000
  H   H700      1.0  0.72291  0.85989  0.54106  1.0000
  C   C431      1.0  0.53740  0.62598  0.39904  1.0000
  H   H701      1.0  0.72266  0.87470  0.48928  1.0000
  C   C432      1.0  0.53303  0.72289  0.10359  1.0000
  H   H702      1.0  0.54909  0.61395  0.38598  1.0000
  C   C433      1.0  0.77487  0.65416  0.49906  1.0000
  Fe  Fe84      1.0  0.73662  0.73903  0.08461  1.0000
  C   C434      1.0  0.77112  0.78568  0.30713  1.0000
  H   H703      1.0  0.54532  0.71053  0.11843  1.0000
  C   C435      1.0  0.69718  0.90707  0.52782  1.0000
  H   H704      1.0  0.77404  0.71681  0.25217  1.0000
  H   H705      1.0  0.77558  0.86643  0.20303  1.0000
  C   C436      1.0  0.77075  0.74168  0.25913  1.0000
  H   H706      1.0  0.77387  0.68962  0.40425  1.0000
  H   H707      1.0  0.75738  0.91869  0.14568  1.0000
  C   C437      1.0  0.77539  0.75352  0.29827  1.0000
  C   C438      1.0  0.75946  0.89369  0.13453  1.0000
  H   H708      1.0  0.75481  0.89371  0.10146  1.0000
  H   H709      1.0  0.70257  0.71924  0.04778  1.0000
  S   S170      1.0  0.68402  0.81730  0.05123  1.0000
  N   N46       1.0  0.77842  0.88248  0.14156  1.0000
  H   H710      1.0  0.77596  0.84798  0.09317  1.0000
  H   H711      1.0  0.77907  0.92596  0.48395  1.0000
  C   C439      1.0  0.69286  0.69994  0.04049  1.0000
  H   H712      1.0  0.73678  0.94836  0.88486  1.0000
  S   S171      1.0  0.74916  0.56352  0.63962  1.0000
  C   C440      1.0  0.62147  0.69038  0.76686  1.0000
  C   C441      1.0  0.73065  0.60565  0.73631  1.0000
  C   C442      1.0  0.76249  0.59838  0.75370  1.0000
  H   H713      1.0  0.53481  0.02144  0.60637  1.0000
  H   H714      1.0  0.73659  0.92211  0.58138  1.0000
  S   S172      1.0  0.58461  0.58035  0.64423  1.0000
  S   S173      1.0  0.58375  0.58081  0.76839  1.0000
  C   C443      1.0  0.57430  0.69018  0.77552  1.0000
  C   C444      1.0  0.57361  0.67046  0.81012  1.0000
  C   C445      1.0  0.57621  0.63685  0.80742  1.0000
  C   C446      1.0  0.57907  0.62267  0.76990  1.0000
  C   C447      1.0  0.57887  0.64218  0.73486  1.0000
  C   C448      1.0  0.57651  0.67589  0.73770  1.0000
  H   H715      1.0  0.57130  0.68107  0.83908  1.0000
  H   H716      1.0  0.57612  0.62185  0.83455  1.0000
  H   H717      1.0  0.58092  0.63145  0.70572  1.0000
  H   H718      1.0  0.57683  0.69097  0.71068  1.0000
  H   H719      1.0  0.54811  0.55668  0.81973  1.0000
  C   C449      1.0  0.64484  0.67125  0.81733  1.0000
  H   H720      1.0  0.74310  0.62451  0.81112  1.0000
  H   H721      1.0  0.61589  0.66587  0.76276  1.0000
  C   C450      1.0  0.77062  0.04201  0.77499  1.0000
  Fe  Fe85      1.0  0.58265  0.55792  0.70625  1.0000
  H   H722      1.0  0.74784  0.67201  0.57437  1.0000
  H   H723      1.0  0.77334  0.58562  0.77354  1.0000
  H   H724      1.0  0.65120  0.67391  0.84895  1.0000
  H   H725      1.0  0.64037  0.64591  0.81424  1.0000
  H   H726      1.0  0.54129  0.85338  0.87382  1.0000
  Fe  Fe86      1.0  0.60659  0.03446  0.69417  1.0000
  H   H727      1.0  0.61072  0.66438  0.83524  1.0000
  H   H728      1.0  0.65533  0.67471  0.79579  1.0000
  N   N47       1.0  0.62963  0.69465  0.80892  1.0000
  H   H729      1.0  0.70091  0.67725  0.03661  1.0000
  C   C451      1.0  0.61611  0.68905  0.83819  1.0000
  H   H730      1.0  0.71693  0.59892  0.74315  1.0000
  H   H731      1.0  0.71910  0.89778  0.59719  1.0000
  H   H732      1.0  0.77427  0.85241  0.60230  1.0000
  H   H733      1.0  0.63758  0.55368  0.67565  1.0000
  H   H734      1.0  0.62176  0.69173  0.87032  1.0000
  C   C452      1.0  0.77134  0.93057  0.00742  1.0000
  C   C453      1.0  0.77835  0.66847  0.02139  1.0000
  C   C454      1.0  0.77004  0.92255  0.88064  1.0000
  H   H735      1.0  0.66837  0.56056  0.70828  1.0000
  H   H736      1.0  0.63134  0.69363  0.74384  1.0000
  H   H737      1.0  0.77274  0.91484  0.91327  1.0000
  C   C455      1.0  0.76822  0.61626  0.04189  1.0000
  H   H738      1.0  0.61018  0.70824  0.75935  1.0000
  C   C456      1.0  0.77540  0.86851  0.57654  1.0000
  C   C457      1.0  0.72202  0.91802  0.57651  1.0000
  H   H739      1.0  0.60463  0.70671  0.83303  1.0000
  H   H740      1.0  0.55556  0.83952  0.94328  1.0000
  H   H741      1.0  0.77319  0.96328  0.81675  1.0000
  H   H742      1.0  0.68550  0.70620  0.01058  1.0000
  H   H743      1.0  0.74358  0.98875  0.89675  1.0000
  H   H744      1.0  0.60904  0.95501  0.79555  1.0000
  H   H745      1.0  0.65134  0.90712  0.78779  1.0000
  S   S174      1.0  0.73468  0.98174  0.66468  1.0000
  H   H746      1.0  0.75029  0.95182  0.81781  1.0000
  H   H747      1.0  0.62478  0.74608  0.80669  1.0000
  Fe  Fe87      1.0  0.75754  0.96870  0.62728  1.0000
  C   C458      1.0  0.77351  0.90200  0.58144  1.0000
  H   H748      1.0  0.72884  0.59072  0.81593  1.0000
  H   H749      1.0  0.60756  0.95703  0.72005  1.0000
  H   H750      1.0  0.62736  0.93384  0.82412  1.0000
  Fe  Fe88      1.0  0.60492  0.75863  0.91549  1.0000
  S   S175      1.0  0.58742  0.79248  0.94926  1.0000
  H   H751      1.0  0.64633  0.82319  0.02941  1.0000
  Fe  Fe89      1.0  0.57772  0.75393  0.84236  1.0000
  S   S176      1.0  0.55789  0.78804  0.86840  1.0000
  Fe  Fe90      1.0  0.58159  0.81744  0.88814  1.0000
  S   S177      1.0  0.58014  0.87195  0.88635  1.0000
  Fe  Fe91      1.0  0.56489  0.76085  0.92731  1.0000
  C   C459      1.0  0.68335  0.02604  0.65447  1.0000
  S   S178      1.0  0.60086  0.78623  0.85625  1.0000
  H   H752      1.0  0.60930  0.91398  0.71892  1.0000
  H   H753      1.0  0.75950  0.90684  0.86663  1.0000
  Fe  Fe92      1.0  0.57567  0.98988  0.70315  1.0000
  S   S179      1.0  0.59141  0.00246  0.65021  1.0000
  S   S180      1.0  0.57078  0.93673  0.71031  1.0000
  S   S181      1.0  0.53693  0.57296  0.58835  1.0000
  C   C460      1.0  0.63599  0.72796  0.81348  1.0000
  H   H754      1.0  0.64173  0.73233  0.84527  1.0000
  H   H755      1.0  0.64645  0.73300  0.79241  1.0000
  Fe  Fe93      1.0  0.75927  0.03685  0.59283  1.0000
  S   S182      1.0  0.55454  0.02939  0.69017  1.0000
  H   H756      1.0  0.65633  0.99359  0.57840  1.0000
  C   C461      1.0  0.57691  0.88980  0.83742  1.0000
  C   C462      1.0  0.57549  0.92358  0.83336  1.0000
  C   C463      1.0  0.57322  0.93832  0.79445  1.0000
  C   C464      1.0  0.57244  0.91925  0.75951  1.0000
  C   C465      1.0  0.57361  0.88548  0.76365  1.0000
  C   C466      1.0  0.57586  0.87075  0.80251  1.0000
  H   H757      1.0  0.57620  0.93840  0.86034  1.0000
  H   H758      1.0  0.57210  0.96438  0.79148  1.0000
  H   H759      1.0  0.57287  0.87064  0.73667  1.0000
  H   H760      1.0  0.57681  0.84467  0.80537  1.0000
  C   C467      1.0  0.54763  0.86012  0.95492  1.0000
  C   C468      1.0  0.61732  0.93619  0.72122  1.0000
  C   C469      1.0  0.74301  0.55360  0.76006  1.0000
  S   S183      1.0  0.69462  0.00128  0.58339  1.0000
  C   C470      1.0  0.67719  0.77263  0.99090  1.0000
  C   C471      1.0  0.66562  0.75482  0.96458  1.0000
  C   C472      1.0  0.64709  0.76156  0.96179  1.0000
  C   C473      1.0  0.64020  0.78663  0.98460  1.0000
  C   C474      1.0  0.63945  0.96635  0.76099  1.0000
  H   H761      1.0  0.69145  0.76735  0.99301  1.0000
  H   H762      1.0  0.71492  0.94019  0.58662  1.0000
  H   H763      1.0  0.62595  0.79203  0.98256  1.0000
  C   C475      1.0  0.67022  0.79697  0.01478  1.0000
  H   H764      1.0  0.63025  0.98799  0.76171  1.0000
  C   C476      1.0  0.67836  0.01145  0.61729  1.0000
  S   S184      1.0  0.77362  0.01116  0.64714  1.0000
  H   H765      1.0  0.60153  0.04983  0.59309  1.0000
  H   H766      1.0  0.74352  0.86811  0.01773  1.0000
  H   H767      1.0  0.64723  0.96940  0.73383  1.0000
  H   H768      1.0  0.65039  0.90894  0.73293  1.0000
  S   S185      1.0  0.59249  0.01860  0.74812  1.0000
  H   H769      1.0  0.73200  0.59889  0.70398  1.0000
  H   H770      1.0  0.67101  0.73576  0.94647  1.0000
  H   H771      1.0  0.76478  0.59207  0.72162  1.0000
  C   C477      1.0  0.66023  0.00505  0.60706  1.0000
  H   H772      1.0  0.55602  0.88179  0.95378  1.0000
  C   C478      1.0  0.61873  0.93408  0.79485  1.0000
  H   H773      1.0  0.75647  0.99238  0.82981  1.0000
  N   N48       1.0  0.62941  0.93617  0.75913  1.0000
  H   H774      1.0  0.74410  0.61277  0.57188  1.0000
  S   S186      1.0  0.76863  0.91741  0.62908  1.0000
  S   S187      1.0  0.63646  0.04034  0.70509  1.0000
  C   C479      1.0  0.74213  0.59797  0.80684  1.0000
  C   C480      1.0  0.76092  0.96648  0.83345  1.0000
  H   H775      1.0  0.62482  0.93787  0.69350  1.0000
  C   C481      1.0  0.65176  0.80425  0.01112  1.0000
  N   N49       1.0  0.76444  0.95713  0.87702  1.0000
  S   S188      1.0  0.72925  0.76822  0.02726  1.0000
  C   C482      1.0  0.64716  0.01328  0.63395  1.0000
  S   S189      1.0  0.63279  0.73726  0.93120  1.0000
  H   H776      1.0  0.54576  0.85484  0.98751  1.0000
  H   H777      1.0  0.77383  0.94853  0.55165  1.0000
  Fe  Fe94      1.0  0.72319  0.00902  0.60873  1.0000
  C   C483      1.0  0.53348  0.87309  0.88772  1.0000
  C   C484      1.0  0.64209  0.90804  0.75944  1.0000
  H   H778      1.0  0.61081  0.91174  0.79425  1.0000
  S   S190      1.0  0.57420  0.73264  0.77932  1.0000
  H   H779      1.0  0.63326  0.00808  0.62616  1.0000
  Fe  Fe95      1.0  0.74970  0.02678  0.67947  1.0000
  C   C485      1.0  0.54473  0.79037  0.02106  1.0000
  C   C486      1.0  0.75574  0.88044  0.01373  1.0000
  S   S191      1.0  0.58294  0.72432  0.89973  1.0000
  H   H780      1.0  0.55872  0.79135  0.01538  1.0000
  C   C487      1.0  0.65221  0.02835  0.67086  1.0000
  C   C488      1.0  0.74802  0.96278  0.89830  1.0000
  H   H781      1.0  0.73147  0.63236  0.73819  1.0000
  H   H782      1.0  0.63483  0.88495  0.75789  1.0000
  N   N50       1.0  0.74456  0.58893  0.76422  1.0000
  S   S192      1.0  0.77076  0.97294  0.00868  1.0000
  H   H783      1.0  0.64899  0.96702  0.78876  1.0000
  H   H784      1.0  0.77497  0.00300  0.89466  1.0000
  C   C489      1.0  0.76466  0.68394  0.04131  1.0000
  H   H785      1.0  0.76961  0.59016  0.04234  1.0000
  C   C490      1.0  0.75564  0.91430  0.01316  1.0000
  C   C491      1.0  0.53347  0.76983  0.99823  1.0000
  H   H786      1.0  0.67428  0.04613  0.70960  1.0000
  H   H787      1.0  0.74337  0.92791  0.01754  1.0000
  H   H788      1.0  0.75028  0.95601  0.93130  1.0000
  C   C492      1.0  0.67030  0.03453  0.68105  1.0000
  H   H789      1.0  0.54137  0.89532  0.88579  1.0000
  H   H790      1.0  0.61984  0.03992  0.56304  1.0000
  H   H791      1.0  0.76336  0.71005  0.04092  1.0000
  S   S193      1.0  0.54166  0.74462  0.96096  1.0000
  Fe  Fe96      1.0  0.57149  0.04424  0.64029  1.0000
  C   C493      1.0  0.77156  0.86266  0.00866  1.0000
  C   C494      1.0  0.77487  0.92266  0.54797  1.0000
  S   S194      1.0  0.74509  0.99291  0.57014  1.0000
  H   H792      1.0  0.75260  0.58589  0.82851  1.0000
  H   H793      1.0  0.69727  0.03105  0.66266  1.0000
  H   H794      1.0  0.76430  0.62480  0.75693  1.0000
  C   C495      1.0  0.54075  0.05049  0.55482  1.0000
  H   H795      1.0  0.65926  0.67899  0.03198  1.0000
  S   S195      1.0  0.77229  0.82030  0.01303  1.0000
  N   N51       1.0  0.53027  0.86513  0.93042  1.0000
  C   C496      1.0  0.53003  0.03050  0.57633  1.0000
  C   C497      1.0  0.75485  0.65769  0.55300  1.0000
  C   C498      1.0  0.75277  0.62412  0.55173  1.0000
  S   S196      1.0  0.75136  0.05003  0.74151  1.0000
  C   C499      1.0  0.77887  0.97683  0.89596  1.0000
  H   H796      1.0  0.69296  0.88703  0.54733  1.0000
  Fe  Fe97      1.0  0.79270  0.25515  0.39744  1.0000
  S   S197      1.0  0.80288  0.21651  0.44282  1.0000
  H   H797      1.0  0.79957  0.16236  0.08959  1.0000
  H   H798      1.0  0.99031  0.37965  0.46145  1.0000
  S   S198      1.0  0.80502  0.27309  0.51157  1.0000
  H   H799      1.0  0.93487  0.21063  0.30724  1.0000
  Fe  Fe98      1.0  0.82283  0.25279  0.46561  1.0000
  S   S199      1.0  0.85222  0.24206  0.48433  1.0000
  H   H800      1.0  0.89586  0.23180  0.28126  1.0000
  S   S200      1.0  0.81410  0.28952  0.41704  1.0000
  Fe  Fe99      1.0  0.96452  0.24316  0.37974  1.0000
  S   S201      1.0  0.95074  0.26316  0.43266  1.0000
  S   S202      1.0  0.96335  0.18906  0.37396  1.0000
  Fe  Fe100     1.0  0.97115  0.31036  0.34604  1.0000
  S   S203      1.0  0.95743  0.33515  0.39561  1.0000
  S   S204      1.0  0.98243  0.33699  0.29399  1.0000
  Fe  Fe101     1.0  0.97283  0.29864  0.43719  1.0000
  S   S205      1.0  0.98472  0.31752  0.49748  1.0000
  Fe  Fe102     1.0  0.93682  0.29727  0.38624  1.0000
  S   S206      1.0  0.90705  0.30740  0.37513  1.0000
  S   S207      1.0  0.98795  0.27577  0.38805  1.0000
  S   S208      1.0  0.94929  0.27533  0.33298  1.0000
  Fe  Fe103     1.0  0.93619  0.53759  0.16680  1.0000
  H   H801      1.0  0.85168  0.50962  0.08057  1.0000
  Fe  Fe104     1.0  0.97807  0.07756  0.19659  1.0000
  S   S209      1.0  0.99213  0.12234  0.21848  1.0000
  C   C500      1.0  0.97939  0.37934  0.28951  1.0000
  C   C501      1.0  0.78303  0.35922  0.06920  1.0000
  S   S210      1.0  0.95061  0.06225  0.20838  1.0000
  H   H802      1.0  0.90579  0.21778  0.39338  1.0000
  H   H803      1.0  0.88423  0.18772  0.34914  1.0000
  H   H804      1.0  0.88981  0.17486  0.29952  1.0000
  H   H805      1.0  0.99747  0.35289  0.37777  1.0000
  N   N52       1.0  0.01172  0.38261  0.42198  1.0000
  C   C502      1.0  0.97118  0.17122  0.33015  1.0000
  C   C503      1.0  0.96743  0.13886  0.32185  1.0000
  C   C504      1.0  0.97347  0.12392  0.28713  1.0000
  C   C505      1.0  0.98360  0.14111  0.26096  1.0000
  C   C506      1.0  0.98737  0.17349  0.26927  1.0000
  C   C507      1.0  0.98098  0.18867  0.30355  1.0000
  H   H806      1.0  0.95992  0.12522  0.34246  1.0000
  H   H807      1.0  0.97066  0.09887  0.28117  1.0000
  H   H808      1.0  0.99519  0.18690  0.24909  1.0000
  H   H809      1.0  0.98391  0.21365  0.30974  1.0000
  H   H810      1.0  0.79777  0.41803  0.52253  1.0000
  C   C508      1.0  0.00691  0.30704  0.51617  1.0000
  S   S211      1.0  0.78514  0.46827  0.08657  1.0000
  H   H811      1.0  0.86957  0.51772  0.14627  1.0000
  C   C509      1.0  0.98402  0.39530  0.25417  1.0000
  H   H812      1.0  0.92334  0.18763  0.38807  1.0000
  C   C510      1.0  0.86784  0.25701  0.45213  1.0000
  C   C511      1.0  0.86225  0.26958  0.41334  1.0000
  C   C512      1.0  0.87442  0.28504  0.39016  1.0000
  C   C513      1.0  0.89244  0.28698  0.40488  1.0000
  C   C514      1.0  0.89830  0.27304  0.44283  1.0000
  C   C515      1.0  0.88599  0.25814  0.46645  1.0000
  H   H813      1.0  0.84849  0.26782  0.40130  1.0000
  H   H814      1.0  0.86983  0.29551  0.36065  1.0000
  H   H815      1.0  0.91218  0.27445  0.45446  1.0000
  H   H816      1.0  0.89046  0.24820  0.49631  1.0000
  H   H817      1.0  0.90115  0.15642  0.34476  1.0000
  C   C516      1.0  0.88643  0.05731  0.08205  1.0000
  Fe  Fe105     1.0  0.94648  0.05404  0.14109  1.0000
  H   H818      1.0  0.93044  0.16983  0.32003  1.0000
  H   H819      1.0  0.91138  0.25415  0.31363  1.0000
  N   N53       1.0  0.90936  0.20432  0.33140  1.0000
  H   H820      1.0  0.01276  0.27666  0.46586  1.0000
  H   H821      1.0  0.92664  0.22890  0.37528  1.0000
  C   C517      1.0  0.84628  0.34090  0.46584  1.0000
  H   H822      1.0  0.79508  0.17107  0.51149  1.0000
  C   C518      1.0  0.89551  0.17971  0.33116  1.0000
  H   H823      1.0  0.01104  0.08348  0.14526  1.0000
  C   C519      1.0  0.91654  0.20984  0.37393  1.0000
  C   C520      1.0  0.79615  0.37667  0.05157  1.0000
  C   C521      1.0  0.90134  0.23490  0.31344  1.0000
  H   H824      1.0  0.85519  0.35320  0.44558  1.0000
  S   S212      1.0  0.97292  0.07419  0.12861  1.0000
  H   H825      1.0  0.83478  0.38977  0.51092  1.0000
  Fe  Fe106     1.0  0.79516  0.30796  0.46146  1.0000
  C   C522      1.0  0.01770  0.54089  0.08678  1.0000
  H   H826      1.0  0.99822  0.06669  0.06776  1.0000
  H   H827      1.0  0.90691  0.42658  0.17385  1.0000
  H   H828      1.0  0.00364  0.33357  0.42632  1.0000
  H   H829      1.0  0.88277  0.08235  0.08731  1.0000
  H   H830      1.0  0.89025  0.24428  0.33101  1.0000
  H   H831      1.0  0.91923  0.18855  0.27485  1.0000
  S   S213      1.0  0.78867  0.23635  0.33347  1.0000
  C   C523      1.0  0.78239  0.37552  0.51121  1.0000
  H   H832      1.0  0.93283  0.39708  0.20993  1.0000
  C   C524      1.0  0.99519  0.39601  0.43793  1.0000
  C   C525      1.0  0.92639  0.47141  0.25055  1.0000
  C   C526      1.0  0.92404  0.19283  0.30722  1.0000
  H   H833      1.0  0.79957  0.11210  0.52436  1.0000
  C   C527      1.0  0.00813  0.35086  0.40348  1.0000
  H   H834      1.0  0.99741  0.41990  0.45234  1.0000
  H   H835      1.0  0.87248  0.30991  0.51347  1.0000
  C   C528      1.0  0.01793  0.28688  0.49442  1.0000
  H   H836      1.0  0.98906  0.38141  0.22961  1.0000
  H   H837      1.0  0.84700  0.31472  0.45914  1.0000
  S   S214      1.0  0.92009  0.07330  0.11087  1.0000
  H   H838      1.0  0.00723  0.40813  0.36444  1.0000
  S   S215      1.0  0.98749  0.54939  0.18911  1.0000
  H   H839      1.0  0.94636  0.43199  0.20758  1.0000
  S   S216      1.0  0.81668  0.53531  0.04788  1.0000
  C   C529      1.0  0.78608  0.40515  0.52970  1.0000
  C   C530      1.0  0.78804  0.15463  0.07057  1.0000
  H   H840      1.0  0.02279  0.13701  0.16121  1.0000
  C   C531      1.0  0.84006  0.32792  0.53489  1.0000
  H   H841      1.0  0.94363  0.41293  0.25581  1.0000
  H   H842      1.0  0.90381  0.40158  0.24206  1.0000
  C   C532      1.0  0.01761  0.40487  0.39065  1.0000
  H   H843      1.0  0.85737  0.39638  0.49885  1.0000
  C   C533      1.0  0.00384  0.53440  0.05715  1.0000
  H   H844      1.0  0.93580  0.48444  0.23239  1.0000
  S   S217      1.0  0.98315  0.52052  0.07065  1.0000
  H   H845      1.0  0.96910  0.38549  0.34807  1.0000
  Fe  Fe107     1.0  0.96933  0.51709  0.22133  1.0000
  Fe  Fe108     1.0  0.78411  0.24052  0.48363  1.0000
  S   S218      1.0  0.97500  0.48971  0.28104  1.0000
  S   S219      1.0  0.90656  0.52986  0.16603  1.0000
  Fe  Fe109     1.0  0.97248  0.53222  0.13153  1.0000
  S   S220      1.0  0.95627  0.49651  0.16384  1.0000
  H   H846      1.0  0.91480  0.48842  0.25398  1.0000
  N   N54       1.0  0.92067  0.44115  0.23059  1.0000
  S   S221      1.0  0.79607  0.36132  0.47397  1.0000
  C   C534      1.0  0.87598  0.51855  0.11799  1.0000
  C   C535      1.0  0.86580  0.51414  0.08077  1.0000
  C   C536      1.0  0.84906  0.38149  0.51782  1.0000
  C   C537      1.0  0.87044  0.33624  0.51904  1.0000
  C   C538      1.0  0.98230  0.42920  0.25059  1.0000
  C   C539      1.0  0.97632  0.44725  0.28281  1.0000
  C   C540      1.0  0.97166  0.43130  0.31805  1.0000
  C   C541      1.0  0.78569  0.42590  0.08286  1.0000
  H   H847      1.0  0.98604  0.44138  0.22343  1.0000
  H   H848      1.0  0.96699  0.44521  0.34300  1.0000
  C   C542      1.0  0.90261  0.52487  0.08215  1.0000
  H   H849      1.0  0.93351  0.46667  0.28127  1.0000
  H   H850      1.0  0.91682  0.52891  0.08256  1.0000
  C   C543      1.0  0.89436  0.52407  0.11876  1.0000
  C   C544      1.0  0.90838  0.42455  0.25615  1.0000
  H   H851      1.0  0.83228  0.34965  0.45693  1.0000
  H   H852      1.0  0.82562  0.33493  0.52816  1.0000
  H   H853      1.0  0.89926  0.46481  0.19246  1.0000
  C   C545      1.0  0.91135  0.44877  0.19000  1.0000
  H   H854      1.0  0.92017  0.46166  0.17005  1.0000
  H   H855      1.0  0.89624  0.44000  0.26040  1.0000
  H   H856      1.0  0.01587  0.53712  0.11878  1.0000
  C   C546      1.0  0.93655  0.41984  0.22571  1.0000
  H   H857      1.0  0.87946  0.34928  0.49972  1.0000
  H   H858      1.0  0.91502  0.41842  0.28701  1.0000
  H   H859      1.0  0.02027  0.33987  0.39112  1.0000
  H   H860      1.0  0.98416  0.39934  0.41325  1.0000
  C   C547      1.0  0.97291  0.39745  0.32107  1.0000
  N   N55       1.0  0.85148  0.34668  0.50944  1.0000
  H   H861      1.0  0.84158  0.30149  0.52931  1.0000
  C   C548      1.0  0.78699  0.12402  0.53027  1.0000
  C   C549      1.0  0.78446  0.15739  0.52292  1.0000
  C   C550      1.0  0.02295  0.07268  0.16357  1.0000
  H   H862      1.0  0.01930  0.07039  0.19559  1.0000
  C   C551      1.0  0.01001  0.05648  0.05542  1.0000
  H   H863      1.0  0.02027  0.42924  0.40334  1.0000
  H   H864      1.0  0.78419  0.17356  0.37165  1.0000
  C   C552      1.0  0.02592  0.37853  0.45590  1.0000
  H   H865      1.0  0.02173  0.36211  0.48019  1.0000
  H   H866      1.0  0.79841  0.21629  0.05603  1.0000
  H   H867      1.0  0.80291  0.25826  0.05035  1.0000
  H   H868      1.0  0.78029  0.24587  0.05089  1.0000
  S   S222      1.0  0.78009  0.31869  0.05550  1.0000
  C   C553      1.0  0.79744  0.40994  0.05835  1.0000
  H   H869      1.0  0.02913  0.40201  0.47048  1.0000
  H   H870      1.0  0.84352  0.33176  0.56801  1.0000
  H   H871      1.0  0.01689  0.44355  0.01844  1.0000
  C   C554      1.0  0.01379  0.32006  0.55324  1.0000
  H   H872      1.0  0.80506  0.36467  0.03184  1.0000
  N   N56       1.0  0.79235  0.23552  0.99520  1.0000
  H   H873      1.0  0.99586  0.53339  0.99260  1.0000
  C   C555      1.0  0.01931  0.07490  0.02839  1.0000
  S   S223      1.0  0.78090  0.47784  0.89194  1.0000
  C   C556      1.0  0.02293  0.54945  0.00388  1.0000
  H   H874      1.0  0.01581  0.24940  0.63362  1.0000
  C   C557      1.0  0.81000  0.22439  0.98265  1.0000
  H   H875      1.0  0.79974  0.14842  0.65947  1.0000
  S   S224      1.0  0.78798  0.53441  0.71479  1.0000
  H   H876      1.0  0.87481  0.05892  0.93860  1.0000
  C   C558      1.0  0.79001  0.12920  0.04334  1.0000
  H   H877      1.0  0.81429  0.20054  0.99712  1.0000
  H   H878      1.0  0.78294  0.18703  0.99466  1.0000
  H   H879      1.0  0.87495  0.34053  0.55160  1.0000
  Fe  Fe110     1.0  0.79752  0.49517  0.03659  1.0000
  C   C559      1.0  0.89239  0.52052  0.04486  1.0000
  H   H880      1.0  0.01465  0.09934  0.02036  1.0000
  C   C560      1.0  0.79355  0.23906  0.04004  1.0000
  S   S225      1.0  0.81534  0.54198  0.94718  1.0000
  H   H881      1.0  0.89877  0.52132  0.01653  1.0000
  Fe  Fe111     1.0  0.81256  0.06407  0.00806  1.0000
  H   H882      1.0  0.85285  0.38680  0.55048  1.0000
  H   H883      1.0  0.79678  0.28595  0.98509  1.0000
  C   C561      1.0  0.79635  0.53082  0.79726  1.0000
  H   H884      1.0  0.78629  0.26561  0.94167  1.0000
  S   S226      1.0  0.86121  0.51240  0.99678  1.0000
  H   H885      1.0  0.01391  0.21219  0.57631  1.0000
  H   H886      1.0  0.01008  0.19109  0.64692  1.0000
  H   H887      1.0  0.80761  0.42311  0.04471  1.0000
  H   H888      1.0  0.78146  0.14541  0.62107  1.0000
  H   H889      1.0  0.80964  0.22140  0.94900  1.0000
  H   H890      1.0  0.79818  0.08974  0.67312  1.0000
  C   C562      1.0  0.00654  0.53847  0.01567  1.0000
  C   C563      1.0  0.78708  0.26707  0.97552  1.0000
  H   H891      1.0  0.78770  0.06063  0.87113  1.0000
  H   H892      1.0  0.01859  0.45466  0.94504  1.0000
  S   S227      1.0  0.81156  0.11322  0.03664  1.0000
  C   C564      1.0  0.78701  0.51690  0.76348  1.0000
  H   H893      1.0  0.02640  0.48140  0.03249  1.0000
  C   C565      1.0  0.87393  0.51543  0.04406  1.0000
  C   C566      1.0  0.02483  0.18632  0.65080  1.0000
  S   S228      1.0  0.81326  0.47086  0.98975  1.0000
  H   H894      1.0  0.82055  0.24184  0.99184  1.0000
  C   C567      1.0  0.79466  0.51889  0.83686  1.0000
  H   H895      1.0  0.00537  0.33590  0.57005  1.0000
  H   H896      1.0  0.80179  0.52992  0.86273  1.0000
  C   C568      1.0  0.78181  0.13039  0.72324  1.0000
  C   C569      1.0  0.78331  0.09226  0.66865  1.0000
  Fe  Fe112     1.0  0.79597  0.50191  0.94498  1.0000
  Fe  Fe113     1.0  0.83104  0.51334  0.99722  1.0000
  H   H897      1.0  0.79659  0.12832  0.73035  1.0000
  C   C570      1.0  0.78377  0.49276  0.84274  1.0000
  C   C571      1.0  0.78486  0.14934  0.65428  1.0000
  H   H898      1.0  0.02758  0.16092  0.64179  1.0000
  H   H899      1.0  0.80475  0.55112  0.79286  1.0000
  H   H900      1.0  0.02704  0.49368  0.95759  1.0000
  H   H901      1.0  0.02915  0.18819  0.68402  1.0000
  C   C572      1.0  0.02850  0.20636  0.58260  1.0000
  H   H902      1.0  0.78002  0.17426  0.66108  1.0000
  C   C573      1.0  0.00299  0.66564  0.10994  1.0000
  H   H903      1.0  0.91762  0.95021  0.21577  1.0000
  H   H904      1.0  0.84362  0.86134  0.44189  1.0000
  Fe  Fe114     1.0  0.78470  0.73985  0.48498  1.0000
  H   H905      1.0  0.93664  0.72262  0.32846  1.0000
  C   C574      1.0  0.90886  0.01376  0.08427  1.0000
  H   H906      1.0  0.01478  0.60342  0.12810  1.0000
  C   C575      1.0  0.87335  0.03630  0.06631  1.0000
  Fe  Fe115     1.0  0.96493  0.58671  0.18941  1.0000
  S   S229      1.0  0.96867  0.64039  0.19734  1.0000
  H   H907      1.0  0.89949  0.96783  0.06238  1.0000
  N   N57       1.0  0.99620  0.63527  0.09224  1.0000
  C   C576      1.0  0.91781  0.71048  0.39209  1.0000
  C   C577      1.0  0.96910  0.68084  0.32671  1.0000
  H   H908      1.0  0.91506  0.73615  0.39989  1.0000
  C   C578      1.0  0.96926  0.68903  0.25342  1.0000
  C   C579      1.0  0.96867  0.65555  0.24730  1.0000
  C   C580      1.0  0.96823  0.63476  0.28099  1.0000
  C   C581      1.0  0.96849  0.64739  0.32055  1.0000
  H   H909      1.0  0.78257  0.90729  0.19856  1.0000
  H   H910      1.0  0.96792  0.60892  0.27665  1.0000
  H   H911      1.0  0.96829  0.63113  0.34651  1.0000
  S   S230      1.0  0.96893  0.69565  0.37681  1.0000
  H   H912      1.0  0.96966  0.70524  0.22750  1.0000
  H   H913      1.0  0.78583  0.90441  0.08626  1.0000
  H   H914      1.0  0.99498  0.61454  0.15212  1.0000
  C   C582      1.0  0.00506  0.62783  0.05471  1.0000
  H   H915      1.0  0.88517  0.69479  0.36019  1.0000
  C   C583      1.0  0.97661  0.63875  0.08229  1.0000
  C   C584      1.0  0.78972  0.90427  0.11968  1.0000
  C   C585      1.0  0.90419  0.04612  0.09112  1.0000
  N   N58       1.0  0.02145  0.86340  0.44079  1.0000
  H   H916      1.0  0.78834  0.92967  0.13009  1.0000
  H   H917      1.0  0.81758  0.84362  0.53042  1.0000
  H   H918      1.0  0.91052  0.69516  0.41275  1.0000
  H   H919      1.0  0.77941  0.60629  0.47569  1.0000
  Fe  Fe116     1.0  0.79233  0.74984  0.39726  1.0000
  C   C586      1.0  0.83638  0.84839  0.46499  1.0000
  C   C587      1.0  0.02560  0.89050  0.41386  1.0000
  C   C588      1.0  0.96944  0.70168  0.29301  1.0000
  H   H920      1.0  0.87834  0.02764  0.21311  1.0000
  C   C589      1.0  0.00012  0.60866  0.12225  1.0000
  H   H921      1.0  0.96952  0.64388  0.11012  1.0000
  C   C590      1.0  0.87804  0.00404  0.05908  1.0000
  H   H922      1.0  0.92298  0.00168  0.18208  1.0000
  C   C591      1.0  0.89580  0.99277  0.06810  1.0000
  H   H923      1.0  0.93241  0.70525  0.39936  1.0000
  C   C592      1.0  0.78397  0.88264  0.18580  1.0000
  S   S231      1.0  0.78355  0.86112  0.45637  1.0000
  H   H924      1.0  0.91854  0.75211  0.32873  1.0000
  N   N59       1.0  0.91236  0.70442  0.34867  1.0000
  H   H925      1.0  0.88904  0.73615  0.34778  1.0000
  H   H926      1.0  0.02373  0.81146  0.44180  1.0000
  H   H927      1.0  0.00035  0.68633  0.08814  1.0000
  H   H928      1.0  0.87939  0.96115  0.17307  1.0000
  Fe  Fe117     1.0  0.79019  0.80771  0.45305  1.0000
  S   S232      1.0  0.80252  0.77952  0.50720  1.0000
  H   H929      1.0  0.89081  0.01564  0.26025  1.0000
  Fe  Fe118     1.0  0.82183  0.76008  0.46418  1.0000
  S   S233      1.0  0.85104  0.75758  0.48793  1.0000
  C   C593      1.0  0.00204  0.86440  0.44586  1.0000
  S   S234      1.0  0.81059  0.79084  0.41089  1.0000
  Fe  Fe119     1.0  0.96665  0.74941  0.38763  1.0000
  S   S235      1.0  0.94932  0.76360  0.43757  1.0000
  H   H930      1.0  0.91009  0.65327  0.35817  1.0000
  Fe  Fe120     1.0  0.97448  0.81956  0.36822  1.0000
  S   S236      1.0  0.95727  0.83898  0.41560  1.0000
  S   S237      1.0  0.99088  0.85180  0.33101  1.0000
  Fe  Fe121     1.0  0.97049  0.79910  0.45573  1.0000
  S   S238      1.0  0.97957  0.81084  0.52141  1.0000
  Fe  Fe122     1.0  0.93785  0.80164  0.39306  1.0000
  S   S239      1.0  0.90833  0.80981  0.37464  1.0000
  S   S240      1.0  0.98891  0.78170  0.40958  1.0000
  S   S241      1.0  0.95402  0.78556  0.34194  1.0000
  Fe  Fe123     1.0  0.96240  0.01153  0.21125  1.0000
  H   H931      1.0  0.88368  0.99909  0.14940  1.0000
  S   S242      1.0  0.95069  0.97949  0.25761  1.0000
  H   H932      1.0  0.88820  0.70636  0.30833  1.0000
  H   H933      1.0  0.97107  0.61618  0.06890  1.0000
  H   H934      1.0  0.91335  0.66511  0.30648  1.0000
  S   S243      1.0  0.95675  0.00249  0.14420  1.0000
  H   H935      1.0  0.91294  0.97011  0.26181  1.0000
  C   C594      1.0  0.86149  0.85244  0.51534  1.0000
  C   C595      1.0  0.92187  0.72626  0.32269  1.0000
  C   C596      1.0  0.00194  0.80151  0.53991  1.0000
  H   H936      1.0  0.79471  0.84025  0.12986  1.0000
  H   H937      1.0  0.02167  0.91423  0.42664  1.0000
  H   H938      1.0  0.77940  0.82982  0.53458  1.0000
  N   N60       1.0  0.84196  0.85860  0.50694  1.0000
  H   H939      1.0  0.86508  0.82620  0.51281  1.0000
  C   C597      1.0  0.77975  0.87635  0.50474  1.0000
  H   H940      1.0  0.97004  0.72748  0.29744  1.0000
  C   C598      1.0  0.97958  0.88691  0.30979  1.0000
  C   C599      1.0  0.98839  0.90759  0.28450  1.0000
  C   C600      1.0  0.97964  0.93598  0.26786  1.0000
  C   C601      1.0  0.96212  0.94390  0.27684  1.0000
  C   C602      1.0  0.95336  0.92321  0.30213  1.0000
  C   C603      1.0  0.96201  0.89474  0.31838  1.0000
  H   H941      1.0  0.00196  0.90160  0.27759  1.0000
  H   H942      1.0  0.98648  0.95177  0.24832  1.0000
  H   H943      1.0  0.93982  0.92919  0.30923  1.0000
  H   H944      1.0  0.95507  0.87890  0.33759  1.0000
  C   C604      1.0  0.01592  0.02482  0.06594  1.0000
  Fe  Fe124     1.0  0.98381  0.02339  0.13795  1.0000
  S   S244      1.0  0.00508  0.00119  0.10089  1.0000
  H   H945      1.0  0.83918  0.82212  0.46131  1.0000
  C   C605      1.0  0.83752  0.89342  0.51092  1.0000
  C   C606      1.0  0.86699  0.77091  0.45569  1.0000
  C   C607      1.0  0.88501  0.77223  0.47092  1.0000
  C   C608      1.0  0.89786  0.78415  0.44637  1.0000
  C   C609      1.0  0.89270  0.79488  0.40650  1.0000
  C   C610      1.0  0.87471  0.79346  0.39126  1.0000
  C   C611      1.0  0.86191  0.78128  0.41565  1.0000
  H   H946      1.0  0.88902  0.76424  0.50191  1.0000
  H   H947      1.0  0.91170  0.78537  0.45846  1.0000
  H   H948      1.0  0.87067  0.80162  0.36035  1.0000
  H   H949      1.0  0.84815  0.77989  0.40337  1.0000
  H   H950      1.0  0.99776  0.88679  0.46131  1.0000
  S   S245      1.0  0.99044  0.02755  0.20576  1.0000
  H   H951      1.0  0.91839  0.72204  0.28965  1.0000
  H   H952      1.0  0.99401  0.86361  0.41589  1.0000
  H   H953      1.0  0.02534  0.04787  0.15192  1.0000
  S   S246      1.0  0.95105  0.57167  0.12970  1.0000
  H   H954      1.0  0.78361  0.66556  0.47916  1.0000
  H   H955      1.0  0.01818  0.88875  0.38307  1.0000
  H   H956      1.0  0.93172  0.66530  0.34511  1.0000
  H   H957      1.0  0.90680  0.03461  0.18126  1.0000
  H   H958      1.0  0.90005  0.96636  0.15015  1.0000
  H   H959      1.0  0.91925  0.02214  0.22837  1.0000
  S   S247      1.0  0.94817  0.55611  0.22629  1.0000
  H   H960      1.0  0.87402  0.98983  0.23737  1.0000
  C   C612      1.0  0.89000  0.97865  0.16836  1.0000
  N   N61       1.0  0.89846  0.99015  0.20754  1.0000
  C   C613      1.0  0.89282  0.71063  0.34084  1.0000
  C   C614      1.0  0.88477  0.00652  0.23062  1.0000
  C   C615      1.0  0.90671  0.96234  0.23168  1.0000
  H   H961      1.0  0.97309  0.65882  0.06001  1.0000
  H   H962      1.0  0.01896  0.82930  0.39187  1.0000
  C   C616      1.0  0.91242  0.01321  0.19945  1.0000
  H   H963      1.0  0.84446  0.90823  0.48902  1.0000
  H   H964      1.0  0.99369  0.58610  0.11154  1.0000
  H   H965      1.0  0.82281  0.89853  0.50465  1.0000
  H   H966      1.0  0.00762  0.77070  0.48999  1.0000
  S   S248      1.0  0.80523  0.71728  0.44730  1.0000
  H   H967      1.0  0.99825  0.84353  0.46442  1.0000
  C   C617      1.0  0.01292  0.78139  0.51811  1.0000
  H   H968      1.0  0.84146  0.90200  0.54227  1.0000
  H   H969      1.0  0.02806  0.88927  0.49615  1.0000
  H   H970      1.0  0.85966  0.04518  0.05951  1.0000
  H   H971      1.0  0.85161  0.60470  0.07660  1.0000
  H   H972      1.0  0.01985  0.62444  0.06113  1.0000
  H   H973      1.0  0.80413  0.89662  0.12414  1.0000
  C   C618      1.0  0.91702  0.67050  0.33917  1.0000
  S   S249      1.0  0.78621  0.72750  0.33579  1.0000
  H   H974      1.0  0.86919  0.86560  0.49325  1.0000
  H   H975      1.0  0.92258  0.00507  0.09081  1.0000
  H   H976      1.0  0.89673  0.94391  0.23751  1.0000
  H   H977      1.0  0.01770  0.66361  0.11833  1.0000
  C   C619      1.0  0.02654  0.83245  0.42214  1.0000
  H   H978      1.0  0.82176  0.85299  0.45729  1.0000
  H   H979      1.0  0.99641  0.67180  0.13825  1.0000
  H   H980      1.0  0.79815  0.87398  0.19226  1.0000
  H   H981      1.0  0.83558  0.81354  0.53446  1.0000
  C   C620      1.0  0.83237  0.83996  0.53636  1.0000
  H   H982      1.0  0.02840  0.84616  0.50222  1.0000
  C   C621      1.0  0.78052  0.84927  0.12614  1.0000
  H   H983      1.0  0.87979  0.61754  0.04805  1.0000
  H   H984      1.0  0.86626  0.85995  0.54668  1.0000
  S   S250      1.0  0.81395  0.01986  0.04857  1.0000
  H   H985      1.0  0.85298  0.61576  0.94732  1.0000
  H   H986      1.0  0.85727  0.01610  0.90294  1.0000
  H   H987      1.0  0.86677  0.97588  0.90012  1.0000
  H   H988      1.0  0.79943  0.86521  0.99770  1.0000
  N   N62       1.0  0.85430  0.61482  0.01302  1.0000
  S   S251      1.0  0.79271  0.04439  0.96044  1.0000
  S   S252      1.0  0.86206  0.97797  0.03704  1.0000
  C   C622      1.0  0.01203  0.72789  0.63425  1.0000
  C   C623      1.0  0.84723  0.60291  0.97279  1.0000
  H   H989      1.0  0.79147  0.97369  0.88046  1.0000
  N   N63       1.0  0.02683  0.71903  0.66542  1.0000
  C   C624      1.0  0.89578  0.98503  0.95276  1.0000
  C   C625      1.0  0.84959  0.64962  0.01595  1.0000
  C   C626      1.0  0.02677  0.80744  0.59221  1.0000
  Fe  Fe125     1.0  0.80002  0.56186  0.99760  1.0000
  H   H990      1.0  0.85995  0.99060  0.94769  1.0000
  H   H991      1.0  0.00916  0.71083  0.71254  1.0000
  C   C627      1.0  0.78716  0.87892  0.00168  1.0000
  H   H992      1.0  0.88055  0.62287  0.99373  1.0000
  H   H993      1.0  0.84928  0.57057  0.04380  1.0000
  S   S253      1.0  0.81863  0.97822  0.96517  1.0000
  H   H994      1.0  0.87657  0.03387  0.98347  1.0000
  Fe  Fe126     1.0  0.83642  0.00356  0.01190  1.0000
  Fe  Fe127     1.0  0.79601  0.99874  0.99828  1.0000
  Fe  Fe128     1.0  0.81676  0.02544  0.93095  1.0000
  C   C628      1.0  0.86634  0.99763  0.91964  1.0000
  H   H995      1.0  0.89737  0.96284  0.93443  1.0000
  S   S254      1.0  0.82026  0.02179  0.86367  1.0000
  H   H996      1.0  0.88419  0.03726  0.87367  1.0000
  H   H997      1.0  0.79928  0.92520  0.99700  1.0000
  C   C629      1.0  0.80113  0.03008  0.82984  1.0000
  H   H998      1.0  0.78253  0.91752  0.86535  1.0000
  C   C630      1.0  0.87399  0.60957  0.01766  1.0000
  H   H999      1.0  0.83474  0.65397  0.01254  1.0000
  H   H1000     1.0  0.00114  0.74218  0.64754  1.0000
  H   H1001     1.0  0.81106  0.00135  0.78176  1.0000
  H   H1002     1.0  0.90615  0.02821  0.89842  1.0000
  H   H1003     1.0  0.90939  0.99386  0.96203  1.0000
  C   C631      1.0  0.88304  0.03925  0.95511  1.0000
  H   H1004     1.0  0.85041  0.57664  0.96962  1.0000
  H   H1005     1.0  0.85531  0.66394  0.99164  1.0000
  H   H1006     1.0  0.78200  0.97010  0.92864  1.0000
  C   C632      1.0  0.80009  0.01658  0.79081  1.0000
  H   H1007     1.0  0.88981  0.97767  0.98119  1.0000
  H   H1008     1.0  0.87777  0.58343  0.01502  1.0000
  H   H1009     1.0  0.00046  0.83016  0.59400  1.0000
  C   C633      1.0  0.00891  0.81450  0.57703  1.0000
  N   N64       1.0  0.88443  0.01010  0.92981  1.0000
  H   H1010     1.0  0.01679  0.74282  0.60923  1.0000
  H   H1011     1.0  0.00254  0.64747  0.03137  1.0000
  C   C634      1.0  0.89253  0.01853  0.89178  1.0000
  S   S255      1.0  0.79754  0.61627  0.99645  1.0000
  H   H1012     1.0  0.89384  0.99706  0.87199  1.0000
  H   H1013     1.0  0.00601  0.70611  0.61988  1.0000
  H   H1014     1.0  0.01468  0.67548  0.68413  1.0000
  H   H1015     1.0  0.83239  0.60633  0.96830  1.0000
  C   C635      1.0  0.78708  0.91287  0.00122  1.0000
  H   H1016     1.0  0.02345  0.76313  0.69855  1.0000
  H   H1017     1.0  0.78407  0.01134  0.73384  1.0000
  H   H1018     1.0  0.78754  0.68278  0.00573  1.0000
  C   C636      1.0  0.02007  0.69823  0.69721  1.0000
  C   C637      1.0  0.78691  0.04971  0.84133  1.0000
  H   H1019     1.0  0.00010  0.60508  0.04071  1.0000
  C   C638      1.0  0.78017  0.63466  0.02166  1.0000
  S   S256      1.0  0.83653  0.04930  0.97496  1.0000
  C   C639      1.0  0.78482  0.02230  0.76356  1.0000
  H   H1020     1.0  0.89646  0.04883  0.96458  1.0000
  H   H1021     1.0  0.83606  0.84725  0.56836  1.0000
  C   C640      1.0  0.84631  0.59696  0.04573  1.0000
  H   H1022     1.0  0.83147  0.60072  0.04360  1.0000
  H   H1023     1.0  0.02481  0.55316  0.97190  1.0000
  H   H1024     1.0  0.85460  0.65937  0.04604  1.0000
