data_image0
_chemical_formula_structural       FeSFeS2FeSFeCS2HNC2FeH2C2H2CH4NHCHCHC2HCH3CH3CHCHCH2CH4FeS2HSFeSFeNS2HC2H3C2HC2HSH2CHCH2CH4C3HSH3CHCH3CH4C2H2CNH3FeSHFeS2FeSFeS3NHCHCH4C3HC2H2CH2CHCH2CH2CHC2HCHCHNC2H2NH2C2NHCH4CH4CS2H7S2H4CHFeCFeSCSCH2SHC2HC2HCHCNH3C2HFeSHSHC2HCHCSCFeH5C2H2SCH8CHC2HC3H3C2H2CH2NCH2C2HCH2CHFeHSHFeC2H2CSH2C2H2SC2FeHSH2C2HC2H2SCNH3CSHSFe2SCFeHNH2CHC2FeH3SH3C2SH2CHSHC2S3C2HSHFeCHCH3CH6SHFeHSH2FeHCH3Fe3CFeH6CH3SC2SH3NH4CH4SHC3H3C3H2NC2SCHC4HCHCHCSH2SCSCHSHC3HCHSCSC2HSCFeCSCH8NC3HCHNSH2NCSH3FeSH2SHCH4CHS2FeSFeH2CFeCH2NCH2C2HCHNHCHC4HSHSH2C3SHSH2CHCHCH2CH3C2H2FeS2FeSFe2S3H4NC2HSHC4H3C2H3CHCHNC2H2CHCH3CH8CHC3HC2H2C2H2FeHSH3FeS2FeS2FeSHS2HSH4C2H2C6H3NCHCHCHCH2C2H2FeHCH2CH2C2H3CFeHCSFeSFe2SHS2H2CSHCSH4C2HCH4NHCH5CH2CH2FeSHFeHSNHFeS2CHC4HCFeC4H4CHSCH2CNH2CHNH4CHSH2CH2NHCHCHCSFeS2CFeS2C3H2CHC6H4CH5C2H2CHFeH2NHSH2CH2CH2CH4CH2CSCH3C3SNH6C2HCFeSFeS2FeSFeS3HC2H2C2H2SC3H6CFeH2CH4C2H3SHSH2CSCHC2HS2C2FeHSHC2Fe2HCH2SCSHCH2CHCSH5NCH2C2H3SFeS2HC6H5CHFeH3SH5SH2CH2C2HFeCSHCHC2H2CSH3C2H2C3H3NCHCNHCH4FeSCHSFeH3SH3CHNCH2C4NCHCSFeCH3C2H4CHCHC4FeSHSCFeSFeS3H3C2HNH7CHCH4CH2NHFeHC4HCH2SC3HSH4CH3NCFeCHCFeHS3HSH3CSFeHCSCFeH3C2SHCH5CHSCHCSHFeHCSHC2H3FeC2HNC2H2CH2C2HCH3CHC2NCH3SH2CH3CHC2H4NSFeSC2HC3H3SCH2CHSHFeHCSHC2HNFeCSFeSCHSHCHC2HCH10CSHCH4CH5NH2CHCFeSFeS2FeSFeHS3HCH3SC3H2C2H2C2H2C2NHCH4SHC2H2CH2CHC3HSCSCH3CFeH7CHSH2SFeSHFeCFeH2SCHCHSHC4HCHC4H2NH2SH2SH2SC2HC2HCHCNHNSCH5CHFeHFeCSHS2CHC6H4C8H3SH6CNCFeH3SFeCHC2HCH2CH2NH2CHCH2S2CH2FeH11CH
_chemical_formula_sum              "Fe96 S192 C480 H768 N48"
_cell_length_a       39.1455
_cell_length_b       40.092
_cell_length_c       39.8238
_cell_angle_alpha    90.3934
_cell_angle_beta     90.248
_cell_angle_gamma    89.3426

_space_group_name_H-M_alt    "P 1"
_space_group_IT_number       1

loop_
  _space_group_symop_operation_xyz
  'x, y, z'

loop_
  _atom_site_type_symbol
  _atom_site_label
  _atom_site_symmetry_multiplicity
  _atom_site_fract_x
  _atom_site_fract_y
  _atom_site_fract_z
  _atom_site_occupancy
  Fe  Fe1       1.0  0.41754  0.16793  0.25565  1.0000
  S   S1        1.0  0.38315  0.15990  0.21111  1.0000
  Fe  Fe2       1.0  0.48213  0.16252  0.21351  1.0000
  S   S2        1.0  0.45319  0.15458  0.16561  1.0000
  S   S3        1.0  0.53935  0.15788  0.21619  1.0000
  Fe  Fe3       1.0  0.41817  0.19504  0.18491  1.0000
  S   S4        1.0  0.39464  0.23529  0.15282  1.0000
  Fe  Fe4       1.0  0.42118  0.12032  0.19635  1.0000
  C   C1        1.0  0.42805  0.31600  0.20456  1.0000
  S   S5        1.0  0.44984  0.20587  0.23058  1.0000
  S   S6        1.0  0.45287  0.12533  0.24302  1.0000
  H   H1        1.0  0.16126  0.15063  0.35726  1.0000
  N   N1        1.0  0.50569  0.20673  0.32475  1.0000
  C   C2        1.0  0.55883  0.19526  0.22804  1.0000
  C   C3        1.0  0.30632  0.28159  0.29299  1.0000
  Fe  Fe5       1.0  0.22968  0.30626  0.41643  1.0000
  H   H2        1.0  0.29304  0.30356  0.30437  1.0000
  H   H3        1.0  0.14552  0.22609  0.28316  1.0000
  C   C4        1.0  0.54105  0.22557  0.22549  1.0000
  C   C5        1.0  0.39931  0.27591  0.16865  1.0000
  H   H4        1.0  0.09626  0.28392  0.49360  1.0000
  H   H5        1.0  0.48895  0.25797  0.32217  1.0000
  C   C6        1.0  0.42616  0.28395  0.19039  1.0000
  H   H6        1.0  0.35441  0.29420  0.14319  1.0000
  H   H7        1.0  0.17562  0.13889  0.29773  1.0000
  H   H8        1.0  0.44578  0.26571  0.19590  1.0000
  H   H9        1.0  0.14364  0.19045  0.36914  1.0000
  N   N2        1.0  0.32882  0.29134  0.26509  1.0000
  H   H10       1.0  0.36289  0.26772  0.22966  1.0000
  C   C7        1.0  0.33617  0.18343  0.28969  1.0000
  H   H11       1.0  0.51569  0.22632  0.21484  1.0000
  C   C8        1.0  0.16146  0.17770  0.35141  1.0000
  H   H12       1.0  0.47504  0.16787  0.30315  1.0000
  C   C9        1.0  0.10731  0.22252  0.42548  1.0000
  C   C10       1.0  0.54224  0.21528  0.32758  1.0000
  H   H13       1.0  0.09795  0.18486  0.32627  1.0000
  C   C11       1.0  0.49122  0.20178  0.35855  1.0000
  H   H14       1.0  0.49343  0.22468  0.37431  1.0000
  H   H15       1.0  0.27396  0.28169  0.53496  1.0000
  H   H16       1.0  0.54302  0.27884  0.23290  1.0000
  C   C12       1.0  0.55666  0.25533  0.23544  1.0000
  H   H17       1.0  0.08563  0.17982  0.44966  1.0000
  H   H18       1.0  0.13534  0.23443  0.32636  1.0000
  H   H19       1.0  0.55721  0.19521  0.34029  1.0000
  C   C13       1.0  0.48700  0.23415  0.30783  1.0000
  H   H20       1.0  0.09698  0.29259  0.44967  1.0000
  C   C14       1.0  0.30165  0.19147  0.29461  1.0000
  H   H21       1.0  0.28364  0.18870  0.27412  1.0000
  C   C15       1.0  0.35492  0.31470  0.27776  1.0000
  H   H22       1.0  0.58522  0.26045  0.13838  1.0000
  H   H23       1.0  0.37089  0.30312  0.29781  1.0000
  C   C16       1.0  0.34591  0.26132  0.25096  1.0000
  H   H24       1.0  0.33896  0.27048  0.53876  1.0000
  H   H25       1.0  0.34438  0.17411  0.26567  1.0000
  H   H26       1.0  0.33601  0.20884  0.54813  1.0000
  H   H27       1.0  0.55381  0.21885  0.30238  1.0000
  Fe  Fe6       1.0  0.26293  0.24818  0.45213  1.0000
  S   S7        1.0  0.22966  0.21042  0.42694  1.0000
  S   S8        1.0  0.30413  0.23273  0.48811  1.0000
  H   H28       1.0  0.51686  0.15461  0.31630  1.0000
  S   S9        1.0  0.19346  0.27374  0.38790  1.0000
  Fe  Fe7       1.0  0.18749  0.24742  0.43695  1.0000
  S   S10       1.0  0.13762  0.22916  0.45714  1.0000
  Fe  Fe8       1.0  0.23896  0.24025  0.38068  1.0000
  N   N3        1.0  0.15177  0.18404  0.31606  1.0000
  S   S11       1.0  0.22004  0.28296  0.46645  1.0000
  S   S12       1.0  0.27595  0.27517  0.40486  1.0000
  H   H29       1.0  0.17900  0.23029  0.31377  1.0000
  C   C17       1.0  0.15292  0.22028  0.30950  1.0000
  C   C18       1.0  0.31392  0.20673  0.35224  1.0000
  H   H30       1.0  0.32431  0.31559  0.21729  1.0000
  H   H31       1.0  0.30543  0.21529  0.37661  1.0000
  H   H32       1.0  0.36662  0.20186  0.36759  1.0000
  C   C19       1.0  0.35980  0.18761  0.31574  1.0000
  C   C20       1.0  0.50218  0.17564  0.30495  1.0000
  H   H33       1.0  0.20254  0.17465  0.29757  1.0000
  C   C21       1.0  0.37509  0.30040  0.16012  1.0000
  C   C22       1.0  0.25144  0.21321  0.52849  1.0000
  H   H34       1.0  0.26348  0.08721  0.57356  1.0000
  S   S13       1.0  0.40357  0.18024  0.30914  1.0000
  H   H35       1.0  0.51158  0.17876  0.27892  1.0000
  H   H36       1.0  0.23446  0.21917  0.50784  1.0000
  C   C23       1.0  0.10530  0.24389  0.39794  1.0000
  H   H37       1.0  0.12237  0.26473  0.39609  1.0000
  C   C24       1.0  0.28685  0.21565  0.52456  1.0000
  H   H38       1.0  0.18758  0.18695  0.35711  1.0000
  H   H39       1.0  0.45936  0.22838  0.30498  1.0000
  C   C25       1.0  0.34856  0.19895  0.34717  1.0000
  H   H40       1.0  0.28617  0.26412  0.28427  1.0000
  H   H41       1.0  0.16948  0.17079  0.26661  1.0000
  H   H42       1.0  0.10848  0.17639  0.28345  1.0000
  H   H43       1.0  0.50447  0.18103  0.37193  1.0000
  C   C26       1.0  0.17583  0.16629  0.29347  1.0000
  C   C27       1.0  0.30861  0.20755  0.55127  1.0000
  C   C28       1.0  0.29057  0.20353  0.32577  1.0000
  H   H44       1.0  0.44866  0.32199  0.22169  1.0000
  S   S14       1.0  0.24805  0.21672  0.33034  1.0000
  H   H45       1.0  0.36197  0.24840  0.27013  1.0000
  H   H46       1.0  0.49731  0.23866  0.28228  1.0000
  H   H47       1.0  0.28819  0.29091  0.22855  1.0000
  C   C29       1.0  0.11678  0.17190  0.30982  1.0000
  H   H48       1.0  0.53589  0.09484  0.17677  1.0000
  C   C30       1.0  0.23786  0.20400  0.55961  1.0000
  H   H49       1.0  0.32705  0.24296  0.24136  1.0000
  H   H50       1.0  0.46357  0.19539  0.35702  1.0000
  H   H51       1.0  0.11475  0.14474  0.31481  1.0000
  C   C31       1.0  0.30817  0.30780  0.23868  1.0000
  H   H52       1.0  0.32096  0.26885  0.31331  1.0000
  H   H53       1.0  0.21046  0.20278  0.56283  1.0000
  H   H54       1.0  0.30253  0.11045  0.57425  1.0000
  H   H55       1.0  0.54595  0.23885  0.34200  1.0000
  C   C32       1.0  0.33831  0.28638  0.56173  1.0000
  C   C33       1.0  0.52088  0.07586  0.16269  1.0000
  H   H56       1.0  0.49492  0.08674  0.15823  1.0000
  H   H57       1.0  0.36409  0.29746  0.56481  1.0000
  C   C34       1.0  0.27736  0.29650  0.55841  1.0000
  N   N4        1.0  0.31129  0.31234  0.55952  1.0000
  H   H58       1.0  0.31486  0.31571  0.50581  1.0000
  H   H59       1.0  0.25630  0.31534  0.55911  1.0000
  H   H60       1.0  0.37243  0.32246  0.25739  1.0000
  Fe  Fe9       1.0  0.27544  0.27201  0.71689  1.0000
  S   S15       1.0  0.33167  0.26660  0.72662  1.0000
  H   H61       1.0  0.40140  0.23731  0.69080  1.0000
  Fe  Fe10      1.0  0.27456  0.21676  0.66485  1.0000
  S   S16       1.0  0.33070  0.20680  0.66974  1.0000
  S   S17       1.0  0.24292  0.18963  0.62663  1.0000
  Fe  Fe11      1.0  0.32161  0.21164  0.72493  1.0000
  S   S18       1.0  0.35076  0.17432  0.75598  1.0000
  Fe  Fe12      1.0  0.33524  0.26222  0.67075  1.0000
  S   S19       1.0  0.37655  0.28824  0.64313  1.0000
  S   S20       1.0  0.26453  0.21736  0.72027  1.0000
  S   S21       1.0  0.27993  0.27209  0.66085  1.0000
  N   N5        1.0  0.12539  0.32041  0.87056  1.0000
  H   H62       1.0  0.28403  0.15291  0.73564  1.0000
  C   C35       1.0  0.42802  0.23584  0.75263  1.0000
  H   H63       1.0  0.17054  0.29239  0.85682  1.0000
  C   C36       1.0  0.34259  0.07461  0.74074  1.0000
  H   H64       1.0  0.11770  0.29614  0.82288  1.0000
  H   H65       1.0  0.33701  0.13018  0.84875  1.0000
  H   H66       1.0  0.33163  0.12244  0.62685  1.0000
  H   H67       1.0  0.43763  0.24743  0.77629  1.0000
  C   C37       1.0  0.33465  0.13464  0.74672  1.0000
  C   C38       1.0  0.35559  0.10617  0.74911  1.0000
  C   C39       1.0  0.30062  0.13135  0.73669  1.0000
  H   H68       1.0  0.38203  0.10861  0.75669  1.0000
  C   C40       1.0  0.25967  0.19795  0.58687  1.0000
  C   C41       1.0  0.27871  0.10539  0.58841  1.0000
  H   H69       1.0  0.31205  0.19358  0.60307  1.0000
  H   H70       1.0  0.09426  0.27854  0.85708  1.0000
  C   C42       1.0  0.42975  0.23532  0.69204  1.0000
  H   H71       1.0  0.43662  0.20833  0.69110  1.0000
  H   H72       1.0  0.49173  0.25993  0.74665  1.0000
  C   C43       1.0  0.58126  0.31445  0.70734  1.0000
  H   H73       1.0  0.49298  0.25946  0.70183  1.0000
  C   C44       1.0  0.26318  0.28426  0.80123  1.0000
  H   H74       1.0  0.43404  0.20864  0.75359  1.0000
  H   H75       1.0  0.31520  0.10788  0.66596  1.0000
  C   C45       1.0  0.43417  0.28742  0.72235  1.0000
  H   H76       1.0  0.44574  0.30014  0.70043  1.0000
  H   H77       1.0  0.30390  0.12087  0.87823  1.0000
  C   C46       1.0  0.32725  0.11061  0.86588  1.0000
  H   H78       1.0  0.26364  0.12907  0.58938  1.0000
  C   C47       1.0  0.29504  0.19916  0.58249  1.0000
  C   C48       1.0  0.28760  0.09998  0.72856  1.0000
  H   H79       1.0  0.36297  0.08564  0.81472  1.0000
  C   C49       1.0  0.29395  0.08600  0.82116  1.0000
  H   H80       1.0  0.48871  0.22091  0.72430  1.0000
  C   C50       1.0  0.25373  0.08860  0.64080  1.0000
  H   H81       1.0  0.27729  0.26593  0.78666  1.0000
  N   N6        1.0  0.44316  0.25152  0.72274  1.0000
  C   C51       1.0  0.48076  0.24762  0.72392  1.0000
  C   C52       1.0  0.10353  0.30234  0.84635  1.0000
  H   H82       1.0  0.26109  0.09777  0.72118  1.0000
  H   H83       1.0  0.39966  0.23835  0.75258  1.0000
  N   N7        1.0  0.28618  0.09293  0.62255  1.0000
  H   H84       1.0  0.26927  0.09449  0.83222  1.0000
  H   H85       1.0  0.34691  0.10645  0.88577  1.0000
  C   C53       1.0  0.24719  0.30781  0.85536  1.0000
  C   C54       1.0  0.15533  0.29936  0.87942  1.0000
  N   N8        1.0  0.31995  0.07938  0.84738  1.0000
  H   H86       1.0  0.29400  0.14140  0.64454  1.0000
  C   C55       1.0  0.30771  0.11722  0.64073  1.0000
  H   H87       1.0  0.57903  0.29238  0.72264  1.0000
  H   H88       1.0  0.43980  0.24726  0.66897  1.0000
  H   H89       1.0  0.27983  0.26462  0.84900  1.0000
  H   H90       1.0  0.24010  0.11292  0.64457  1.0000
  C   C56       1.0  0.26456  0.28348  0.83645  1.0000
  H   H91       1.0  0.17291  0.31252  0.89700  1.0000
  H   H92       1.0  0.30246  0.10571  0.80368  1.0000
  H   H93       1.0  0.40607  0.29156  0.72078  1.0000
  H   H94       1.0  0.44381  0.30027  0.74529  1.0000
  C   C57       1.0  0.24408  0.30916  0.78506  1.0000
  S   S22       1.0  0.25142  0.30882  0.89912  1.0000
  S   S23       1.0  0.24463  0.31273  0.74133  1.0000
  H   H95       1.0  0.14761  0.27586  0.89181  1.0000
  H   H96       1.0  0.27375  0.27922  0.57989  1.0000
  H   H97       1.0  0.33432  0.26974  0.58361  1.0000
  H   H98       1.0  0.09623  0.30527  0.91349  1.0000
  H   H99       1.0  0.30966  0.32016  0.61276  1.0000
  H   H100      1.0  0.33963  0.31559  0.07161  1.0000
  H   H101      1.0  0.25822  0.07746  0.66594  1.0000
  S   S24       1.0  0.23744  0.37785  0.24905  1.0000
  S   S25       1.0  0.40430  0.37896  0.21761  1.0000
  H   H102      1.0  0.27972  0.43964  0.32180  1.0000
  H   H103      1.0  0.19505  0.48162  0.31571  1.0000
  H   H104      1.0  0.23956  0.44058  0.29964  1.0000
  H   H105      1.0  0.35843  0.35119  0.16741  1.0000
  C   C58       1.0  0.20465  0.36578  0.30804  1.0000
  H   H106      1.0  0.17855  0.35896  0.35508  1.0000
  Fe  Fe13      1.0  0.35629  0.41014  0.21613  1.0000
  C   C59       1.0  0.23615  0.37057  0.29242  1.0000
  Fe  Fe14      1.0  0.28117  0.40929  0.23213  1.0000
  S   S26       1.0  0.31016  0.39850  0.18477  1.0000
  C   C60       1.0  0.25003  0.43347  0.11644  1.0000
  S   S27       1.0  0.32750  0.41728  0.26413  1.0000
  C   C61       1.0  0.37708  0.33250  0.17415  1.0000
  H   H107      1.0  0.21316  0.39512  0.10614  1.0000
  H   H108      1.0  0.20936  0.43402  0.35349  1.0000
  S   S28       1.0  0.23072  0.36093  0.40610  1.0000
  H   H109      1.0  0.27964  0.51386  0.34135  1.0000
  C   C62       1.0  0.20297  0.36234  0.34302  1.0000
  C   C63       1.0  0.22874  0.45029  0.36568  1.0000
  H   H110      1.0  0.24910  0.43355  0.37595  1.0000
  C   C64       1.0  0.23283  0.36371  0.36237  1.0000
  C   C65       1.0  0.31616  0.33197  0.52865  1.0000
  H   H111      1.0  0.36940  0.34435  0.08988  1.0000
  C   C66       1.0  0.26605  0.37068  0.31175  1.0000
  H   H112      1.0  0.21625  0.46299  0.38738  1.0000
  C   C67       1.0  0.26898  0.49494  0.35864  1.0000
  N   N9        1.0  0.24279  0.47447  0.34168  1.0000
  H   H113      1.0  0.29089  0.47929  0.36748  1.0000
  H   H114      1.0  0.26938  0.47372  0.29472  1.0000
  H   H115      1.0  0.31778  0.40171  0.10089  1.0000
  C   C68       1.0  0.25851  0.45626  0.31323  1.0000
  C   C69       1.0  0.29891  0.56931  0.13309  1.0000
  H   H116      1.0  0.25830  0.50852  0.38073  1.0000
  Fe  Fe15      1.0  0.32192  0.47080  0.24929  1.0000
  S   S29       1.0  0.32906  0.51225  0.28700  1.0000
  H   H117      1.0  0.20247  0.51047  0.34973  1.0000
  S   S30       1.0  0.35604  0.46478  0.20464  1.0000
  H   H118      1.0  0.33403  0.52833  0.17374  1.0000
  C   C70       1.0  0.30428  0.54841  0.28024  1.0000
  C   C71       1.0  0.27328  0.54700  0.26271  1.0000
  H   H119      1.0  0.32998  0.55320  0.21128  1.0000
  C   C72       1.0  0.21504  0.49634  0.32896  1.0000
  H   H120      1.0  0.26369  0.52347  0.25388  1.0000
  C   C73       1.0  0.31806  0.54775  0.18642  1.0000
  S   S31       1.0  0.29967  0.47975  0.12788  1.0000
  C   C74       1.0  0.22860  0.41463  0.09556  1.0000
  Fe  Fe16      1.0  0.30747  0.45383  0.17697  1.0000
  H   H121      1.0  0.34303  0.33781  0.28829  1.0000
  H   H122      1.0  0.22495  0.51489  0.31080  1.0000
  H   H123      1.0  0.34149  0.34428  0.52863  1.0000
  H   H124      1.0  0.27343  0.55778  0.13666  1.0000
  H   H125      1.0  0.29606  0.35164  0.52595  1.0000
  C   C75       1.0  0.26442  0.36743  0.34670  1.0000
  C   C76       1.0  0.40317  0.34016  0.19692  1.0000
  H   H126      1.0  0.18146  0.36530  0.29314  1.0000
  H   H127      1.0  0.28761  0.36776  0.36161  1.0000
  S   S32       1.0  0.27316  0.46350  0.22074  1.0000
  C   C77       1.0  0.27031  0.45838  0.10271  1.0000
  H   H128      1.0  0.25092  0.42859  0.14310  1.0000
  H   H129      1.0  0.36004  0.40507  0.08406  1.0000
  H   H130      1.0  0.31473  0.55075  0.11890  1.0000
  H   H131      1.0  0.29492  0.33054  0.24847  1.0000
  H   H132      1.0  0.29267  0.53647  0.19105  1.0000
  H   H133      1.0  0.29049  0.37293  0.29986  1.0000
  H   H134      1.0  0.32741  0.34060  0.10727  1.0000
  H   H135      1.0  0.09374  0.32636  0.47927  1.0000
  C   C78       1.0  0.34197  0.34077  0.08331  1.0000
  H   H136      1.0  0.27680  0.36209  0.07616  1.0000
  C   C79       1.0  0.33294  0.40007  0.07733  1.0000
  C   C80       1.0  0.22572  0.33267  0.80401  1.0000
  H   H137      1.0  0.44941  0.51562  0.73478  1.0000
  C   C81       1.0  0.34834  0.34462  0.67115  1.0000
  C   C82       1.0  0.55357  0.33662  0.70427  1.0000
  C   C83       1.0  0.40770  0.34766  0.65472  1.0000
  H   H138      1.0  0.40958  0.49464  0.72973  1.0000
  H   H139      1.0  0.10627  0.51830  0.94046  1.0000
  H   H140      1.0  0.43029  0.33614  0.64390  1.0000
  C   C84       1.0  0.34955  0.37754  0.68315  1.0000
  C   C85       1.0  0.29394  0.39494  0.77985  1.0000
  H   H141      1.0  0.08970  0.47698  0.94205  1.0000
  H   H142      1.0  0.27328  0.37620  0.77807  1.0000
  C   C86       1.0  0.38032  0.39487  0.68243  1.0000
  H   H143      1.0  0.21083  0.35187  0.79152  1.0000
  H   H144      1.0  0.40994  0.53721  0.74371  1.0000
  N   N10       1.0  0.32507  0.38063  0.79547  1.0000
  C   C87       1.0  0.22743  0.33208  0.83910  1.0000
  H   H145      1.0  0.29901  0.40362  0.75387  1.0000
  H   H146      1.0  0.56373  0.42957  0.73965  1.0000
  C   C88       1.0  0.40936  0.37995  0.66819  1.0000
  C   C89       1.0  0.31340  0.33446  0.58926  1.0000
  H   H147      1.0  0.32720  0.38886  0.69458  1.0000
  C   C90       1.0  0.26877  0.46479  0.06824  1.0000
  H   H148      1.0  0.28868  0.33702  0.04041  1.0000
  H   H149      1.0  0.29365  0.35460  0.58854  1.0000
  C   C91       1.0  0.55663  0.36514  0.68448  1.0000
  H   H150      1.0  0.32495  0.33076  0.67330  1.0000
  Fe  Fe17      1.0  0.48939  0.37475  0.74516  1.0000
  H   H151      1.0  0.09135  0.50171  0.97960  1.0000
  S   S33       1.0  0.43421  0.37160  0.75856  1.0000
  H   H152      1.0  0.43331  0.39312  0.66796  1.0000
  Fe  Fe18      1.0  0.21764  0.39999  0.98043  1.0000
  C   C92       1.0  0.42248  0.51894  0.72639  1.0000
  C   C93       1.0  0.29269  0.36152  0.05303  1.0000
  H   H153      1.0  0.53514  0.38204  0.68159  1.0000
  H   H154      1.0  0.35800  0.41477  0.77011  1.0000
  C   C94       1.0  0.22792  0.42025  0.06091  1.0000
  S   S34       1.0  0.26893  0.38315  0.96179  1.0000
  H   H155      1.0  0.32992  0.39254  0.92616  1.0000
  H   H156      1.0  0.37668  0.35931  0.90060  1.0000
  C   C95       1.0  0.43680  0.56317  0.68829  1.0000
  C   C96       1.0  0.10555  0.32826  0.90118  1.0000
  H   H157      1.0  0.41404  0.44729  0.85283  1.0000
  H   H158      1.0  0.37010  0.55083  0.69682  1.0000
  S   S35       1.0  0.18844  0.37222  0.94084  1.0000
  C   C97       1.0  0.37743  0.32972  0.65689  1.0000
  C   C98       1.0  0.36950  0.45429  0.88379  1.0000
  Fe  Fe19      1.0  0.23965  0.36005  0.91929  1.0000
  H   H159      1.0  0.21350  0.35047  0.85357  1.0000
  S   S36       1.0  0.42821  0.37596  0.85339  1.0000
  H   H160      1.0  0.35983  0.33949  0.78744  1.0000
  H   H161      1.0  0.38193  0.54104  0.65427  1.0000
  C   C99       1.0  0.37479  0.38584  0.89592  1.0000
  C   C100      1.0  0.10514  0.41263  0.92540  1.0000
  H   H162      1.0  0.42707  0.48064  0.67089  1.0000
  C   C101      1.0  0.34887  0.36664  0.02910  1.0000
  C   C102      1.0  0.10878  0.42699  0.89377  1.0000
  H   H163      1.0  0.33890  0.34639  0.59131  1.0000
  H   H164      1.0  0.12700  0.40974  0.94178  1.0000
  S   S37       1.0  0.14903  0.43879  0.87942  1.0000
  C   C103      1.0  0.33665  0.35113  0.77596  1.0000
  N   N11       1.0  0.32915  0.36723  0.06069  1.0000
  H   H165      1.0  0.46443  0.56187  0.69489  1.0000
  H   H166      1.0  0.53280  0.55331  0.74163  1.0000
  H   H167      1.0  0.36759  0.48083  0.87926  1.0000
  C   C104      1.0  0.08626  0.50269  0.95211  1.0000
  S   S38       1.0  0.48386  0.42380  0.71896  1.0000
  H   H168      1.0  0.37628  0.39566  0.80661  1.0000
  S   S39       1.0  0.43927  0.44892  0.78546  1.0000
  Fe  Fe20      1.0  0.42977  0.42265  0.73676  1.0000
  Fe  Fe21      1.0  0.49436  0.44582  0.76989  1.0000
  S   S40       1.0  0.53025  0.48897  0.77291  1.0000
  C   C105      1.0  0.45451  0.55177  0.80090  1.0000
  Fe  Fe22      1.0  0.44897  0.39775  0.80608  1.0000
  H   H169      1.0  0.34315  0.35791  0.74977  1.0000
  N   N12       1.0  0.42063  0.53016  0.69118  1.0000
  H   H170      1.0  0.11520  0.36851  0.84868  1.0000
  H   H171      1.0  0.32399  0.42068  0.06077  1.0000
  C   C106      1.0  0.50567  0.52524  0.77873  1.0000
  H   H172      1.0  0.37654  0.37089  0.03384  1.0000
  C   C107      1.0  0.47786  0.52506  0.80061  1.0000
  C   C108      1.0  0.13706  0.35174  0.85522  1.0000
  Fe  Fe23      1.0  0.19219  0.41964  0.91164  1.0000
  H   H173      1.0  0.31647  0.33179  0.77470  1.0000
  H   H174      1.0  0.29665  0.35206  0.83100  1.0000
  H   H175      1.0  0.46607  0.50292  0.67715  1.0000
  S   S41       1.0  0.50493  0.39676  0.79467  1.0000
  H   H176      1.0  0.43824  0.51359  0.64271  1.0000
  H   H177      1.0  0.12122  0.34198  0.91999  1.0000
  H   H178      1.0  0.34479  0.42808  0.81137  1.0000
  C   C109      1.0  0.51130  0.55312  0.75863  1.0000
  C   C110      1.0  0.43879  0.50578  0.66946  1.0000
  S   S42       1.0  0.38423  0.43260  0.70422  1.0000
  H   H179      1.0  0.57111  0.43108  0.80215  1.0000
  H   H180      1.0  0.34031  0.35863  0.84232  1.0000
  C   C111      1.0  0.35219  0.40594  0.79586  1.0000
  H   H181      1.0  0.47395  0.50397  0.81688  1.0000
  S   S43       1.0  0.51568  0.32852  0.72590  1.0000
  H   H182      1.0  0.15184  0.34690  0.83185  1.0000
  C   C112      1.0  0.31759  0.37048  0.83025  1.0000
  C   C113      1.0  0.34540  0.43884  0.90419  1.0000
  S   S44       1.0  0.31143  0.46220  0.92120  1.0000
  S   S45       1.0  0.20435  0.39376  0.03470  1.0000
  S   S46       1.0  0.24146  0.40528  0.88674  1.0000
  C   C114      1.0  0.24795  0.44541  0.04728  1.0000
  C   C115      1.0  0.39805  0.40097  0.87445  1.0000
  H   H183      1.0  0.15383  0.36595  0.87267  1.0000
  S   S47       1.0  0.21711  0.44878  0.95305  1.0000
  H   H184      1.0  0.24775  0.44972  0.02053  1.0000
  Fe  Fe24      1.0  0.26636  0.42971  0.93094  1.0000
  C   C116      1.0  0.34817  0.40461  0.91029  1.0000
  H   H185      1.0  0.43233  0.55091  0.81702  1.0000
  C   C117      1.0  0.39564  0.43530  0.86866  1.0000
  H   H186      1.0  0.57604  0.37779  0.76988  1.0000
  H   H187      1.0  0.30981  0.39220  0.84617  1.0000
  H   H188      1.0  0.28221  0.38105  0.03602  1.0000
  C   C118      1.0  0.38442  0.53266  0.68074  1.0000
  H   H189      1.0  0.28389  0.41655  0.79467  1.0000
  H   H190      1.0  0.34645  0.34227  0.01577  1.0000
  H   H191      1.0  0.37153  0.50809  0.68280  1.0000
  H   H192      1.0  0.33971  0.38638  0.01150  1.0000
  H   H193      1.0  0.28456  0.48394  0.05753  1.0000
  H   H194      1.0  0.10354  0.67684  0.28414  1.0000
  S   S48       1.0  0.26147  0.73798  0.24493  1.0000
  H   H195      1.0  0.30648  0.63215  0.29511  1.0000
  Fe  Fe25      1.0  0.27330  0.69004  0.27133  1.0000
  H   H196      1.0  0.11114  0.70105  0.24723  1.0000
  S   S49       1.0  0.24491  0.64379  0.25607  1.0000
  H   H197      1.0  0.14998  0.75062  0.31651  1.0000
  H   H198      1.0  0.39795  0.71953  0.31389  1.0000
  Fe  Fe26      1.0  0.56786  0.76211  0.46785  1.0000
  H   H199      1.0  0.14653  0.67608  0.33029  1.0000
  C   C119      1.0  0.43385  0.81932  0.20552  1.0000
  H   H200      1.0  0.54537  0.75182  0.30263  1.0000
  H   H201      1.0  0.17971  0.66398  0.30118  1.0000
  H   H202      1.0  0.53095  0.79367  0.29551  1.0000
  Fe  Fe27      1.0  0.51637  0.78263  0.41452  1.0000
  Fe  Fe28      1.0  0.25737  0.76030  0.29645  1.0000
  Fe  Fe29      1.0  0.32019  0.72304  0.32144  1.0000
  C   C120      1.0  0.48525  0.78600  0.12536  1.0000
  Fe  Fe30      1.0  0.31752  0.74765  0.25029  1.0000
  H   H203      1.0  0.47294  0.78621  0.15054  1.0000
  H   H204      1.0  0.19461  0.73349  0.27594  1.0000
  H   H205      1.0  0.37922  0.79959  0.33289  1.0000
  H   H206      1.0  0.56275  0.81053  0.34683  1.0000
  H   H207      1.0  0.47021  0.76911  0.10884  1.0000
  H   H208      1.0  0.36206  0.59845  0.18394  1.0000
  C   C121      1.0  0.29362  0.60324  0.18322  1.0000
  H   H209      1.0  0.13630  0.66404  0.25498  1.0000
  H   H210      1.0  0.55271  0.77120  0.26272  1.0000
  H   H211      1.0  0.33955  0.58032  0.30644  1.0000
  S   S50       1.0  0.33022  0.69742  0.27199  1.0000
  C   C122      1.0  0.55222  0.77566  0.29031  1.0000
  C   C123      1.0  0.13174  0.73531  0.30156  1.0000
  S   S51       1.0  0.26446  0.71144  0.32254  1.0000
  H   H212      1.0  0.30500  0.61034  0.20790  1.0000
  H   H213      1.0  0.39859  0.73558  0.23839  1.0000
  H   H214      1.0  0.44186  0.65393  0.42644  1.0000
  N   N13       1.0  0.42114  0.68093  0.46878  1.0000
  H   H215      1.0  0.40501  0.62995  0.47097  1.0000
  H   H216      1.0  0.39022  0.75386  0.41592  1.0000
  H   H217      1.0  0.40149  0.71785  0.50343  1.0000
  H   H218      1.0  0.38691  0.65689  0.50271  1.0000
  C   C124      1.0  0.43082  0.67881  0.43296  1.0000
  H   H219      1.0  0.44510  0.67566  0.51725  1.0000
  H   H220      1.0  0.42523  0.73438  0.46916  1.0000
  H   H221      1.0  0.40833  0.68311  0.41621  1.0000
  H   H222      1.0  0.46359  0.65010  0.48466  1.0000
  S   S52       1.0  0.35012  0.71720  0.36913  1.0000
  H   H223      1.0  0.38276  0.71918  0.46218  1.0000
  C   C125      1.0  0.45160  0.67485  0.49004  1.0000
  C   C126      1.0  0.40698  0.71450  0.47619  1.0000
  C   C127      1.0  0.39507  0.65562  0.47597  1.0000
  H   H224      1.0  0.47135  0.69411  0.48590  1.0000
  H   H225      1.0  0.45025  0.69783  0.42656  1.0000
  H   H226      1.0  0.37188  0.65938  0.46003  1.0000
  C   C128      1.0  0.40916  0.73163  0.33560  1.0000
  C   C129      1.0  0.39065  0.73451  0.36548  1.0000
  C   C130      1.0  0.40508  0.75036  0.39337  1.0000
  H   H227      1.0  0.44966  0.77368  0.41396  1.0000
  H   H228      1.0  0.23075  0.57511  0.24248  1.0000
  N   N14       1.0  0.14913  0.70622  0.28593  1.0000
  C   C131      1.0  0.12391  0.68607  0.26726  1.0000
  C   C132      1.0  0.17552  0.71790  0.26254  1.0000
  S   S53       1.0  0.49959  0.80509  0.22464  1.0000
  C   C133      1.0  0.25444  0.57627  0.25654  1.0000
  H   H229      1.0  0.16420  0.73331  0.24209  1.0000
  C   C134      1.0  0.44342  0.76582  0.23195  1.0000
  C   C135      1.0  0.38648  0.78166  0.21326  1.0000
  C   C136      1.0  0.45605  0.79620  0.22042  1.0000
  C   C137      1.0  0.45755  0.75821  0.36266  1.0000
  H   H230      1.0  0.51123  0.77489  0.12856  1.0000
  C   C138      1.0  0.18727  0.80008  0.25293  1.0000
  H   H231      1.0  0.26750  0.59378  0.18814  1.0000
  C   C139      1.0  0.15936  0.80547  0.23131  1.0000
  H   H232      1.0  0.21105  0.79043  0.24303  1.0000
  C   C140      1.0  0.16561  0.68571  0.31227  1.0000
  S   S54       1.0  0.34316  0.77302  0.20738  1.0000
  H   H233      1.0  0.46053  0.74791  0.24363  1.0000
  H   H234      1.0  0.16163  0.79957  0.20484  1.0000
  S   S55       1.0  0.21596  0.79448  0.31594  1.0000
  C   C141      1.0  0.45974  0.74330  0.54965  1.0000
  S   S56       1.0  0.54869  0.79989  0.50518  1.0000
  C   C142      1.0  0.12825  0.81745  0.24406  1.0000
  H   H235      1.0  0.29073  0.62652  0.16836  1.0000
  S   S57       1.0  0.56992  0.79794  0.42532  1.0000
  H   H236      1.0  0.51984  0.68491  0.57065  1.0000
  C   C143      1.0  0.18399  0.80650  0.28733  1.0000
  C   C144      1.0  0.39930  0.81172  0.20122  1.0000
  C   C145      1.0  0.31576  0.57910  0.29253  1.0000
  H   H237      1.0  0.18457  0.70051  0.32687  1.0000
  C   C146      1.0  0.40843  0.75888  0.22913  1.0000
  H   H238      1.0  0.51018  0.73166  0.53109  1.0000
  S   S58       1.0  0.49965  0.77213  0.36162  1.0000
  C   C147      1.0  0.29711  0.60847  0.28604  1.0000
  S   S59       1.0  0.31252  0.77400  0.29986  1.0000
  C   C148      1.0  0.43858  0.76191  0.39210  1.0000
  C   C149      1.0  0.44276  0.74340  0.33425  1.0000
  H   H239      1.0  0.45742  0.74059  0.31140  1.0000
  S   S60       1.0  0.51609  0.74295  0.45388  1.0000
  C   C150      1.0  0.26670  0.60713  0.26758  1.0000
  Fe  Fe31      1.0  0.49676  0.78413  0.48749  1.0000
  C   C151      1.0  0.49050  0.72524  0.54882  1.0000
  S   S61       1.0  0.45233  0.77632  0.52193  1.0000
  C   C152      1.0  0.43454  0.73505  0.57291  1.0000
  H   H240      1.0  0.18967  0.69669  0.25062  1.0000
  H   H241      1.0  0.42729  0.79744  0.29294  1.0000
  H   H242      1.0  0.29537  0.59160  0.11690  1.0000
  H   H243      1.0  0.34796  0.61464  0.14418  1.0000
  H   H244      1.0  0.52952  0.80811  0.07928  1.0000
  H   H245      1.0  0.11097  0.72757  0.31873  1.0000
  H   H246      1.0  0.57828  0.76875  0.35237  1.0000
  H   H247      1.0  0.41065  0.74889  0.57350  1.0000
  N   N15       1.0  0.31494  0.57803  0.16563  1.0000
  C   C153      1.0  0.15357  0.82042  0.29968  1.0000
  C   C154      1.0  0.58360  0.79277  0.33962  1.0000
  C   C155      1.0  0.34929  0.59173  0.15980  1.0000
  H   H248      1.0  0.12010  0.75199  0.28226  1.0000
  C   C156      1.0  0.49597  0.69880  0.57118  1.0000
  H   H249      1.0  0.37118  0.81881  0.27414  1.0000
  N   N16       1.0  0.58525  0.78838  0.30281  1.0000
  S   S62       1.0  0.09227  0.81978  0.21771  1.0000
  H   H250      1.0  0.43579  0.81834  0.09113  1.0000
  H   H251      1.0  0.45302  0.82124  0.32158  1.0000
  N   N17       1.0  0.48685  0.81999  0.11135  1.0000
  C   C157      1.0  0.50315  0.81869  0.07793  1.0000
  S   S63       1.0  0.49263  0.82248  0.44678  1.0000
  H   H252      1.0  0.36609  0.57328  0.14663  1.0000
  H   H253      1.0  0.42118  0.70342  0.61430  1.0000
  H   H254      1.0  0.54887  0.77837  0.81454  1.0000
  Fe  Fe32      1.0  0.43532  0.65171  0.74139  1.0000
  S   S64       1.0  0.42663  0.60924  0.77676  1.0000
  H   H255      1.0  0.42465  0.58183  0.70549  1.0000
  H   H256      1.0  0.30904  0.80070  0.70241  1.0000
  S   S65       1.0  0.40701  0.65755  0.69261  1.0000
  H   H257      1.0  0.51204  0.61963  0.85854  1.0000
  C   C158      1.0  0.44047  0.70937  0.59597  1.0000
  H   H258      1.0  0.48818  0.80338  0.05982  1.0000
  H   H259      1.0  0.11279  0.77130  0.83814  1.0000
  H   H260      1.0  0.53553  0.79023  0.87435  1.0000
  H   H261      1.0  0.49150  0.60046  0.74213  1.0000
  C   C159      1.0  0.47117  0.69119  0.59507  1.0000
  H   H262      1.0  0.52902  0.67775  0.87243  1.0000
  S   S66       1.0  0.42197  0.70288  0.76001  1.0000
  S   S67       1.0  0.48633  0.66641  0.72134  1.0000
  Fe  Fe33      1.0  0.45723  0.67590  0.67372  1.0000
  S   S68       1.0  0.47882  0.65952  0.62427  1.0000
  Fe  Fe34      1.0  0.39900  0.71070  0.70919  1.0000
  H   H263      1.0  0.49496  0.69232  0.80342  1.0000
  H   H264      1.0  0.48348  0.64992  0.79509  1.0000
  C   C160      1.0  0.45637  0.76853  0.84709  1.0000
  Fe  Fe35      1.0  0.47063  0.71848  0.73573  1.0000
  C   C161      1.0  0.49703  0.66640  0.81315  1.0000
  H   H265      1.0  0.52453  0.65911  0.81269  1.0000
  H   H266      1.0  0.44878  0.80214  0.59042  1.0000
  N   N18       1.0  0.14093  0.81127  0.81604  1.0000
  C   C162      1.0  0.48511  0.62886  0.85867  1.0000
  H   H267      1.0  0.44317  0.70033  0.83756  1.0000
  H   H268      1.0  0.47502  0.62611  0.88458  1.0000
  C   C163      1.0  0.50174  0.68561  0.87048  1.0000
  C   C164      1.0  0.44621  0.67432  0.84658  1.0000
  H   H269      1.0  0.43451  0.67311  0.87194  1.0000
  C   C165      1.0  0.40550  0.81164  0.64240  1.0000
  H   H270      1.0  0.46363  0.77963  0.62663  1.0000
  N   N19       1.0  0.48253  0.66380  0.84724  1.0000
  H   H271      1.0  0.50135  0.71188  0.86173  1.0000
  C   C166      1.0  0.48785  0.57985  0.75888  1.0000
  H   H272      1.0  0.15041  0.75833  0.81571  1.0000
  C   C167      1.0  0.52295  0.77599  0.82350  1.0000
  C   C168      1.0  0.35895  0.78207  0.71627  1.0000
  C   C169      1.0  0.39127  0.79045  0.72856  1.0000
  C   C170      1.0  0.48219  0.77850  0.86920  1.0000
  H   H273      1.0  0.41031  0.77131  0.73291  1.0000
  S   S69       1.0  0.47224  0.78564  0.91144  1.0000
  H   H274      1.0  0.15428  0.77802  0.85627  1.0000
  S   S70       1.0  0.44691  0.72966  0.68578  1.0000
  H   H275      1.0  0.43054  0.76573  0.85612  1.0000
  H   H276      1.0  0.39203  0.80752  0.61807  1.0000
  C   C171      1.0  0.46377  0.76260  0.81318  1.0000
  C   C172      1.0  0.12124  0.81033  0.78430  1.0000
  C   C173      1.0  0.51540  0.78279  0.85731  1.0000
  S   S71       1.0  0.50765  0.75370  0.76023  1.0000
  H   H277      1.0  0.49066  0.68559  0.89619  1.0000
  S   S72       1.0  0.35068  0.74077  0.70419  1.0000
  H   H278      1.0  0.13229  0.79198  0.76619  1.0000
  H   H279      1.0  0.44347  0.75632  0.79607  1.0000
  C   C174      1.0  0.45891  0.57871  0.77929  1.0000
  H   H280      1.0  0.47013  0.61196  0.84205  1.0000
  C   C175      1.0  0.49724  0.76527  0.80153  1.0000
  H   H281      1.0  0.43090  0.65822  0.82946  1.0000
  C   C176      1.0  0.13963  0.77825  0.83226  1.0000
  H   H282      1.0  0.40775  0.78696  0.65492  1.0000
  H   H283      1.0  0.48647  0.81528  0.61200  1.0000
  C   C177      1.0  0.46048  0.80502  0.61576  1.0000
  H   H284      1.0  0.45859  0.80739  0.68413  1.0000
  H   H285      1.0  0.09426  0.80324  0.78878  1.0000
  H   H286      1.0  0.18934  0.80063  0.79253  1.0000
  C   C178      1.0  0.33415  0.80713  0.71171  1.0000
  C   C179      1.0  0.17682  0.81976  0.80885  1.0000
  H   H287      1.0  0.19225  0.82212  0.83228  1.0000
  H   H288      1.0  0.43481  0.57314  0.66232  1.0000
  Fe  Fe36      1.0  0.53421  0.92399  0.20140  1.0000
  S   S73       1.0  0.48210  0.90200  0.20621  1.0000
  S   S74       1.0  0.55338  0.94811  0.15469  1.0000
  Fe  Fe37      1.0  0.55573  0.90515  0.27199  1.0000
  S   S75       1.0  0.50533  0.88195  0.28348  1.0000
  Fe  Fe38      1.0  0.50935  0.85977  0.23186  1.0000
  Fe  Fe39      1.0  0.48272  0.92624  0.25709  1.0000
  S   S76       1.0  0.43827  0.95504  0.27811  1.0000
  S   S77       1.0  0.56164  0.87939  0.22226  1.0000
  S   S78       1.0  0.53280  0.95176  0.25024  1.0000
  H   H289      1.0  0.48027  0.94437  0.14540  1.0000
  H   H290      1.0  0.43132  0.95471  0.20603  1.0000
  H   H291      1.0  0.57175  0.92647  0.08844  1.0000
  H   H292      1.0  0.49563  0.84292  0.15952  1.0000
  N   N20       1.0  0.40323  0.84227  0.31126  1.0000
  C   C180      1.0  0.41820  0.00506  0.19237  1.0000
  C   C181      1.0  0.56307  0.88375  0.35913  1.0000
  H   H293      1.0  0.44542  0.92482  0.09727  1.0000
  S   S79       1.0  0.57077  0.88440  0.46028  1.0000
  H   H294      1.0  0.57182  0.83947  0.29295  1.0000
  C   C182      1.0  0.41141  0.04421  0.23843  1.0000
  C   C183      1.0  0.41822  0.01848  0.26134  1.0000
  C   C184      1.0  0.42628  0.98633  0.24968  1.0000
  C   C185      1.0  0.42596  0.97961  0.21518  1.0000
  H   H295      1.0  0.44331  0.84279  0.19661  1.0000
  H   H296      1.0  0.53372  0.83175  0.13712  1.0000
  H   H297      1.0  0.41818  0.02371  0.28804  1.0000
  C   C186      1.0  0.49271  0.93616  0.12259  1.0000
  C   C187      1.0  0.47298  0.92516  0.09532  1.0000
  H   H298      1.0  0.41809  0.99972  0.16569  1.0000
  H   H299      1.0  0.43881  0.83562  0.13282  1.0000
  H   H300      1.0  0.35513  0.85800  0.28984  1.0000
  C   C188      1.0  0.41321  0.87632  0.32141  1.0000
  H   H301      1.0  0.45201  0.85937  0.09727  1.0000
  C   C189      1.0  0.54417  0.92633  0.09032  1.0000
  H   H302      1.0  0.51116  0.01316  0.13779  1.0000
  N   N21       1.0  0.51892  0.04424  0.18142  1.0000
  C   C190      1.0  0.55368  0.03052  0.18691  1.0000
  C   C191      1.0  0.49853  0.02006  0.16190  1.0000
  H   H303      1.0  0.54637  0.87298  0.34057  1.0000
  H   H304      1.0  0.56659  0.02465  0.16268  1.0000
  C   C192      1.0  0.52835  0.93659  0.12012  1.0000
  H   H305      1.0  0.50884  0.86723  0.12435  1.0000
  C   C193      1.0  0.41198  0.03761  0.20388  1.0000
  H   H306      1.0  0.10039  0.98405  0.33034  1.0000
  H   H307      1.0  0.40582  0.06913  0.24751  1.0000
  H   H308      1.0  0.53452  0.86455  0.40064  1.0000
  C   C194      1.0  0.50713  0.84140  0.13408  1.0000
  H   H309      1.0  0.44672  0.83514  0.27922  1.0000
  H   H310      1.0  0.55294  0.00680  0.20126  1.0000
  H   H311      1.0  0.43170  0.87596  0.34274  1.0000
  H   H312      1.0  0.36375  0.83901  0.34847  1.0000
  H   H313      1.0  0.42566  0.88957  0.30035  1.0000
  H   H314      1.0  0.47659  0.06170  0.21082  1.0000
  H   H315      1.0  0.39019  0.85703  0.26092  1.0000
  H   H316      1.0  0.56995  0.04827  0.20120  1.0000
  C   C195      1.0  0.55647  0.87881  0.39327  1.0000
  H   H317      1.0  0.49491  0.99655  0.17612  1.0000
  C   C196      1.0  0.57792  0.89264  0.41774  1.0000
  C   C197      1.0  0.38705  0.82535  0.33985  1.0000
  C   C198      1.0  0.50246  0.05057  0.21421  1.0000
  H   H318      1.0  0.47278  0.03039  0.15569  1.0000
  C   C199      1.0  0.37886  0.84412  0.28283  1.0000
  C   C200      1.0  0.45184  0.83388  0.10808  1.0000
  H   H319      1.0  0.49936  0.02710  0.22867  1.0000
  H   H320      1.0  0.39071  0.89174  0.32909  1.0000
  C   C201      1.0  0.12577  0.82593  0.27807  1.0000
  C   C202      1.0  0.43394  0.82320  0.30083  1.0000
  H   H321      1.0  0.38229  0.82937  0.18899  1.0000
  H   H322      1.0  0.40490  0.82323  0.36160  1.0000
  Fe  Fe40      1.0  0.54648  0.83437  0.46125  1.0000
  H   H323      1.0  0.10247  0.83669  0.28777  1.0000
  S   S80       1.0  0.40865  0.07008  0.17468  1.0000
  H   H324      1.0  0.51746  0.06828  0.22988  1.0000
  H   H325      1.0  0.15116  0.82602  0.32619  1.0000
  H   H326      1.0  0.53308  0.07200  0.13776  1.0000
  Fe  Fe41      1.0  0.30907  0.98972  0.74675  1.0000
  S   S81       1.0  0.28819  0.98644  0.79878  1.0000
  S   S82       1.0  0.29275  0.03350  0.71541  1.0000
  Fe  Fe42      1.0  0.34830  0.92499  0.75268  1.0000
  S   S83       1.0  0.33058  0.91587  0.80522  1.0000
  S   S84       1.0  0.38806  0.89069  0.73035  1.0000
  Fe  Fe43      1.0  0.27934  0.93275  0.78618  1.0000
  S   S85       1.0  0.23177  0.91010  0.80714  1.0000
  H   H327      1.0  0.44089  0.87714  0.78419  1.0000
  S   S86       1.0  0.29593  0.93700  0.73245  1.0000
  S   S87       1.0  0.36298  0.97824  0.76235  1.0000
  H   H328      1.0  0.41877  0.98396  0.81436  1.0000
  S   S88       1.0  0.10345  0.88446  0.71526  1.0000
  H   H329      1.0  0.40543  0.87090  0.88530  1.0000
  H   H330      1.0  0.17852  0.84397  0.79554  1.0000
  H   H331      1.0  0.50512  0.84403  0.06692  1.0000
  H   H332      1.0  0.10993  0.91070  0.78272  1.0000
  C   C203      1.0  0.37525  0.84904  0.72836  1.0000
  C   C204      1.0  0.34223  0.84067  0.71803  1.0000
  H   H333      1.0  0.38058  0.84725  0.81585  1.0000
  H   H334      1.0  0.32339  0.86010  0.71344  1.0000
  C   C205      1.0  0.19673  0.90854  0.77967  1.0000
  C   C206      1.0  0.20087  0.89966  0.74588  1.0000
  C   C207      1.0  0.17204  0.89348  0.72570  1.0000
  C   C208      1.0  0.13914  0.89644  0.73924  1.0000
  C   C209      1.0  0.13513  0.90698  0.77251  1.0000
  C   C210      1.0  0.16384  0.91264  0.79278  1.0000
  H   H335      1.0  0.22625  0.89616  0.73571  1.0000
  H   H336      1.0  0.17530  0.88547  0.69991  1.0000
  H   H337      1.0  0.35908  0.05279  0.74158  1.0000
  N   N22       1.0  0.42660  0.86881  0.83551  1.0000
  C   C211      1.0  0.40711  0.97929  0.86691  1.0000
  H   H338      1.0  0.42468  0.90853  0.87162  1.0000
  C   C212      1.0  0.43031  0.89086  0.80625  1.0000
  H   H339      1.0  0.16059  0.91986  0.81882  1.0000
  C   C213      1.0  0.52447  0.91452  0.06337  1.0000
  H   H340      1.0  0.40377  0.97344  0.92056  1.0000
  C   C214      1.0  0.40608  0.83953  0.82585  1.0000
  H   H341      1.0  0.12084  0.83508  0.77178  1.0000
  H   H342      1.0  0.47730  0.87947  0.85341  1.0000
  C   C215      1.0  0.40930  0.88708  0.86306  1.0000
  C   C216      1.0  0.30700  0.05421  0.87096  1.0000
  H   H343      1.0  0.31059  0.05060  0.64578  1.0000
  H   H344      1.0  0.28325  0.06290  0.88369  1.0000
  Fe  Fe44      1.0  0.34097  0.97005  0.81336  1.0000
  H   H345      1.0  0.44776  0.91179  0.81178  1.0000
  C   C217      1.0  0.43472  0.85976  0.62127  1.0000
  H   H346      1.0  0.47964  0.96727  0.82125  1.0000
  H   H347      1.0  0.40537  0.90198  0.79859  1.0000
  C   C218      1.0  0.42030  0.97225  0.89886  1.0000
  H   H348      1.0  0.34692  0.04390  0.81624  1.0000
  H   H349      1.0  0.09877  0.83094  0.84469  1.0000
  C   C219      1.0  0.12585  0.83671  0.83877  1.0000
  C   C220      1.0  0.35168  0.06677  0.83152  1.0000
  H   H350      1.0  0.14012  0.83826  0.86294  1.0000
  H   H351      1.0  0.30113  0.03036  0.85779  1.0000
  H   H352      1.0  0.41896  0.82442  0.80598  1.0000
  C   C221      1.0  0.42867  0.97803  0.83900  1.0000
  Fe  Fe45      1.0  0.49920  0.83033  0.93266  1.0000
  H   H353      1.0  0.38872  0.82766  0.65843  1.0000
  C   C222      1.0  0.46314  0.96877  0.84295  1.0000
  S   S89       1.0  0.52039  0.83183  0.98501  1.0000
  Fe  Fe46      1.0  0.51687  0.90238  0.91863  1.0000
  S   S90       1.0  0.46956  0.87822  0.93781  1.0000
  Fe  Fe47      1.0  0.56351  0.85975  0.96186  1.0000
  Fe  Fe48      1.0  0.49487  0.88203  0.98828  1.0000
  S   S91       1.0  0.46407  0.89631  0.03366  1.0000
  H   H354      1.0  0.45902  0.84250  0.86999  1.0000
  S   S92       1.0  0.53986  0.91049  0.96953  1.0000
  S   S93       1.0  0.54455  0.85409  0.90894  1.0000
  H   H355      1.0  0.12618  0.86191  0.82731  1.0000
  H   H356      1.0  0.46402  0.95475  0.92713  1.0000
  C   C223      1.0  0.45439  0.96164  0.90259  1.0000
  S   S94       1.0  0.36337  0.98804  0.86220  1.0000
  H   H357      1.0  0.58545  0.97731  0.85595  1.0000
  C   C224      1.0  0.46083  0.85783  0.84699  1.0000
  S   S95       1.0  0.51634  0.94085  0.87782  1.0000
  H   H358      1.0  0.58330  0.98685  0.89979  1.0000
  H   H359      1.0  0.53698  0.90529  0.04102  1.0000
  H   H360      1.0  0.42494  0.83015  0.74267  1.0000
  H   H361      1.0  0.38389  0.89703  0.85519  1.0000
  C   C225      1.0  0.48886  0.91387  0.06585  1.0000
  C   C226      1.0  0.47561  0.95921  0.87449  1.0000
  H   H362      1.0  0.44214  0.84945  0.68644  1.0000
  C   C227      1.0  0.45646  0.83139  0.67028  1.0000
  H   H363      1.0  0.48274  0.84120  0.66735  1.0000
  H   H364      1.0  0.28881  0.04142  0.60722  1.0000
  H   H365      1.0  0.32627  0.04808  0.89073  1.0000
  H   H366      1.0  0.41871  0.87687  0.63701  1.0000
  N   N23       1.0  0.43930  0.82692  0.63745  1.0000
  H   H367      1.0  0.47427  0.84272  0.82744  1.0000
  C   C228      1.0  0.30868  0.07165  0.72990  1.0000
  H   H368      1.0  0.28880  0.06327  0.80576  1.0000
  H   H369      1.0  0.58484  0.92686  0.91246  1.0000
  H   H370      1.0  0.45971  0.87206  0.61719  1.0000
  H   H371      1.0  0.42195  0.85729  0.59634  1.0000
  H   H372      1.0  0.37138  0.06005  0.85067  1.0000
  C   C229      1.0  0.30448  0.06053  0.62032  1.0000
  H   H373      1.0  0.32901  0.06282  0.60656  1.0000
  H   H374      1.0  0.23618  0.07167  0.62701  1.0000
  C   C230      1.0  0.39948  0.82386  0.73432  1.0000
  H   H375      1.0  0.40192  0.82287  0.84767  1.0000
  H   H376      1.0  0.58947  0.21564  0.13809  1.0000
  Fe  Fe49      1.0  0.73366  0.29147  0.22492  1.0000
  S   S96       1.0  0.69998  0.24900  0.23911  1.0000
  H   H377      1.0  0.81208  0.24539  0.08745  1.0000
  Fe  Fe50      1.0  0.72874  0.25087  0.28803  1.0000
  H   H378      1.0  0.78122  0.28041  0.36468  1.0000
  S   S97       1.0  0.74564  0.20701  0.31850  1.0000
  N   N24       1.0  0.84711  0.28607  0.09326  1.0000
  H   H379      1.0  0.89516  0.12149  0.50137  1.0000
  Fe  Fe51      1.0  0.66709  0.28871  0.26303  1.0000
  S   S98       1.0  0.61014  0.29262  0.25700  1.0000
  S   S99       1.0  0.76580  0.28965  0.27160  1.0000
  C   C231      1.0  0.59033  0.25490  0.24738  1.0000
  H   H380      1.0  0.80759  0.31510  0.11749  1.0000
  C   C232      1.0  0.80646  0.28904  0.37423  1.0000
  C   C233      1.0  0.60805  0.22457  0.25025  1.0000
  C   C234      1.0  0.64590  0.24283  0.11193  1.0000
  C   C235      1.0  0.59232  0.19475  0.24048  1.0000
  H   H381      1.0  0.63380  0.22403  0.26015  1.0000
  C   C236      1.0  0.79713  0.19761  0.27263  1.0000
  Fe  Fe52      1.0  0.96122  0.10090  0.36782  1.0000
  C   C237      1.0  0.74701  0.21105  0.12726  1.0000
  C   C238      1.0  0.74990  0.23574  0.15235  1.0000
  C   C239      1.0  0.74712  0.26945  0.14379  1.0000
  C   C240      1.0  0.74020  0.27838  0.11059  1.0000
  H   H382      1.0  0.04226  0.29407  0.52594  1.0000
  H   H383      1.0  0.75016  0.18499  0.13367  1.0000
  H   H384      1.0  0.75540  0.22873  0.17804  1.0000
  H   H385      1.0  0.63829  0.21966  0.09841  1.0000
  C   C241      1.0  0.73660  0.25375  0.08582  1.0000
  H   H386      1.0  0.63999  0.27326  0.19166  1.0000
  S   S100      1.0  0.69280  0.28690  0.31325  1.0000
  C   C242      1.0  0.08419  0.19633  0.42829  1.0000
  H   H387      1.0  0.85576  0.23820  0.32523  1.0000
  H   H388      1.0  0.78273  0.21379  0.25603  1.0000
  C   C243      1.0  0.64721  0.27301  0.16464  1.0000
  N   N25       1.0  0.86897  0.08317  0.47384  1.0000
  H   H389      1.0  0.83950  0.19138  0.23847  1.0000
  H   H390      1.0  0.00458  0.30868  0.50446  1.0000
  C   C244      1.0  0.82917  0.18494  0.26271  1.0000
  H   H391      1.0  0.67544  0.27599  0.16345  1.0000
  N   N26       1.0  0.63618  0.24196  0.14771  1.0000
  H   H392      1.0  0.04414  0.25531  0.44016  1.0000
  H   H393      1.0  0.80366  0.29427  0.40160  1.0000
  H   H394      1.0  0.60608  0.17128  0.24273  1.0000
  H   H395      1.0  0.84394  0.28109  0.31768  1.0000
  C   C245      1.0  0.65290  0.21298  0.16397  1.0000
  H   H396      1.0  0.90941  0.07968  0.51035  1.0000
  S   S101      1.0  0.88926  0.15063  0.27333  1.0000
  H   H397      1.0  0.87412  0.29983  0.36857  1.0000
  H   H398      1.0  0.59060  0.23830  0.17688  1.0000
  C   C246      1.0  0.84822  0.16465  0.28452  1.0000
  H   H399      1.0  0.84638  0.13112  0.46315  1.0000
  H   H400      1.0  0.63389  0.26443  0.09881  1.0000
  N   N27       1.0  0.04758  0.29837  0.47245  1.0000
  H   H401      1.0  0.81172  0.24995  0.32031  1.0000
  C   C247      1.0  0.03452  0.31976  0.44504  1.0000
  H   H402      1.0  0.88748  0.25760  0.37701  1.0000
  C   C248      1.0  0.78394  0.18933  0.30407  1.0000
  H   H403      1.0  0.79996  0.22277  0.37542  1.0000
  C   C249      1.0  0.88647  0.09528  0.50446  1.0000
  S   S102      1.0  0.02882  0.20539  0.34265  1.0000
  Fe  Fe53      1.0  0.92142  0.16088  0.39404  1.0000
  S   S103      1.0  0.93229  0.19151  0.34874  1.0000
  S   S104      1.0  0.88869  0.18141  0.43566  1.0000
  C   C250      1.0  0.59871  0.23896  0.15027  1.0000
  Fe  Fe54      1.0  0.98547  0.17072  0.35324  1.0000
  S   S105      1.0  0.90592  0.11569  0.36478  1.0000
  S   S106      1.0  0.97557  0.14380  0.40141  1.0000
  C   C251      1.0  0.83476  0.15636  0.31578  1.0000
  C   C252      1.0  0.08042  0.23889  0.37311  1.0000
  C   C253      1.0  0.83888  0.10468  0.46678  1.0000
  H   H404      1.0  0.90250  0.11007  0.44141  1.0000
  H   H405      1.0  0.88002  0.07653  0.42155  1.0000
  C   C254      1.0  0.74106  0.22011  0.09378  1.0000
  H   H406      1.0  0.64614  0.21159  0.19102  1.0000
  C   C255      1.0  0.90298  0.22153  0.44583  1.0000
  C   C256      1.0  0.88382  0.24236  0.46714  1.0000
  C   C257      1.0  0.89507  0.27479  0.47450  1.0000
  C   C258      1.0  0.92560  0.28621  0.46073  1.0000
  C   C259      1.0  0.94442  0.26543  0.43915  1.0000
  C   C260      1.0  0.93328  0.23313  0.43189  1.0000
  H   H407      1.0  0.86031  0.23352  0.47793  1.0000
  H   H408      1.0  0.88040  0.29071  0.49119  1.0000
  H   H409      1.0  0.96746  0.27436  0.42761  1.0000
  H   H410      1.0  0.94832  0.21722  0.41555  1.0000
  C   C261      1.0  0.05766  0.21238  0.37558  1.0000
  H   H411      1.0  0.68122  0.21449  0.16251  1.0000
  H   H412      1.0  0.82543  0.09661  0.44344  1.0000
  H   H413      1.0  0.63527  0.29548  0.15303  1.0000
  H   H414      1.0  0.86928  0.09477  0.52664  1.0000
  H   H415      1.0  0.82349  0.23561  0.41216  1.0000
  C   C262      1.0  0.86655  0.27626  0.38094  1.0000
  C   C263      1.0  0.80255  0.16833  0.32538  1.0000
  H   H416      1.0  0.82015  0.10419  0.48769  1.0000
  H   H417      1.0  0.04250  0.17023  0.40495  1.0000
  C   C264      1.0  0.03753  0.26343  0.46609  1.0000
  H   H418      1.0  0.82034  0.27823  0.13959  1.0000
  Fe  Fe55      1.0  0.92137  0.14496  0.31971  1.0000
  H   H419      1.0  0.84758  0.31391  0.13972  1.0000
  H   H420      1.0  0.84460  0.21259  0.37937  1.0000
  N   N28       1.0  0.83366  0.26395  0.36769  1.0000
  H   H421      1.0  0.84887  0.14027  0.33242  1.0000
  S   S107      1.0  0.97569  0.12641  0.31999  1.0000
  H   H422      1.0  0.04516  0.31192  0.42028  1.0000
  H   H423      1.0  0.79229  0.16176  0.34961  1.0000
  C   C265      1.0  0.83651  0.25807  0.33113  1.0000
  H   H424      1.0  0.07879  0.25556  0.35188  1.0000
  H   H425      1.0  0.64523  0.18908  0.15190  1.0000
  C   C266      1.0  0.82502  0.23237  0.38443  1.0000
  H   H426      1.0  0.73091  0.31629  0.42884  1.0000
  H   H427      1.0  0.81187  0.31318  0.36176  1.0000
  C   C267      1.0  0.05955  0.19108  0.40318  1.0000
  H   H428      1.0  0.00624  0.31851  0.44294  1.0000
  H   H429      1.0  0.86505  0.28151  0.40837  1.0000
  H   H430      1.0  0.86754  0.24266  0.11794  1.0000
  H   H431      1.0  0.89533  0.27809  0.11812  1.0000
  C   C268      1.0  0.87619  0.26427  0.10287  1.0000
  H   H432      1.0  0.67394  0.24505  0.10919  1.0000
  H   H433      1.0  0.88949  0.25409  0.08025  1.0000
  C   C269      1.0  0.83000  0.29891  0.12382  1.0000
  S   S108      1.0  0.75412  0.30109  0.17340  1.0000
  C   C270      1.0  0.89279  0.08439  0.44525  1.0000
  H   H434      1.0  0.05049  0.24589  0.48372  1.0000
  H   H435      1.0  0.00954  0.26014  0.46900  1.0000
  H   H436      1.0  0.73733  0.30442  0.10401  1.0000
  C   C271      1.0  0.03303  0.30982  0.50479  1.0000
  C   C272      1.0  0.08524  0.30049  0.47387  1.0000
  C   C273      1.0  0.85687  0.31761  0.98249  1.0000
  S   S109      1.0  0.70151  0.25061  0.77765  1.0000
  N   N29       1.0  0.79077  0.19645  0.80436  1.0000
  H   H437      1.0  0.76250  0.15480  0.78477  1.0000
  H   H438      1.0  0.81908  0.16267  0.83585  1.0000
  H   H439      1.0  0.82464  0.15569  0.79167  1.0000
  H   H440      1.0  0.84492  0.19047  0.81206  1.0000
  H   H441      1.0  0.79726  0.19465  0.75074  1.0000
  H   H442      1.0  0.77193  0.22914  0.76568  1.0000
  C   C274      1.0  0.69714  0.26203  0.82000  1.0000
  C   C275      1.0  0.82123  0.17540  0.81121  1.0000
  H   H443      1.0  0.81740  0.22945  0.77130  1.0000
  C   C276      1.0  0.79461  0.21310  0.77158  1.0000
  Fe  Fe56      1.0  0.75537  0.20889  0.01141  1.0000
  S   S110      1.0  0.80632  0.19330  0.99031  1.0000
  Fe  Fe57      1.0  0.73922  0.25395  0.95298  1.0000
  S   S111      1.0  0.78864  0.24285  0.92714  1.0000
  S   S112      1.0  0.70540  0.29263  0.92964  1.0000
  Fe  Fe58      1.0  0.77844  0.18991  0.94105  1.0000
  S   S113      1.0  0.79364  0.15245  0.90136  1.0000
  Fe  Fe59      1.0  0.81201  0.24738  0.97812  1.0000
  S   S114      1.0  0.86142  0.27416  0.98601  1.0000
  S   S115      1.0  0.72662  0.20046  0.96304  1.0000
  S   S116      1.0  0.76349  0.26337  0.00284  1.0000
  H   H444      1.0  0.08068  0.31758  0.83923  1.0000
  C   C277      1.0  0.69466  0.29569  0.82929  1.0000
  C   C278      1.0  0.69883  0.28056  0.88792  1.0000
  H   H445      1.0  0.72931  0.26085  0.06079  1.0000
  H   H446      1.0  0.76571  0.23952  0.82568  1.0000
  C   C279      1.0  0.70076  0.24687  0.87875  1.0000
  C   C280      1.0  0.69881  0.23755  0.84485  1.0000
  H   H447      1.0  0.70359  0.22795  0.89778  1.0000
  H   H448      1.0  0.83462  0.25613  0.04997  1.0000
  S   S117      1.0  0.72254  0.29375  0.69178  1.0000
  C   C281      1.0  0.69442  0.30485  0.86329  1.0000
  C   C282      1.0  0.76413  0.12192  0.88966  1.0000
  C   C283      1.0  0.73278  0.11886  0.90604  1.0000
  H   H449      1.0  0.86658  0.31323  0.62403  1.0000
  H   H450      1.0  0.69308  0.31473  0.81040  1.0000
  H   H451      1.0  0.72532  0.13672  0.92516  1.0000
  H   H452      1.0  0.74895  0.30369  0.59124  1.0000
  H   H453      1.0  0.79753  0.10126  0.85181  1.0000
  H   H454      1.0  0.78196  0.21034  0.85592  1.0000
  C   C284      1.0  0.76006  0.17532  0.80356  1.0000
  Fe  Fe60      1.0  0.71457  0.29561  0.74750  1.0000
  H   H455      1.0  0.73684  0.19008  0.79674  1.0000
  H   H456      1.0  0.75530  0.16379  0.82847  1.0000
  C   C285      1.0  0.78717  0.22196  0.83114  1.0000
  H   H457      1.0  0.81068  0.23703  0.83392  1.0000
  H   H458      1.0  0.80058  0.28250  0.06487  1.0000
  H   H459      1.0  0.77458  0.08077  0.99469  1.0000
  H   H460      1.0  0.80269  0.31853  0.99149  1.0000
  C   C286      1.0  0.71167  0.09162  0.89870  1.0000
  C   C287      1.0  0.77346  0.09885  0.86476  1.0000
  H   H461      1.0  0.77177  0.31109  0.89126  1.0000
  H   H462      1.0  0.69983  0.21144  0.83800  1.0000
  H   H463      1.0  0.81512  0.09569  0.98032  1.0000
  S   S118      1.0  0.81862  0.31147  0.67806  1.0000
  H   H464      1.0  0.77930  0.09492  0.95244  1.0000
  S   S119      1.0  0.73958  0.18950  0.06206  1.0000
  H   H465      1.0  0.68805  0.08851  0.91229  1.0000
  H   H466      1.0  0.63395  0.30456  0.69488  1.0000
  C   C288      1.0  0.79231  0.08098  0.97291  1.0000
  S   S120      1.0  0.76357  0.32162  0.75891  1.0000
  C   C289      1.0  0.82254  0.26665  0.07303  1.0000
  H   H467      1.0  0.87383  0.30540  0.05068  1.0000
  C   C290      1.0  0.61236  0.32136  0.69165  1.0000
  C   C291      1.0  0.85965  0.31432  0.07325  1.0000
  H   H468      1.0  0.81102  0.32149  0.91265  1.0000
  S   S121      1.0  0.74682  0.37117  0.32014  1.0000
  S   S122      1.0  0.86370  0.37922  0.44279  1.0000
  C   C292      1.0  0.73672  0.34051  0.38096  1.0000
  C   C293      1.0  0.72000  0.35435  0.55694  1.0000
  Fe  Fe61      1.0  0.89991  0.36309  0.48329  1.0000
  H   H469      1.0  0.74499  0.42208  0.27163  1.0000
  S   S123      1.0  0.69845  0.33118  0.24479  1.0000
  H   H470      1.0  0.72301  0.33132  0.54136  1.0000
  C   C294      1.0  0.76308  0.35938  0.43290  1.0000
  C   C295      1.0  0.77750  0.38603  0.41579  1.0000
  Fe  Fe62      1.0  0.86885  0.41011  0.53510  1.0000
  Fe  Fe63      1.0  0.82405  0.37727  0.48325  1.0000
  H   H471      1.0  0.72672  0.45983  0.25539  1.0000
  C   C296      1.0  0.75091  0.44822  0.26462  1.0000
  H   H472      1.0  0.72088  0.37578  0.53931  1.0000
  H   H473      1.0  0.84770  0.53103  0.46761  1.0000
  S   S124      1.0  0.91277  0.41509  0.49973  1.0000
  C   C297      1.0  0.77167  0.38990  0.38134  1.0000
  S   S125      1.0  0.85945  0.35641  0.52217  1.0000
  H   H474      1.0  0.78320  0.41048  0.36842  1.0000
  C   C298      1.0  0.75175  0.36684  0.36372  1.0000
  H   H475      1.0  0.76918  0.44694  0.24332  1.0000
  H   H476      1.0  0.79321  0.40376  0.42912  1.0000
  C   C299      1.0  0.74217  0.33691  0.41563  1.0000
  H   H477      1.0  0.80199  0.53188  0.46961  1.0000
  C   C300      1.0  0.82547  0.54373  0.47984  1.0000
  S   S126      1.0  0.77331  0.35315  0.47525  1.0000
  H   H478      1.0  0.03987  0.33614  0.51039  1.0000
  H   H479      1.0  0.71554  0.47871  0.31381  1.0000
  H   H480      1.0  0.78472  0.51588  0.30366  1.0000
  H   H481      1.0  0.74780  0.51538  0.27701  1.0000
  H   H482      1.0  0.73502  0.44134  0.33002  1.0000
  N   N30       1.0  0.76515  0.46700  0.29344  1.0000
  C   C301      1.0  0.77189  0.50168  0.28320  1.0000
  H   H483      1.0  0.80797  0.46365  0.32740  1.0000
  H   H484      1.0  0.74996  0.48141  0.34333  1.0000
  C   C302      1.0  0.74033  0.46710  0.32133  1.0000
  C   C303      1.0  0.79746  0.45106  0.30460  1.0000
  H   H485      1.0  0.78887  0.50251  0.26092  1.0000
  H   H486      1.0  0.81728  0.45180  0.28471  1.0000
  H   H487      1.0  0.79366  0.42438  0.31099  1.0000
  S   S127      1.0  0.82982  0.43064  0.49912  1.0000
  Fe  Fe64      1.0  0.87296  0.43096  0.46223  1.0000
  S   S128      1.0  0.88586  0.47354  0.42824  1.0000
  S   S129      1.0  0.76430  0.55245  0.36037  1.0000
  H   H488      1.0  0.78513  0.33424  0.55060  1.0000
  C   C304      1.0  0.85178  0.49213  0.40641  1.0000
  C   C305      1.0  0.85862  0.51745  0.38344  1.0000
  C   C306      1.0  0.83174  0.53521  0.36823  1.0000
  C   C307      1.0  0.79796  0.52787  0.37619  1.0000
  C   C308      1.0  0.79104  0.50158  0.39807  1.0000
  C   C309      1.0  0.81796  0.48368  0.41318  1.0000
  H   H489      1.0  0.88480  0.52384  0.37797  1.0000
  H   H490      1.0  0.76488  0.49574  0.40424  1.0000
  H   H491      1.0  0.81256  0.46403  0.43078  1.0000
  H   H492      1.0  0.83724  0.55494  0.35077  1.0000
  H   H493      1.0  0.04105  0.34639  0.44928  1.0000
  C   C310      1.0  0.78082  0.35704  0.56623  1.0000
  H   H494      1.0  0.82692  0.53816  0.50713  1.0000
  Fe  Fe65      1.0  0.72754  0.32579  0.29294  1.0000
  H   H495      1.0  0.87730  0.33030  0.08805  1.0000
  H   H496      1.0  0.69413  0.35405  0.56852  1.0000
  H   H497      1.0  0.78317  0.37884  0.54924  1.0000
  S   S130      1.0  0.94130  0.32587  0.47076  1.0000
  H   H498      1.0  0.72095  0.32289  0.36769  1.0000
  H   H499      1.0  0.60310  0.46218  0.79826  1.0000
  H   H500      1.0  0.61216  0.37063  0.74344  1.0000
  H   H501      1.0  0.83633  0.34051  0.85928  1.0000
  H   H502      1.0  0.65353  0.45175  0.76199  1.0000
  S   S131      1.0  0.86841  0.42960  0.58819  1.0000
  H   H503      1.0  0.83393  0.37880  0.90805  1.0000
  H   H504      1.0  0.76259  0.39007  0.62222  1.0000
  C   C311      1.0  0.08003  0.43186  0.87328  1.0000
  H   H505      1.0  0.83821  0.33045  0.06416  1.0000
  H   H506      1.0  0.71719  0.38789  0.61577  1.0000
  C   C312      1.0  0.59892  0.43474  0.79818  1.0000
  C   C313      1.0  0.80830  0.38728  0.89918  1.0000
  H   H507      1.0  0.02728  0.46804  0.94966  1.0000
  Fe  Fe66      1.0  0.73245  0.36845  0.75303  1.0000
  C   C314      1.0  0.61549  0.34989  0.67193  1.0000
  S   S132      1.0  0.74180  0.37353  0.69800  1.0000
  H   H508      1.0  0.88696  0.35973  0.58892  1.0000
  C   C315      1.0  0.78594  0.33162  0.90387  1.0000
  H   H509      1.0  0.79365  0.39618  0.92146  1.0000
  C   C316      1.0  0.64745  0.42470  0.76217  1.0000
  C   C317      1.0  0.82587  0.37778  0.66336  1.0000
  H   H510      1.0  0.66254  0.41316  0.78293  1.0000
  H   H511      1.0  0.86553  0.49571  0.71063  1.0000
  C   C318      1.0  0.86954  0.36479  0.60936  1.0000
  S   S133      1.0  0.65527  0.36000  0.65497  1.0000
  H   H512      1.0  0.79711  0.38708  0.75250  1.0000
  H   H513      1.0  0.75826  0.39662  0.85653  1.0000
  H   H514      1.0  0.02027  0.52638  0.90156  1.0000
  C   C319      1.0  0.74233  0.38756  0.60268  1.0000
  C   C320      1.0  0.04764  0.42239  0.88445  1.0000
  H   H515      1.0  0.61750  0.37059  0.78820  1.0000
  H   H516      1.0  0.83642  0.46552  0.84094  1.0000
  C   C321      1.0  0.82152  0.36776  0.98311  1.0000
  C   C322      1.0  0.84996  0.38696  0.97522  1.0000
  C   C323      1.0  0.88209  0.37162  0.97223  1.0000
  H   H517      1.0  0.99958  0.50336  0.95584  1.0000
  H   H518      1.0  0.79664  0.37956  0.98554  1.0000
  H   H519      1.0  0.90429  0.38639  0.96670  1.0000
  N   N31       1.0  0.05156  0.51571  0.94480  1.0000
  C   C324      1.0  0.75634  0.37268  0.87019  1.0000
  H   H520      1.0  0.08279  0.34420  0.89540  1.0000
  C   C325      1.0  0.04408  0.40788  0.91603  1.0000
  N   N32       1.0  0.79026  0.36033  0.88123  1.0000
  H   H521      1.0  0.05150  0.55010  0.98648  1.0000
  C   C326      1.0  0.82491  0.33310  0.98628  1.0000
  H   H522      1.0  0.02967  0.49191  0.98788  1.0000
  H   H523      1.0  0.07007  0.39188  0.96101  1.0000
  H   H524      1.0  0.81241  0.40929  0.88287  1.0000
  H   H525      1.0  0.81439  0.37103  0.83434  1.0000
  Fe  Fe67      1.0  0.88708  0.44541  0.93211  1.0000
  S   S134      1.0  0.00403  0.39598  0.93068  1.0000
  C   C327      1.0  0.07285  0.40287  0.93642  1.0000
  H   H526      1.0  0.61272  0.42403  0.82016  1.0000
  S   S135      1.0  0.91036  0.40834  0.89641  1.0000
  Fe  Fe68      1.0  0.76894  0.32427  0.70307  1.0000
  H   H527      1.0  0.85870  0.39611  0.76109  1.0000
  H   H528      1.0  0.82782  0.42916  0.64795  1.0000
  H   H529      1.0  0.90556  0.49284  0.66323  1.0000
  S   S136      1.0  0.68269  0.34231  0.74670  1.0000
  H   H530      1.0  0.88920  0.45242  0.65342  1.0000
  H   H531      1.0  0.77107  0.33874  0.92668  1.0000
  H   H532      1.0  0.74338  0.41004  0.58649  1.0000
  C   C328      1.0  0.93132  0.47732  0.72388  1.0000
  H   H533      1.0  0.77449  0.45600  0.83269  1.0000
  N   N33       1.0  0.61044  0.41919  0.76636  1.0000
  C   C329      1.0  0.80552  0.40421  0.77179  1.0000
  H   H534      1.0  0.93419  0.45769  0.65875  1.0000
  H   H535      1.0  0.86805  0.46578  0.74359  1.0000
  C   C330      1.0  0.83576  0.34493  0.65593  1.0000
  C   C331      1.0  0.78165  0.42073  0.79218  1.0000
  C   C332      1.0  0.02599  0.49378  0.96025  1.0000
  C   C333      1.0  0.91028  0.42247  0.71030  1.0000
  N   N34       1.0  0.90531  0.45863  0.70467  1.0000
  C   C334      1.0  0.04613  0.51651  0.90805  1.0000
  H   H536      1.0  0.89028  0.40756  0.69728  1.0000
  C   C335      1.0  0.90878  0.46577  0.66849  1.0000
  S   S137      1.0  0.73810  0.41175  0.78821  1.0000
  Fe  Fe69      1.0  0.69485  0.34297  0.69188  1.0000
  C   C336      1.0  0.84050  0.40953  0.77654  1.0000
  H   H537      1.0  0.93553  0.41358  0.70091  1.0000
  H   H538      1.0  0.65698  0.41370  0.73817  1.0000
  H   H539      1.0  0.95765  0.47019  0.71600  1.0000
  C   C337      1.0  0.87084  0.46896  0.71604  1.0000
  C   C338      1.0  0.83670  0.40396  0.64300  1.0000
  H   H540      1.0  0.85055  0.45394  0.70367  1.0000
  H   H541      1.0  0.76554  0.32848  0.62510  1.0000
  H   H542      1.0  0.90925  0.41645  0.73752  1.0000
  H   H543      1.0  0.92814  0.50472  0.72054  1.0000
  C   C339      1.0  0.85182  0.43142  0.80168  1.0000
  H   H544      1.0  0.92941  0.47231  0.75133  1.0000
  C   C340      1.0  0.85790  0.39734  0.61551  1.0000
  H   H545      1.0  0.80992  0.38305  0.68476  1.0000
  C   C341      1.0  0.59163  0.43432  0.73791  1.0000
  C   C342      1.0  0.81054  0.34983  0.85170  1.0000
  C   C343      1.0  0.79287  0.44301  0.81698  1.0000
  C   C344      1.0  0.82795  0.44817  0.82188  1.0000
  Fe  Fe70      1.0  0.96036  0.42884  0.91393  1.0000
  S   S138      1.0  0.89574  0.43853  0.80650  1.0000
  H   H546      1.0  0.88526  0.56152  0.90539  1.0000
  S   S139      1.0  0.93705  0.46253  0.95277  1.0000
  C   C345      1.0  0.88559  0.33701  0.97621  1.0000
  Fe  Fe71      1.0  0.90991  0.45069  0.86008  1.0000
  S   S140      1.0  0.88218  0.48659  0.89427  1.0000
  Fe  Fe72      1.0  0.93475  0.50064  0.91184  1.0000
  S   S141      1.0  0.95698  0.55111  0.92315  1.0000
  S   S142      1.0  0.84436  0.42924  0.96542  1.0000
  S   S143      1.0  0.96239  0.46815  0.87438  1.0000
  H   H547      1.0  0.02551  0.42592  0.86848  1.0000
  H   H548      1.0  0.74383  0.35471  0.85284  1.0000
  H   H549      1.0  0.02190  0.56036  0.95360  1.0000
  C   C346      1.0  0.04784  0.54982  0.95876  1.0000
  C   C347      1.0  0.60375  0.38299  0.76710  1.0000
  H   H550      1.0  0.69199  0.33080  0.87051  1.0000
  N   N35       1.0  0.74712  0.35661  0.58279  1.0000
  H   H551      1.0  0.04822  0.49116  0.89680  1.0000
  H   H552      1.0  0.80192  0.35837  0.58491  1.0000
  H   H553      1.0  0.79762  0.32971  0.83726  1.0000
  H   H554      1.0  0.06515  0.53253  0.89546  1.0000
  H   H555      1.0  0.73899  0.37709  0.89190  1.0000
  H   H556      1.0  0.60060  0.42399  0.71345  1.0000
  H   H557      1.0  0.59487  0.46186  0.73736  1.0000
  C   C348      1.0  0.85838  0.33856  0.62950  1.0000
  H   H558      1.0  0.06665  0.56707  0.94758  1.0000
  C   C349      1.0  0.58742  0.37145  0.66782  1.0000
  H   H559      1.0  0.58978  0.39349  0.65251  1.0000
  H   H560      1.0  0.91047  0.32524  0.97357  1.0000
  H   H561      1.0  0.08281  0.44296  0.84875  1.0000
  H   H562      1.0  0.72018  0.32654  0.61826  1.0000
  C   C350      1.0  0.74534  0.32753  0.60532  1.0000
  H   H563      1.0  0.79892  0.71481  0.12970  1.0000
  H   H564      1.0  0.80952  0.74545  0.18296  1.0000
  N   N36       1.0  0.82945  0.69657  0.17094  1.0000
  H   H565      1.0  0.83500  0.72671  0.21543  1.0000
  Fe  Fe73      1.0  0.81256  0.66214  0.31787  1.0000
  H   H566      1.0  0.79739  0.65346  0.17319  1.0000
  C   C351      1.0  0.90042  0.71545  0.26554  1.0000
  C   C352      1.0  0.94818  0.71586  0.30457  1.0000
  C   C353      1.0  0.83240  0.72944  0.18772  1.0000
  C   C354      1.0  0.88402  0.69160  0.28505  1.0000
  H   H567      1.0  0.88360  0.68981  0.16454  1.0000
  C   C355      1.0  0.90007  0.67946  0.31405  1.0000
  H   H568      1.0  0.84402  0.71631  0.12313  1.0000
  H   H569      1.0  0.77608  0.69242  0.18265  1.0000
  S   S144      1.0  0.84334  0.67768  0.27317  1.0000
  C   C356      1.0  0.82344  0.70137  0.13460  1.0000
  C   C357      1.0  0.93218  0.72789  0.27554  1.0000
  C   C358      1.0  0.86140  0.67720  0.17603  1.0000
  H   H570      1.0  0.85988  0.65195  0.16440  1.0000
  S   S145      1.0  0.76120  0.63845  0.31197  1.0000
  H   H571      1.0  0.86721  0.67391  0.20324  1.0000
  H   H572      1.0  0.82282  0.67713  0.12081  1.0000
  H   H573      1.0  0.88841  0.72495  0.24306  1.0000
  H   H574      1.0  0.80446  0.67382  0.21280  1.0000
  C   C359      1.0  0.80053  0.67826  0.18546  1.0000
  H   H575      1.0  0.85517  0.74317  0.17875  1.0000
  H   H576      1.0  0.94424  0.74681  0.26069  1.0000
  H   H577      1.0  0.94410  0.71689  0.15386  1.0000
  N   N37       1.0  0.67717  0.82164  0.45807  1.0000
  C   C360      1.0  0.67117  0.71285  0.44291  1.0000
  Fe  Fe74      1.0  0.80748  0.66543  0.39349  1.0000
  C   C361      1.0  0.67240  0.70992  0.38199  1.0000
  H   H578      1.0  0.62438  0.71948  0.35730  1.0000
  C   C362      1.0  0.68921  0.70728  0.41296  1.0000
  Fe  Fe75      1.0  0.77733  0.60691  0.35575  1.0000
  H   H579      1.0  0.59355  0.81859  0.25922  1.0000
  S   S146      1.0  0.61479  0.73159  0.47906  1.0000
  S   S147      1.0  0.83041  0.62741  0.35843  1.0000
  S   S148      1.0  0.75583  0.64211  0.39447  1.0000
  H   H580      1.0  0.70135  0.80718  0.50446  1.0000
  S   S149      1.0  0.69448  0.70371  0.34416  1.0000
  H   H581      1.0  0.71616  0.70137  0.41385  1.0000
  H   H582      1.0  0.91036  0.81212  0.42357  1.0000
  H   H583      1.0  0.86092  0.80606  0.38508  1.0000
  C   C363      1.0  0.82295  0.58597  0.43711  1.0000
  S   S150      1.0  0.83478  0.68065  0.44082  1.0000
  Fe  Fe76      1.0  0.74417  0.67568  0.35096  1.0000
  H   H584      1.0  0.64322  0.78823  0.43288  1.0000
  C   C364      1.0  0.63637  0.72126  0.44188  1.0000
  S   S151      1.0  0.79428  0.70213  0.35315  1.0000
  C   C365      1.0  0.82071  0.72060  0.45286  1.0000
  Fe  Fe77      1.0  0.96599  0.82228  0.23338  1.0000
  H   H585      1.0  0.82258  0.61301  0.43147  1.0000
  H   H586      1.0  0.68430  0.71112  0.46681  1.0000
  H   H587      1.0  0.98960  0.81064  0.41616  1.0000
  C   C366      1.0  0.61954  0.72369  0.41094  1.0000
  C   C367      1.0  0.92152  0.77976  0.36546  1.0000
  S   S152      1.0  0.95369  0.81832  0.28794  1.0000
  H   H588      1.0  0.94879  0.77253  0.36953  1.0000
  C   C368      1.0  0.63757  0.71811  0.38108  1.0000
  H   H589      1.0  0.88785  0.66069  0.32894  1.0000
  H   H590      1.0  0.77576  0.71963  0.42156  1.0000
  H   H591      1.0  0.86305  0.72908  0.48648  1.0000
  H   H592      1.0  0.71032  0.78006  0.46960  1.0000
  H   H593      1.0  0.66937  0.77886  0.48933  1.0000
  C   C369      1.0  0.79113  0.73433  0.43854  1.0000
  H   H594      1.0  0.94479  0.68172  0.34588  1.0000
  S   S153      1.0  0.98673  0.73321  0.31830  1.0000
  C   C370      1.0  0.93236  0.69125  0.32354  1.0000
  H   H595      1.0  0.88847  0.72306  0.41891  1.0000
  C   C371      1.0  0.90235  0.73202  0.39649  1.0000
  S   S154      1.0  0.00470  0.78058  0.23346  1.0000
  H   H596      1.0  0.84691  0.77011  0.40736  1.0000
  Fe  Fe78      1.0  0.04252  0.82046  0.24570  1.0000
  H   H597      1.0  0.89104  0.71927  0.37425  1.0000
  C   C372      1.0  0.93011  0.74009  0.15051  1.0000
  S   S155      1.0  0.03686  0.81580  0.30156  1.0000
  H   H598      1.0  0.60787  0.80273  0.35002  1.0000
  C   C373      1.0  0.91152  0.78444  0.42506  1.0000
  C   C374      1.0  0.90991  0.74486  0.12187  1.0000
  H   H599      1.0  0.92940  0.72343  0.39880  1.0000
  H   H600      1.0  0.91344  0.76830  0.34118  1.0000
  H   H601      1.0  0.92060  0.80733  0.36263  1.0000
  Fe  Fe79      1.0  0.99543  0.77975  0.28890  1.0000
  C   C375      1.0  0.89455  0.80028  0.14183  1.0000
  C   C376      1.0  0.91603  0.79612  0.16968  1.0000
  H   H602      1.0  0.97739  0.79496  0.12772  1.0000
  N   N38       1.0  0.82543  0.58005  0.47355  1.0000
  C   C377      1.0  0.89131  0.77457  0.11806  1.0000
  C   C378      1.0  0.93290  0.76560  0.17455  1.0000
  H   H603      1.0  0.94838  0.76168  0.19660  1.0000
  H   H604      1.0  0.87426  0.77776  0.09693  1.0000
  C   C379      1.0  0.86392  0.77851  0.38688  1.0000
  H   H605      1.0  0.85428  0.76716  0.36309  1.0000
  H   H606      1.0  0.63788  0.77223  0.30482  1.0000
  C   C380      1.0  0.80114  0.78660  0.46793  1.0000
  C   C381      1.0  0.78136  0.76725  0.44606  1.0000
  H   H607      1.0  0.89554  0.77710  0.44675  1.0000
  C   C382      1.0  0.83057  0.77276  0.48255  1.0000
  H   H608      1.0  0.75890  0.77784  0.43421  1.0000
  H   H609      1.0  0.84578  0.78741  0.49970  1.0000
  H   H610      1.0  0.79525  0.62355  0.48584  1.0000
  C   C383      1.0  0.69012  0.79585  0.48140  1.0000
  H   H611      1.0  0.60743  0.73911  0.30439  1.0000
  C   C384      1.0  0.85745  0.59458  0.48655  1.0000
  C   C385      1.0  0.84019  0.73966  0.47525  1.0000
  N   N39       1.0  0.89983  0.76868  0.39346  1.0000
  C   C386      1.0  0.79587  0.59610  0.49038  1.0000
  H   H612      1.0  0.68463  0.79052  0.41436  1.0000
  H   H613      1.0  0.93838  0.77724  0.43115  1.0000
  H   H614      1.0  0.02133  0.78674  0.11777  1.0000
  S   S156      1.0  0.90860  0.71377  0.09081  1.0000
  H   H615      1.0  0.88020  0.58310  0.47412  1.0000
  H   H616      1.0  0.84507  0.57475  0.42355  1.0000
  C   C387      1.0  0.61282  0.76431  0.29428  1.0000
  H   H617      1.0  0.86021  0.59070  0.51406  1.0000
  H   H618      1.0  0.59252  0.72948  0.41004  1.0000
  H   H619      1.0  0.61576  0.76156  0.26662  1.0000
  C   C388      1.0  0.66429  0.80552  0.42711  1.0000
  H   H620      1.0  0.85826  0.62196  0.48187  1.0000
  C   C389      1.0  0.99964  0.80443  0.11351  1.0000
  C   C390      1.0  0.59223  0.82083  0.28704  1.0000
  H   H621      1.0  0.93931  0.82245  0.08634  1.0000
  H   H622      1.0  0.79911  0.57539  0.42633  1.0000
  H   H623      1.0  0.79672  0.59223  0.51800  1.0000
  H   H624      1.0  0.77129  0.58593  0.48078  1.0000
  N   N40       1.0  0.99149  0.80778  0.07738  1.0000
  S   S157      1.0  0.84642  0.72548  0.01344  1.0000
  Fe  Fe80      1.0  0.87874  0.71855  0.96749  1.0000
  S   S158      1.0  0.86123  0.67935  0.93078  1.0000
  C   C391      1.0  0.88762  0.64352  0.92902  1.0000
  C   C392      1.0  0.87461  0.61343  0.91646  1.0000
  H   H625      1.0  0.75766  0.81531  0.88756  1.0000
  C   C393      1.0  0.98661  0.80471  0.93465  1.0000
  C   C394      1.0  0.94261  0.61628  0.93768  1.0000
  C   C395      1.0  0.92166  0.64484  0.93963  1.0000
  H   H626      1.0  0.84832  0.61229  0.90813  1.0000
  H   H627      1.0  0.96901  0.61762  0.94563  1.0000
  H   H628      1.0  0.93209  0.66801  0.94869  1.0000
  S   S159      1.0  0.92878  0.72322  0.99518  1.0000
  C   C396      1.0  0.02154  0.82047  0.05934  1.0000
  H   H629      1.0  0.79206  0.75749  0.95262  1.0000
  H   H630      1.0  0.70593  0.79582  0.94093  1.0000
  C   C397      1.0  0.74698  0.78966  0.88699  1.0000
  H   H631      1.0  0.73708  0.78181  0.97134  1.0000
  S   S160      1.0  0.03820  0.78691  0.83344  1.0000
  H   H632      1.0  0.76009  0.77553  0.86656  1.0000
  Fe  Fe81      1.0  0.89594  0.73484  0.03996  1.0000
  H   H633      1.0  0.74447  0.81865  0.94761  1.0000
  C   C398      1.0  0.92957  0.58611  0.92549  1.0000
  S   S161      1.0  0.89463  0.78989  0.03110  1.0000
  H   H634      1.0  0.98753  0.74967  0.86909  1.0000
  C   C399      1.0  0.99410  0.77129  0.88411  1.0000
  C   C400      1.0  0.97786  0.77699  0.91504  1.0000
  H   H635      1.0  0.73889  0.72634  0.94267  1.0000
  N   N41       1.0  0.75119  0.77302  0.91978  1.0000
  Fe  Fe82      1.0  0.84796  0.77960  0.00064  1.0000
  C   C401      1.0  0.73603  0.73945  0.91822  1.0000
  S   S162      1.0  0.96600  0.81300  0.97289  1.0000
  Fe  Fe83      1.0  0.92328  0.77783  0.98404  1.0000
  S   S163      1.0  0.80085  0.81150  0.00296  1.0000
  C   C402      1.0  0.89548  0.58465  0.91496  1.0000
  H   H636      1.0  0.97629  0.77638  0.03604  1.0000
  S   S164      1.0  0.87618  0.77240  0.95238  1.0000
  H   H637      1.0  0.95878  0.75979  0.92377  1.0000
  C   C403      1.0  0.73382  0.79310  0.94603  1.0000
  H   H638      1.0  0.95924  0.76476  0.07589  1.0000
  C   C404      1.0  0.78796  0.76989  0.92794  1.0000
  C   C405      1.0  0.98219  0.77486  0.06337  1.0000
  H   H639      1.0  0.00318  0.75620  0.06654  1.0000
  C   C406      1.0  0.01840  0.79376  0.87237  1.0000
  H   H640      1.0  0.04388  0.80324  0.06187  1.0000
  H   H641      1.0  0.00263  0.81925  0.64772  1.0000
  H   H642      1.0  0.91689  0.81251  0.63503  1.0000
  H   H643      1.0  0.74870  0.72357  0.89876  1.0000
  H   H644      1.0  0.71953  0.79224  0.87990  1.0000
  H   H645      1.0  0.70827  0.74085  0.91212  1.0000
  H   H646      1.0  0.02470  0.80891  0.60961  1.0000
  H   H647      1.0  0.80200  0.75476  0.90879  1.0000
  H   H648      1.0  0.80018  0.79479  0.92964  1.0000
  H   H649      1.0  0.90802  0.82214  0.89928  1.0000
  C   C407      1.0  0.02694  0.82159  0.89190  1.0000
  S   S165      1.0  0.03626  0.82270  0.74293  1.0000
  H   H650      1.0  0.83632  0.91017  0.29857  1.0000
  C   C408      1.0  0.85780  0.04843  0.47870  1.0000
  H   H651      1.0  0.91353  0.88363  0.34600  1.0000
  H   H652      1.0  0.87920  0.92154  0.38148  1.0000
  H   H653      1.0  0.87672  0.86955  0.32316  1.0000
  H   H654      1.0  0.63539  0.92942  0.36623  1.0000
  C   C409      1.0  0.86196  0.92537  0.35944  1.0000
  H   H655      1.0  0.89717  0.97403  0.32861  1.0000
  H   H656      1.0  0.84967  0.95037  0.36268  1.0000
  H   H657      1.0  0.96852  0.85643  0.08369  1.0000
  H   H658      1.0  0.63905  0.86061  0.45748  1.0000
  H   H659      1.0  0.72628  0.83119  0.43649  1.0000
  N   N42       1.0  0.88092  0.92290  0.32748  1.0000
  H   H660      1.0  0.84147  0.90645  0.36091  1.0000
  H   H661      1.0  0.84519  0.95400  0.30053  1.0000
  C   C410      1.0  0.89647  0.88925  0.32430  1.0000
  H   H662      1.0  0.88083  0.82360  0.13834  1.0000
  C   C411      1.0  0.64910  0.84065  0.47424  1.0000
  Fe  Fe84      1.0  0.86977  0.90152  0.54403  1.0000
  S   S166      1.0  0.82521  0.91253  0.50993  1.0000
  Fe  Fe85      1.0  0.91010  0.86752  0.48938  1.0000
  S   S167      1.0  0.86951  0.87506  0.45034  1.0000
  S   S168      1.0  0.00462  0.86256  0.24062  1.0000
  Fe  Fe86      1.0  0.86481  0.92642  0.47217  1.0000
  S   S169      1.0  0.85435  0.96854  0.43640  1.0000
  Fe  Fe87      1.0  0.83334  0.86033  0.49078  1.0000
  H   H663      1.0  0.71608  0.85653  0.47230  1.0000
  S   S170      1.0  0.90885  0.92039  0.50790  1.0000
  S   S171      1.0  0.87448  0.84778  0.52804  1.0000
  S   S172      1.0  0.60120  0.90680  0.30664  1.0000
  H   H664      1.0  0.92689  0.96459  0.45200  1.0000
  C   C412      1.0  0.60623  0.91116  0.40800  1.0000
  H   H665      1.0  0.92374  0.94635  0.30393  1.0000
  H   H666      1.0  0.91229  0.88693  0.30117  1.0000
  H   H667      1.0  0.03466  0.99452  0.39720  1.0000
  S   S173      1.0  0.95780  0.84033  0.47429  1.0000
  C   C413      1.0  0.59156  0.90190  0.34930  1.0000
  C   C414      1.0  0.98884  0.84895  0.37845  1.0000
  C   C415      1.0  0.96167  0.89041  0.42851  1.0000
  H   H668      1.0  0.96286  0.92922  0.39161  1.0000
  H   H669      1.0  0.95079  0.90639  0.44771  1.0000
  C   C416      1.0  0.89004  0.98798  0.41924  1.0000
  C   C417      1.0  0.88511  0.01069  0.39310  1.0000
  H   H670      1.0  0.61674  0.83155  0.29612  1.0000
  H   H671      1.0  0.07088  0.96916  0.29914  1.0000
  C   C418      1.0  0.95063  0.00005  0.41926  1.0000
  C   C419      1.0  0.92292  0.98214  0.43187  1.0000
  H   H672      1.0  0.85974  0.01506  0.38301  1.0000
  H   H673      1.0  0.97585  0.99631  0.42990  1.0000
  C   C420      1.0  0.96834  0.90327  0.39666  1.0000
  C   C421      1.0  0.05583  0.94244  0.35881  1.0000
  N   N43       1.0  0.04915  0.97714  0.34805  1.0000
  H   H674      1.0  0.69586  0.86484  0.43254  1.0000
  C   C422      1.0  0.01386  0.98019  0.33495  1.0000
  H   H675      1.0  0.90884  0.04562  0.35997  1.0000
  H   H676      1.0  0.92574  0.94525  0.34880  1.0000
  H   H677      1.0  0.03730  0.93458  0.37829  1.0000
  H   H678      1.0  0.87989  0.03124  0.48319  1.0000
  S   S174      1.0  0.97920  0.04895  0.38128  1.0000
  H   H679      1.0  0.62291  0.92181  0.42684  1.0000
  C   C423      1.0  0.98127  0.88236  0.37140  1.0000
  C   C424      1.0  0.94538  0.02384  0.39411  1.0000
  H   H680      1.0  0.05345  0.92459  0.33738  1.0000
  H   H681      1.0  0.99480  0.97332  0.35433  1.0000
  C   C425      1.0  0.96929  0.85702  0.43558  1.0000
  H   H682      1.0  0.00776  0.00621  0.32712  1.0000
  H   H683      1.0  0.06901  0.01203  0.31256  1.0000
  C   C426      1.0  0.85726  0.92873  0.29902  1.0000
  H   H684      1.0  0.00977  0.96354  0.31284  1.0000
  C   C427      1.0  0.05340  0.99996  0.37704  1.0000
  C   C428      1.0  0.90803  0.94828  0.32713  1.0000
  C   C429      1.0  0.70501  0.84460  0.44944  1.0000
  H   H685      1.0  0.87083  0.92682  0.27452  1.0000
  S   S175      1.0  0.98616  0.89770  0.33068  1.0000
  C   C430      1.0  0.91280  0.02833  0.38033  1.0000
  S   S176      1.0  0.78897  0.82809  0.47620  1.0000
  C   C431      1.0  0.61331  0.91536  0.37377  1.0000
  H   H686      1.0  0.01053  0.87358  0.57280  1.0000
  H   H687      1.0  0.00666  0.82881  0.12504  1.0000
  H   H688      1.0  0.84021  0.04629  0.50042  1.0000
  C   C432      1.0  0.07348  0.98602  0.32136  1.0000
  Fe  Fe88      1.0  0.99576  0.85477  0.29546  1.0000
  H   H689      1.0  0.04903  0.02644  0.36969  1.0000
  H   H690      1.0  0.84405  0.03883  0.45613  1.0000
  H   H691      1.0  0.07948  0.99796  0.38809  1.0000
  H   H692      1.0  0.91537  0.06766  0.44905  1.0000
  H   H693      1.0  0.08199  0.93931  0.36943  1.0000
  H   H694      1.0  0.62722  0.82426  0.48044  1.0000
  H   H695      1.0  0.65763  0.85283  0.49795  1.0000
  C   C433      1.0  0.98356  0.83646  0.41075  1.0000
  H   H696      1.0  0.99867  0.83258  0.35912  1.0000
  S   S177      1.0  0.92260  0.82981  0.19707  1.0000
  H   H697      1.0  0.65414  0.82425  0.40901  1.0000
  H   H698      1.0  0.05147  0.85314  0.57621  1.0000
  S   S178      1.0  0.05059  0.87850  0.80205  1.0000
  Fe  Fe89      1.0  0.98519  0.84730  0.73569  1.0000
  S   S179      1.0  0.00626  0.89896  0.73390  1.0000
  H   H699      1.0  0.66466  0.92535  0.86221  1.0000
  Fe  Fe90      1.0  0.05657  0.87459  0.74604  1.0000
  C   C434      1.0  0.82305  0.87081  0.66791  1.0000
  Fe  Fe91      1.0  0.99827  0.89827  0.78967  1.0000
  H   H700      1.0  0.01473  0.91091  0.64066  1.0000
  H   H701      1.0  0.91497  0.92529  0.87434  1.0000
  S   S180      1.0  0.97293  0.84841  0.79054  1.0000
  C   C435      1.0  0.77024  0.90232  0.66500  1.0000
  H   H702      1.0  0.87837  0.91621  0.74375  1.0000
  C   C436      1.0  0.81914  0.02928  0.99001  1.0000
  H   H703      1.0  0.78178  0.86583  0.72100  1.0000
  S   S181      1.0  0.82130  0.95374  0.77030  1.0000
  H   H704      1.0  0.81976  0.88744  0.73376  1.0000
  C   C437      1.0  0.79569  0.88975  0.71886  1.0000
  C   C438      1.0  0.92110  0.92802  0.77548  1.0000
  C   C439      1.0  0.86438  0.95195  0.78213  1.0000
  C   C440      1.0  0.93258  0.94640  0.80319  1.0000
  H   H705      1.0  0.66133  0.93832  0.92292  1.0000
  C   C441      1.0  0.82219  0.92948  0.68210  1.0000
  H   H706      1.0  0.91266  0.85282  0.93173  1.0000
  C   C442      1.0  0.90470  0.90661  0.89205  1.0000
  C   C443      1.0  0.92835  0.85166  0.67045  1.0000
  C   C444      1.0  0.92485  0.88570  0.67786  1.0000
  C   C445      1.0  0.90785  0.90691  0.65516  1.0000
  H   H707      1.0  0.93518  0.89567  0.70101  1.0000
  H   H708      1.0  0.90509  0.93323  0.66094  1.0000
  N   N44       1.0  0.80280  0.89808  0.68349  1.0000
  H   H709      1.0  0.66042  0.98216  0.91352  1.0000
  H   H710      1.0  0.82771  0.93674  0.65574  1.0000
  S   S182      1.0  0.97427  0.94062  0.81813  1.0000
  H   H711      1.0  0.77483  0.90864  0.63819  1.0000
  H   H712      1.0  0.80805  0.95047  0.69441  1.0000
  S   S183      1.0  0.95064  0.82441  0.69708  1.0000
  H   H713      1.0  0.84715  0.92714  0.69530  1.0000
  H   H714      1.0  0.84825  0.86756  0.68066  1.0000
  S   S184      1.0  0.87167  0.92032  0.59759  1.0000
  C   C446      1.0  0.87584  0.97031  0.80988  1.0000
  C   C447      1.0  0.05725  0.85817  0.64342  1.0000
  H   H715      1.0  0.77725  0.00240  0.94411  1.0000
  C   C448      1.0  0.89459  0.89413  0.62501  1.0000
  C   C449      1.0  0.88710  0.93098  0.76478  1.0000
  H   H716      1.0  0.93827  0.91119  0.76248  1.0000
  C   C450      1.0  0.91007  0.96789  0.82013  1.0000
  H   H717      1.0  0.80961  0.84656  0.66914  1.0000
  C   C451      1.0  0.00255  0.88602  0.63872  1.0000
  N   N45       1.0  0.80188  0.04680  0.96202  1.0000
  H   H718      1.0  0.75490  0.87913  0.66549  1.0000
  N   N46       1.0  0.02560  0.86097  0.62317  1.0000
  S   S185      1.0  0.69922  0.03041  0.87034  1.0000
  C   C452      1.0  0.60137  0.98183  0.87876  1.0000
  H   H719      1.0  0.75747  0.04065  0.93068  1.0000
  H   H720      1.0  0.91893  0.98221  0.84153  1.0000
  H   H721      1.0  0.90526  0.83951  0.83947  1.0000
  H   H722      1.0  0.61241  0.82341  0.91100  1.0000
  H   H723      1.0  0.87025  0.86753  0.84905  1.0000
  C   C453      1.0  0.01149  0.82672  0.92326  1.0000
  H   H724      1.0  0.85848  0.98673  0.82321  1.0000
  Fe  Fe92      1.0  0.73626  0.98844  0.86001  1.0000
  H   H725      1.0  0.88676  0.84974  0.59555  1.0000
  Fe  Fe93      1.0  0.79489  0.95136  0.89294  1.0000
  C   C454      1.0  0.89792  0.86008  0.61797  1.0000
  S   S186      1.0  0.83186  0.94942  0.93588  1.0000
  H   H726      1.0  0.96211  0.88667  0.86067  1.0000
  S   S187      1.0  0.79318  0.99444  0.85773  1.0000
  S   S188      1.0  0.73820  0.94852  0.89889  1.0000
  C   C455      1.0  0.64418  0.95976  0.91667  1.0000
  H   H727      1.0  0.83312  0.02308  0.92428  1.0000
  C   C456      1.0  0.82350  0.91277  0.95787  1.0000
  C   C457      1.0  0.85046  0.89194  0.96805  1.0000
  C   C458      1.0  0.84360  0.86077  0.98211  1.0000
  C   C459      1.0  0.80979  0.85109  0.98727  1.0000
  C   C460      1.0  0.78292  0.87270  0.97869  1.0000
  C   C461      1.0  0.78977  0.90327  0.96350  1.0000
  H   H728      1.0  0.87657  0.89948  0.96431  1.0000
  H   H729      1.0  0.86448  0.84433  0.98904  1.0000
  H   H730      1.0  0.75677  0.86568  0.98338  1.0000
  H   H731      1.0  0.76888  0.91965  0.95663  1.0000
  C   C462      1.0  0.68736  0.85823  0.88728  1.0000
  C   C463      1.0  0.65709  0.84016  0.88485  1.0000
  C   C464      1.0  0.63613  0.83682  0.91305  1.0000
  C   C465      1.0  0.64564  0.85131  0.94369  1.0000
  C   C466      1.0  0.67698  0.86754  0.94658  1.0000
  C   C467      1.0  0.69778  0.87111  0.91832  1.0000
  C   C468      1.0  0.60293  0.92307  0.89131  1.0000
  C   C469      1.0  0.64718  0.94693  0.85743  1.0000
  H   H732      1.0  0.68469  0.87817  0.97046  1.0000
  H   H733      1.0  0.72192  0.88366  0.92068  1.0000
  H   H734      1.0  0.99548  0.87852  0.66457  1.0000
  S   S189      1.0  0.79770  0.91232  0.85263  1.0000
  H   H735      1.0  0.91515  0.91268  0.91735  1.0000
  H   H736      1.0  0.07075  0.88245  0.64527  1.0000
  H   H737      1.0  0.61905  0.90097  0.89728  1.0000
  H   H738      1.0  0.95942  0.84347  0.87146  1.0000
  H   H739      1.0  0.66324  0.96909  0.85260  1.0000
  H   H740      1.0  0.01832  0.84817  0.93840  1.0000
  C   C470      1.0  0.90124  0.84828  0.90645  1.0000
  N   N47       1.0  0.62392  0.95292  0.88603  1.0000
  C   C471      1.0  0.72198  0.06757  0.87502  1.0000
  Fe  Fe94      1.0  0.74073  0.91294  0.85532  1.0000
  H   H741      1.0  0.64923  0.82973  0.86093  1.0000
  H   H742      1.0  0.05171  0.85040  0.66963  1.0000
  H   H743      1.0  0.62736  0.96428  0.93876  1.0000
  S   S190      1.0  0.73333  0.95267  0.81656  1.0000
  Fe  Fe95      1.0  0.79049  0.95514  0.81746  1.0000
  C   C472      1.0  0.96250  0.83137  0.07321  1.0000
  H   H744      1.0  0.58747  0.91689  0.86862  1.0000
  C   C473      1.0  0.03398  0.87142  0.58869  1.0000
  C   C474      1.0  0.89859  0.86516  0.84834  1.0000
  H   H745      1.0  0.75236  0.02696  0.97315  1.0000
  C   C475      1.0  0.77086  0.02841  0.95210  1.0000
  H   H746      1.0  0.75441  0.92282  0.67612  1.0000
  H   H747      1.0  0.77984  0.90949  0.73124  1.0000
  C   C476      1.0  0.00847  0.82829  0.62201  1.0000
  H   H748      1.0  0.04566  0.83902  0.88298  1.0000
  H   H749      1.0  0.90784  0.88288  0.82908  1.0000
  N   N48       1.0  0.91397  0.87228  0.88154  1.0000
  H   H750      1.0  0.80216  0.02744  0.01225  1.0000
  H   H751      1.0  0.82809  0.87594  0.64095  1.0000
  C   C477      1.0  0.91458  0.83890  0.64066  1.0000
  H   H752      1.0  0.87650  0.91027  0.89301  1.0000
  C   C478      1.0  0.95150  0.86911  0.87929  1.0000
  H   H753      1.0  0.96389  0.87468  0.90385  1.0000
  H   H754      1.0  0.63274  0.94137  0.83396  1.0000
  S   S191      1.0  0.61787  0.85096  0.97791  1.0000
  S   S192      1.0  0.71140  0.86535  0.85118  1.0000
  C   C479      1.0  0.82523  0.04848  0.93301  1.0000
  H   H755      1.0  0.82673  0.00339  0.98267  1.0000
  H   H756      1.0  0.04672  0.89611  0.58869  1.0000
  Fe  Fe96      1.0  0.02604  0.82855  0.79789  1.0000
  H   H757      1.0  0.84274  0.04239  0.99804  1.0000
  H   H758      1.0  0.98377  0.82979  0.60806  1.0000
  H   H759      1.0  0.97836  0.88899  0.62413  1.0000
  H   H760      1.0  0.07542  0.83951  0.63262  1.0000
  H   H761      1.0  0.61642  0.00487  0.87460  1.0000
  H   H762      1.0  0.87298  0.85008  0.90909  1.0000
  H   H763      1.0  0.95575  0.83459  0.04619  1.0000
  H   H764      1.0  0.02927  0.84534  0.06917  1.0000
  H   H765      1.0  0.84883  0.06242  0.93938  1.0000
  H   H766      1.0  0.81286  0.06133  0.91137  1.0000
  H   H767      1.0  0.75978  0.05404  0.83818  1.0000
  C   C480      1.0  0.75237  0.07181  0.85740  1.0000
  H   H768      1.0  0.01604  0.82321  0.03197  1.0000
