data_image0
_chemical_formula_structural       H2SHFeHSFeS2FeSFeS2HCN2H3C8H5C2H4CH3CNHC2H2CH2CHCH2C2HC2H3Fe2HSHSFeC2H3SCH2CS2HCH5CH2FeSH2CNFeS3H2SC2HC3HCH4C2H2FeSFeH5N2HCHCNSCFeHC5H5SH4CFeH3CSCSHCHCH2SH2CHSNFeHC2HSH2CH2CHC2H5C2HCH7NHFeS2HFeS2FeSFe2SC2HCHCSHSH2C6H4C2H5C2HC2HC3HC2HCHCHCNH3CNCHCHCH3CH2CHC2HCSCHC3H4CNH5C2H5SH3C2HSHCSCHS2HCHC2SNH2S2H2FeSFeS2FeSFeS3C3H4C2H3C2H3CH2C6H12CH5NCHC3HFeCH3CH2CFeNH6C2H3FeC2HNH2SCFeS2H2C3SNSHCFeSFe2CH4SCH7CH2CS2C3SC2HC3H6CH3CHCH2C2HC2HSHSHSH2CH2C4H4C3SCFeH2CH2SNHSC2SFeSH2C4H4C2FeH3SHCSCFeH8FeCH4FeSH2C6H2CH4CSCSHFeSCHSCHCH3NCHFeCHSFeNS2HFeC2SC2FeCSCH3CHCSH3CHC3H3CH4SH2C2H4SFeHCH2CHSHCH2SNCHSH4CSH6CHSCH5CNHCHNHC2HCHSH2FeH3SH2NCH2FeC2HC2HSCHCHFeH2CHFeHC2HCFeSC2HSFeH2CHCH4SH2CH2CH2CH2SCSH2SCHCH2C2FeHCSH3NCH2CHCH3SC2FeS2CFeSCH2C2H4CHC2H2CHNCH2SCHC2SH5CH2SFeSH3SHC2HFeHSHNCHSCHCHCH4CNFeCSCHSHFeSHSC2FeHSHSHCH2SC5H2FeHC2NCHSH10CSH3CHSHNC4HS2HCSCHC2SC2FeHSHC2H5CH3NFeH2CH2CH2CHCHFeHCHC2NHCH3CH3CFeHCHSH2SC7H5Fe2HSCH2CH3SCSCSHCH2SCS2NSFeH2CNFeH2SHCHC2HCHCH2NH2CH4SH2CFeHCH3C3FeH2CH3C2S2HSFeSFeC6H5CH3NS2H5SH2C3HSHCH3FeH3CSHCHNCHC2H2CSHFeH2SCFeHC2H2CH3C3H3CHCH3CH2NHC2H3C5HSH2CHSHC2HC2SHCH4C2HFeH2FeS2Fe2SFeS3CFeH3SH4CHSC2H2C6H4CHCH5CH2CHNCSHFeSH2SFeSFeSFeSHSC5HC2HSCH3C4HCH6C2HCSH5SH2CHCH3CFeSNHNCH7C2HCH2SHCHCHCH2CHCH2C2H2CHSC2H4CHSHFeHFeSCSH2C3H3C2HFe2HCH3CSH3SCHSH3SCHNHFeCH2C4S2H4CNH3CFeCH2NCFeSFeS2FeS2FeHFeS3CHSHCH4C2HC4H3C6H4CHC2HCHCHCH2CH2CSHCNH4SH2FeCHNH2SH2NHC3HC2NCH6C2H6SCHFeCH3CH5
_chemical_formula_sum              "H768 S192 Fe96 C480 N48"
_cell_length_a       54.217
_cell_length_b       56.2193
_cell_length_c       23.5065
_cell_angle_alpha    89.7702
_cell_angle_beta     89.8143
_cell_angle_gamma    88.9273

_space_group_name_H-M_alt    "P 1"
_space_group_IT_number       1

loop_
  _space_group_symop_operation_xyz
  'x, y, z'

loop_
  _atom_site_type_symbol
  _atom_site_label
  _atom_site_symmetry_multiplicity
  _atom_site_fract_x
  _atom_site_fract_y
  _atom_site_fract_z
  _atom_site_occupancy
  H   H1        1.0  0.29339  0.19949  0.60054  1.0000
  H   H2        1.0  0.23836  0.20942  0.69245  1.0000
  S   S1        1.0  0.11734  0.23275  0.17459  1.0000
  H   H3        1.0  0.23413  0.16705  0.61273  1.0000
  Fe  Fe1       1.0  0.26805  0.17159  0.39886  1.0000
  H   H4        1.0  0.08652  0.20255  0.97342  1.0000
  S   S2        1.0  0.27936  0.15085  0.47667  1.0000
  Fe  Fe2       1.0  0.22877  0.20545  0.35277  1.0000
  S   S3        1.0  0.24648  0.20729  0.26677  1.0000
  S   S4        1.0  0.19496  0.22718  0.37515  1.0000
  Fe  Fe3       1.0  0.25185  0.16784  0.27661  1.0000
  S   S5        1.0  0.24185  0.14455  0.20298  1.0000
  Fe  Fe4       1.0  0.28184  0.20982  0.31486  1.0000
  S   S6        1.0  0.23110  0.16575  0.35908  1.0000
  S   S7        1.0  0.26381  0.21131  0.40063  1.0000
  H   H5        1.0  0.26611  0.16381  0.59617  1.0000
  C   C1        1.0  0.24941  0.20449  0.55052  1.0000
  N   N1        1.0  0.28861  0.12787  0.04009  1.0000
  N   N2        1.0  0.05972  0.21364  0.03588  1.0000
  H   H6        1.0  0.23118  0.19773  0.53691  1.0000
  H   H7        1.0  0.22056  0.25274  0.28864  1.0000
  H   H8        1.0  0.28082  0.10823  0.83963  1.0000
  C   C2        1.0  0.28127  0.10418  0.01977  1.0000
  C   C3        1.0  0.28375  0.27157  0.33596  1.0000
  C   C4        1.0  0.13836  0.23043  0.23143  1.0000
  C   C5        1.0  0.13437  0.24317  0.28171  1.0000
  C   C6        1.0  0.15168  0.24187  0.32591  1.0000
  C   C7        1.0  0.17293  0.22755  0.32040  1.0000
  C   C8        1.0  0.17670  0.21435  0.27068  1.0000
  C   C9        1.0  0.15945  0.21580  0.22626  1.0000
  H   H9        1.0  0.20025  0.27473  0.14683  1.0000
  H   H10       1.0  0.25683  0.16970  0.66813  1.0000
  H   H11       1.0  0.19277  0.20281  0.26655  1.0000
  H   H12       1.0  0.16248  0.20558  0.18788  1.0000
  H   H13       1.0  0.29303  0.14159  0.95522  1.0000
  C   C10       1.0  0.27524  0.11064  0.24067  1.0000
  C   C11       1.0  0.25517  0.11589  0.20524  1.0000
  H   H14       1.0  0.28031  0.22783  0.62024  1.0000
  H   H15       1.0  0.21630  0.20651  0.63593  1.0000
  H   H16       1.0  0.28139  0.12361  0.27095  1.0000
  H   H17       1.0  0.28317  0.20450  0.67212  1.0000
  C   C12       1.0  0.24713  0.09877  0.16676  1.0000
  H   H18       1.0  0.06377  0.18072  0.99028  1.0000
  H   H19       1.0  0.19706  0.27453  0.30420  1.0000
  H   H20       1.0  0.07201  0.18604  0.09361  1.0000
  C   C13       1.0  0.27880  0.20830  0.62674  1.0000
  N   N3        1.0  0.25403  0.19983  0.61154  1.0000
  H   H21       1.0  0.18020  0.27180  0.20739  1.0000
  C   C14       1.0  0.28085  0.07230  0.19446  1.0000
  C   C15       1.0  0.25269  0.17399  0.62283  1.0000
  H   H22       1.0  0.11767  0.25356  0.28732  1.0000
  H   H23       1.0  0.24989  0.22382  0.54038  1.0000
  C   C16       1.0  0.26629  0.14249  0.05237  1.0000
  H   H24       1.0  0.24769  0.25711  0.20592  1.0000
  H   H25       1.0  0.23572  0.23204  0.63856  1.0000
  C   C17       1.0  0.23522  0.21251  0.64613  1.0000
  H   H26       1.0  0.24909  0.27682  0.92673  1.0000
  C   C18       1.0  0.25997  0.07704  0.16134  1.0000
  H   H27       1.0  0.26360  0.19550  0.52348  1.0000
  H   H28       1.0  0.14849  0.25184  0.36459  1.0000
  C   C19       1.0  0.24810  0.26425  0.73445  1.0000
  C   C20       1.0  0.06672  0.20012  0.98433  1.0000
  H   H29       1.0  0.23221  0.25294  0.73267  1.0000
  C   C21       1.0  0.07479  0.20524  0.08455  1.0000
  C   C22       1.0  0.27007  0.25575  0.75894  1.0000
  H   H30       1.0  0.23127  0.10255  0.14015  1.0000
  H   H31       1.0  0.27104  0.16021  0.06975  1.0000
  H   H32       1.0  0.25377  0.06406  0.13125  1.0000
  Fe  Fe5       1.0  0.09276  0.26539  0.17848  1.0000
  Fe  Fe6       1.0  0.28929  0.03683  0.96932  1.0000
  H   H33       1.0  0.25438  0.13383  0.08467  1.0000
  S   S8        1.0  0.28193  0.06426  0.90111  1.0000
  H   H34       1.0  0.27053  0.10546  0.97951  1.0000
  S   S9        1.0  0.27242  0.22623  0.78295  1.0000
  Fe  Fe7       1.0  0.29241  0.03026  0.09700  1.0000
  C   C23       1.0  0.19942  0.26863  0.19183  1.0000
  C   C24       1.0  0.06404  0.23920  0.02606  1.0000
  H   H35       1.0  0.08385  0.24275  0.01761  1.0000
  H   H36       1.0  0.25491  0.14534  0.01356  1.0000
  H   H37       1.0  0.29310  0.11570  0.12611  1.0000
  S   S10       1.0  0.26032  0.03368  0.03733  1.0000
  C   C25       1.0  0.28808  0.08883  0.23528  1.0000
  H   H38       1.0  0.27481  0.25799  0.36066  1.0000
  H   H39       1.0  0.09485  0.20775  0.07665  1.0000
  C   C26       1.0  0.29019  0.27080  0.76317  1.0000
  S   S11       1.0  0.28921  0.17043  0.31672  1.0000
  S   S12       1.0  0.05139  0.26442  0.18453  1.0000
  H   H40       1.0  0.26957  0.09492  0.05149  1.0000
  C   C27       1.0  0.21598  0.27207  0.28634  1.0000
  H   H41       1.0  0.20278  0.24901  0.19231  1.0000
  H   H42       1.0  0.05557  0.20605  0.94695  1.0000
  H   H43       1.0  0.07012  0.21525  0.12408  1.0000
  H   H44       1.0  0.05315  0.24625  0.98934  1.0000
  H   H45       1.0  0.05849  0.24994  0.06370  1.0000
  C   C28       1.0  0.24271  0.27642  0.20472  1.0000
  H   H46       1.0  0.29760  0.09242  0.01142  1.0000
  H   H47       1.0  0.25884  0.32538  0.55393  1.0000
  Fe  Fe8       1.0  0.09388  0.31922  0.16792  1.0000
  S   S13       1.0  0.11794  0.35126  0.16848  1.0000
  H   H48       1.0  0.07214  0.34621  0.35066  1.0000
  H   H49       1.0  0.29352  0.45667  0.28974  1.0000
  C   C29       1.0  0.16449  0.36239  0.13270  1.0000
  N   N4        1.0  0.21759  0.28101  0.22734  1.0000
  Fe  Fe9       1.0  0.27698  0.35445  0.21821  1.0000
  S   S14       1.0  0.09686  0.29452  0.24202  1.0000
  S   S15       1.0  0.27560  0.34222  0.30923  1.0000
  S   S16       1.0  0.25638  0.43603  0.14197  1.0000
  H   H50       1.0  0.27750  0.31050  0.50081  1.0000
  H   H51       1.0  0.06663  0.37111  0.20426  1.0000
  S   S17       1.0  0.24233  0.37094  0.18361  1.0000
  C   C30       1.0  0.28745  0.31305  0.30887  1.0000
  C   C31       1.0  0.29289  0.46670  0.50274  1.0000
  H   H52       1.0  0.21414  0.31432  0.18301  1.0000
  C   C32       1.0  0.27656  0.32608  0.52988  1.0000
  C   C33       1.0  0.15229  0.32177  0.11750  1.0000
  C   C34       1.0  0.27098  0.45893  0.98868  1.0000
  H   H53       1.0  0.08911  0.38917  0.23719  1.0000
  C   C35       1.0  0.29059  0.49423  0.19888  1.0000
  H   H54       1.0  0.22320  0.31693  0.85839  1.0000
  H   H55       1.0  0.16033  0.38016  0.14789  1.0000
  H   H56       1.0  0.25813  0.44820  0.42333  1.0000
  H   H57       1.0  0.09718  0.35782  0.30844  1.0000
  C   C36       1.0  0.27939  0.45543  0.16372  1.0000
  C   C37       1.0  0.27294  0.47899  0.17667  1.0000
  H   H58       1.0  0.25851  0.33586  0.42675  1.0000
  H   H59       1.0  0.25409  0.48530  0.17133  1.0000
  Fe  Fe10      1.0  0.26743  0.39742  0.14340  1.0000
  S   S18       1.0  0.27519  0.49255  0.48944  1.0000
  Fe  Fe11      1.0  0.05559  0.29597  0.24199  1.0000
  H   H60       1.0  0.26198  0.30021  0.37202  1.0000
  H   H61       1.0  0.07445  0.33961  0.27674  1.0000
  H   H62       1.0  0.27671  0.42160  0.41712  1.0000
  H   H63       1.0  0.26013  0.36883  0.56384  1.0000
  H   H64       1.0  0.24416  0.42102  0.40162  1.0000
  N   N5        1.0  0.27881  0.34873  0.49821  1.0000
  N   N6        1.0  0.26630  0.43772  0.33742  1.0000
  H   H65       1.0  0.24014  0.35155  0.47859  1.0000
  C   C38       1.0  0.27665  0.29553  0.34271  1.0000
  H   H66       1.0  0.26004  0.36750  0.43072  1.0000
  C   C39       1.0  0.28937  0.45123  0.33412  1.0000
  N   N7        1.0  0.06191  0.37518  0.29469  1.0000
  S   S19       1.0  0.09320  0.29005  0.10344  1.0000
  C   C40       1.0  0.14678  0.34467  0.13745  1.0000
  Fe  Fe12      1.0  0.05222  0.29180  0.11452  1.0000
  H   H67       1.0  0.17905  0.29900  0.07582  1.0000
  C   C41       1.0  0.24575  0.45241  0.31417  1.0000
  C   C42       1.0  0.07713  0.35386  0.30848  1.0000
  C   C43       1.0  0.21225  0.30688  0.22660  1.0000
  C   C44       1.0  0.28892  0.29381  0.74024  1.0000
  C   C45       1.0  0.26108  0.43178  0.39751  1.0000
  H   H68       1.0  0.22975  0.29391  0.69277  1.0000
  H   H69       1.0  0.22700  0.29818  0.95424  1.0000
  H   H70       1.0  0.22896  0.28123  0.31487  1.0000
  H   H71       1.0  0.26565  0.47620  0.96847  1.0000
  H   H72       1.0  0.26335  0.45910  0.03277  1.0000
  S   S20       1.0  0.28311  0.33005  0.14378  1.0000
  H   H73       1.0  0.05449  0.40990  0.32938  1.0000
  H   H74       1.0  0.27875  0.38625  0.51600  1.0000
  H   H75       1.0  0.13909  0.30786  0.12223  1.0000
  H   H76       1.0  0.27314  0.41969  0.25841  1.0000
  C   C46       1.0  0.24672  0.28740  0.71192  1.0000
  Fe  Fe13      1.0  0.28811  0.51776  0.42165  1.0000
  H   H77       1.0  0.25046  0.32609  0.82108  1.0000
  H   H78       1.0  0.20115  0.37092  0.10454  1.0000
  H   H79       1.0  0.19311  0.31100  0.24133  1.0000
  C   C47       1.0  0.18761  0.35714  0.10831  1.0000
  S   S21       1.0  0.05277  0.32322  0.17249  1.0000
  C   C48       1.0  0.19291  0.33426  0.08789  1.0000
  S   S22       1.0  0.26522  0.33120  0.68768  1.0000
  H   H80       1.0  0.26159  0.44451  0.96528  1.0000
  C   C49       1.0  0.26722  0.30212  0.71443  1.0000
  H   H81       1.0  0.27053  0.45681  0.57460  1.0000
  C   C50       1.0  0.25842  0.35106  0.45689  1.0000
  H   H82       1.0  0.26318  0.33775  0.97459  1.0000
  H   H83       1.0  0.25194  0.40503  0.30474  1.0000
  S   S23       1.0  0.27572  0.51689  0.33099  1.0000
  H   H84       1.0  0.23381  0.34132  0.94122  1.0000
  H   H85       1.0  0.26110  0.35131  0.90515  1.0000
  C   C51       1.0  0.24319  0.31286  0.85207  1.0000
  H   H86       1.0  0.08544  0.39878  0.34017  1.0000
  S   S24       1.0  0.22246  0.32677  0.06236  1.0000
  N   N8        1.0  0.25679  0.31332  0.90642  1.0000
  Fe  Fe14      1.0  0.25036  0.34901  0.10625  1.0000
  H   H87       1.0  0.24442  0.28265  0.15987  1.0000
  C   C52       1.0  0.17509  0.31669  0.09167  1.0000
  C   C53       1.0  0.25364  0.33701  0.93280  1.0000
  H   H88       1.0  0.29157  0.32375  0.56169  1.0000
  S   S25       1.0  0.27209  0.37709  0.06231  1.0000
  H   H89       1.0  0.22794  0.44295  0.31656  1.0000
  H   H90       1.0  0.25683  0.28581  0.22992  1.0000
  C   C54       1.0  0.26907  0.41563  0.30386  1.0000
  H   H91       1.0  0.22527  0.31664  0.25426  1.0000
  H   H92       1.0  0.24351  0.46950  0.33768  1.0000
  C   C55       1.0  0.24698  0.29497  0.94516  1.0000
  H   H93       1.0  0.29414  0.30887  0.93575  1.0000
  C   C56       1.0  0.06923  0.38452  0.23831  1.0000
  C   C57       1.0  0.06575  0.39356  0.33838  1.0000
  H   H94       1.0  0.28442  0.40406  0.32004  1.0000
  H   H95       1.0  0.05822  0.40066  0.22638  1.0000
  H   H96       1.0  0.24895  0.45696  0.26864  1.0000
  H   H97       1.0  0.28541  0.51231  0.21001  1.0000
  H   H98       1.0  0.06044  0.38704  0.38144  1.0000
  C   C58       1.0  0.27751  0.36885  0.53845  1.0000
  C   C59       1.0  0.28328  0.30841  0.89565  1.0000
  H   H99       1.0  0.25663  0.29498  0.98693  1.0000
  C   C60       1.0  0.28626  0.45203  0.54824  1.0000
  H   H100      1.0  0.29119  0.32169  0.86577  1.0000
  H   H101      1.0  0.28628  0.29051  0.87635  1.0000
  H   H102      1.0  0.24474  0.29504  0.83185  1.0000
  H   H103      1.0  0.28808  0.46776  0.35982  1.0000
  H   H104      1.0  0.29302  0.36800  0.56915  1.0000
  H   H105      1.0  0.29457  0.42011  0.59526  1.0000
  H   H106      1.0  0.29575  0.43013  0.05780  1.0000
  N   N9        1.0  0.29805  0.45519  0.98882  1.0000
  H   H107      1.0  0.29716  0.41694  0.98871  1.0000
  Fe  Fe15      1.0  0.27195  0.55647  0.33864  1.0000
  S   S26       1.0  0.24116  0.57818  0.30056  1.0000
  S   S27       1.0  0.14361  0.68013  0.54691  1.0000
  H   H108      1.0  0.24169  0.77556  0.67872  1.0000
  Fe  Fe16      1.0  0.16897  0.65920  0.48959  1.0000
  S   S28       1.0  0.16163  0.68189  0.41236  1.0000
  S   S29       1.0  0.17087  0.61930  0.49218  1.0000
  Fe  Fe17      1.0  0.13920  0.70473  0.47217  1.0000
  S   S30       1.0  0.10266  0.72280  0.45445  1.0000
  Fe  Fe18      1.0  0.19345  0.70299  0.44411  1.0000
  Fe  Fe19      1.0  0.17687  0.70156  0.56696  1.0000
  S   S31       1.0  0.20268  0.67847  0.51648  1.0000
  C   C61       1.0  0.10456  0.74106  0.39412  1.0000
  C   C62       1.0  0.25789  0.62736  0.47051  1.0000
  H   H109      1.0  0.14993  0.77191  0.55923  1.0000
  C   C63       1.0  0.28913  0.76109  0.03008  1.0000
  H   H110      1.0  0.18136  0.73631  0.76234  1.0000
  C   C64       1.0  0.27997  0.62499  0.38139  1.0000
  S   S32       1.0  0.22540  0.71447  0.39105  1.0000
  H   H111      1.0  0.14063  0.75051  0.27770  1.0000
  S   S33       1.0  0.17040  0.72797  0.49679  1.0000
  H   H112      1.0  0.29741  0.73099  0.75388  1.0000
  H   H113      1.0  0.05655  0.68665  0.35553  1.0000
  C   C65       1.0  0.22036  0.58861  0.35237  1.0000
  C   C66       1.0  0.21681  0.57591  0.40293  1.0000
  C   C67       1.0  0.20101  0.58511  0.44519  1.0000
  C   C68       1.0  0.18928  0.60730  0.43755  1.0000
  C   C69       1.0  0.19283  0.61993  0.38691  1.0000
  C   C70       1.0  0.20805  0.61042  0.34401  1.0000
  H   H114      1.0  0.22596  0.55885  0.40918  1.0000
  H   H115      1.0  0.19820  0.57524  0.48422  1.0000
  H   H116      1.0  0.18363  0.63690  0.38044  1.0000
  H   H117      1.0  0.21068  0.62023  0.30481  1.0000
  C   C71       1.0  0.28247  0.73874  0.51909  1.0000
  C   C72       1.0  0.12165  0.73846  0.60766  1.0000
  H   H118      1.0  0.22081  0.74188  0.49375  1.0000
  H   H119      1.0  0.24482  0.67072  0.43266  1.0000
  H   H120      1.0  0.19437  0.75154  0.58580  1.0000
  H   H121      1.0  0.27817  0.70850  0.39432  1.0000
  H   H122      1.0  0.25621  0.73485  0.80013  1.0000
  C   C73       1.0  0.12491  0.73934  0.35759  1.0000
  C   C74       1.0  0.25307  0.75145  0.77503  1.0000
  H   H123      1.0  0.23660  0.64909  0.38090  1.0000
  C   C75       1.0  0.12979  0.77330  0.55061  1.0000
  C   C76       1.0  0.12511  0.75234  0.30653  1.0000
  H   H124      1.0  0.26780  0.72886  0.64501  1.0000
  C   C77       1.0  0.08490  0.75653  0.38076  1.0000
  C   C78       1.0  0.25751  0.74459  0.52710  1.0000
  C   C79       1.0  0.28975  0.72517  0.47192  1.0000
  H   H125      1.0  0.05178  0.71799  0.36596  1.0000
  C   C80       1.0  0.26161  0.77307  0.68843  1.0000
  C   C81       1.0  0.24000  0.73718  0.48756  1.0000
  H   H126      1.0  0.25898  0.76667  0.80157  1.0000
  C   C82       1.0  0.27236  0.71856  0.43124  1.0000
  H   H127      1.0  0.12624  0.76335  0.51063  1.0000
  C   C83       1.0  0.13449  0.77610  0.00818  1.0000
  H   H128      1.0  0.25005  0.63911  0.50433  1.0000
  C   C84       1.0  0.24695  0.74720  0.02835  1.0000
  N   N10       1.0  0.27036  0.64127  0.42574  1.0000
  H   H129      1.0  0.07603  0.69028  0.23355  1.0000
  H   H130      1.0  0.23361  0.73386  0.03942  1.0000
  H   H131      1.0  0.14027  0.72759  0.36788  1.0000
  C   C85       1.0  0.08865  0.76625  0.58534  1.0000
  N   N11       1.0  0.11521  0.76385  0.59864  1.0000
  C   C86       1.0  0.24744  0.72447  0.43921  1.0000
  H   H132      1.0  0.25167  0.75513  0.56321  1.0000
  C   C87       1.0  0.05883  0.70440  0.33534  1.0000
  H   H133      1.0  0.29272  0.61127  0.39968  1.0000
  C   C88       1.0  0.25768  0.73036  0.68615  1.0000
  H   H134      1.0  0.29017  0.63476  0.34774  1.0000
  H   H135      1.0  0.11164  0.73086  0.64468  1.0000
  H   H136      1.0  0.15237  0.76895  0.99127  1.0000
  C   C89       1.0  0.29313  0.74779  0.73044  1.0000
  H   H137      1.0  0.06928  0.75817  0.40932  1.0000
  H   H138      1.0  0.26028  0.71319  0.70922  1.0000
  C   C90       1.0  0.18679  0.77319  0.74124  1.0000
  H   H139      1.0  0.13679  0.75760  0.11400  1.0000
  C   C91       1.0  0.18468  0.74900  0.72852  1.0000
  C   C92       1.0  0.18703  0.74117  0.67236  1.0000
  H   H140      1.0  0.26108  0.66921  0.36617  1.0000
  C   C93       1.0  0.29099  0.65445  0.45090  1.0000
  S   S34       1.0  0.18474  0.71078  0.65803  1.0000
  C   C94       1.0  0.10500  0.76710  0.29205  1.0000
  H   H141      1.0  0.24231  0.61719  0.45266  1.0000
  C   C95       1.0  0.14899  0.77290  0.10505  1.0000
  C   C96       1.0  0.19157  0.75756  0.62887  1.0000
  C   C97       1.0  0.27168  0.74401  0.04431  1.0000
  H   H142      1.0  0.28432  0.66720  0.48394  1.0000
  H   H143      1.0  0.27730  0.72819  0.06767  1.0000
  H   H144      1.0  0.07707  0.75904  0.62033  1.0000
  H   H145      1.0  0.27079  0.61430  0.49090  1.0000
  C   C98       1.0  0.23954  0.76742  0.99766  1.0000
  N   N12       1.0  0.26636  0.75066  0.72002  1.0000
  H   H146      1.0  0.06947  0.73356  0.24775  1.0000
  H   H147      1.0  0.08405  0.75633  0.54586  1.0000
  H   H148      1.0  0.14169  0.73582  0.61570  1.0000
  H   H149      1.0  0.16723  0.76564  0.09067  1.0000
  H   H150      1.0  0.23772  0.73225  0.67588  1.0000
  C   C99       1.0  0.25249  0.65829  0.40017  1.0000
  C   C100      1.0  0.08517  0.76958  0.32986  1.0000
  H   H151      1.0  0.26478  0.61547  0.36014  1.0000
  H   H152      1.0  0.11707  0.72761  0.56982  1.0000
  H   H153      1.0  0.12188  0.76088  0.01408  1.0000
  H   H154      1.0  0.07900  0.70719  0.33020  1.0000
  H   H155      1.0  0.05338  0.66966  0.25836  1.0000
  S   S35       1.0  0.20844  0.77102  0.97784  1.0000
  H   H156      1.0  0.27175  0.77328  0.64715  1.0000
  H   H157      1.0  0.10989  0.77087  0.68783  1.0000
  H   H158      1.0  0.23285  0.75351  0.76863  1.0000
  C   C101      1.0  0.05591  0.68791  0.24101  1.0000
  C   C102      1.0  0.12076  0.77733  0.65081  1.0000
  H   H159      1.0  0.14060  0.77547  0.66238  1.0000
  S   S36       1.0  0.28023  0.55680  0.43169  1.0000
  H   H160      1.0  0.18532  0.77900  0.78482  1.0000
  C   C103      1.0  0.04957  0.73002  0.25522  1.0000
  S   S37       1.0  0.04868  0.77013  0.13125  1.0000
  C   C104      1.0  0.19099  0.78964  0.69774  1.0000
  H   H161      1.0  0.12627  0.78789  0.97482  1.0000
  S   S38       1.0  0.29177  0.99766  0.95135  1.0000
  S   S39       1.0  0.06057  0.82689  0.14801  1.0000
  H   H162      1.0  0.11661  0.79667  0.64536  1.0000
  C   C105      1.0  0.28800  0.82753  0.10307  1.0000
  H   H163      1.0  0.15169  0.78216  0.14633  1.0000
  C   C106      1.0  0.28177  0.78146  0.99972  1.0000
  C   C107      1.0  0.25698  0.78459  0.98348  1.0000
  S   S40       1.0  0.10438  0.78116  0.22527  1.0000
  N   N13       1.0  0.26513  0.84197  0.10995  1.0000
  H   H164      1.0  0.25338  0.87873  0.10295  1.0000
  H   H165      1.0  0.29634  0.83022  0.06022  1.0000
  S   S41       1.0  0.29439  0.99070  0.09094  1.0000
  S   S42       1.0  0.23399  0.96858  0.02704  1.0000
  H   H166      1.0  0.21067  0.95306  0.83960  1.0000
  H   H167      1.0  0.14236  0.95436  0.85481  1.0000
  Fe  Fe20      1.0  0.20305  0.80321  0.92295  1.0000
  S   S43       1.0  0.23001  0.81387  0.85568  1.0000
  Fe  Fe21      1.0  0.17157  0.84806  0.90930  1.0000
  S   S44       1.0  0.19636  0.86309  0.84215  1.0000
  S   S45       1.0  0.14038  0.86939  0.94767  1.0000
  Fe  Fe22      1.0  0.19646  0.82591  0.80747  1.0000
  S   S46       1.0  0.19422  0.81979  0.71345  1.0000
  Fe  Fe23      1.0  0.22730  0.84960  0.89712  1.0000
  S   S47       1.0  0.26155  0.86955  0.91740  1.0000
  S   S48       1.0  0.16937  0.81170  0.87111  1.0000
  S   S49       1.0  0.20257  0.83807  0.96751  1.0000
  C   C108      1.0  0.11305  0.85336  0.95526  1.0000
  C   C109      1.0  0.10852  0.83367  0.92092  1.0000
  C   C110      1.0  0.08760  0.81989  0.93049  1.0000
  H   H168      1.0  0.20219  0.92260  0.82826  1.0000
  H   H169      1.0  0.22925  0.84479  0.07227  1.0000
  H   H170      1.0  0.12099  0.82914  0.88668  1.0000
  H   H171      1.0  0.26880  0.84424  0.20073  1.0000
  C   C111      1.0  0.16803  0.92055  0.91046  1.0000
  C   C112      1.0  0.09604  0.85983  0.99764  1.0000
  H   H172      1.0  0.26739  0.78885  0.71312  1.0000
  H   H173      1.0  0.19140  0.95515  0.96422  1.0000
  H   H174      1.0  0.19691  0.79451  0.60778  1.0000
  C   C113      1.0  0.07517  0.84596  0.00743  1.0000
  C   C114      1.0  0.16130  0.95056  0.83831  1.0000
  H   H175      1.0  0.18812  0.97752  0.91049  1.0000
  H   H176      1.0  0.25142  0.80036  0.96030  1.0000
  H   H177      1.0  0.21591  0.93128  0.89398  1.0000
  C   C115      1.0  0.07125  0.82563  0.97478  1.0000
  H   H178      1.0  0.09925  0.87523  0.02384  1.0000
  H   H179      1.0  0.16808  0.96713  0.81794  1.0000
  C   C116      1.0  0.24284  0.94026  0.00248  1.0000
  C   C117      1.0  0.22650  0.92135  0.00734  1.0000
  C   C118      1.0  0.23224  0.89940  0.98184  1.0000
  C   C119      1.0  0.25460  0.89619  0.95276  1.0000
  C   C120      1.0  0.27140  0.91469  0.95043  1.0000
  C   C121      1.0  0.26544  0.93673  0.97486  1.0000
  H   H180      1.0  0.20914  0.92388  0.02955  1.0000
  H   H181      1.0  0.21921  0.88517  0.98418  1.0000
  H   H182      1.0  0.28862  0.91231  0.92790  1.0000
  H   H183      1.0  0.27814  0.95112  0.97101  1.0000
  H   H184      1.0  0.18037  0.91332  0.94433  1.0000
  H   H185      1.0  0.15972  0.93685  0.80449  1.0000
  H   H186      1.0  0.25366  0.83679  0.02370  1.0000
  H   H187      1.0  0.16128  0.96601  0.94577  1.0000
  H   H188      1.0  0.06219  0.85094  0.04045  1.0000
  H   H189      1.0  0.24229  0.81516  0.07345  1.0000
  H   H190      1.0  0.16576  0.90619  0.87853  1.0000
  H   H191      1.0  0.15726  0.81973  0.09141  1.0000
  C   C122      1.0  0.17971  0.96109  0.92793  1.0000
  H   H192      1.0  0.14960  0.92384  0.93027  1.0000
  H   H193      1.0  0.28455  0.80816  0.10805  1.0000
  H   H194      1.0  0.23801  0.84933  0.17476  1.0000
  H   H195      1.0  0.28366  0.87409  0.13228  1.0000
  H   H196      1.0  0.25098  0.81964  0.17646  1.0000
  N   N14       1.0  0.17796  0.94233  0.88429  1.0000
  C   C123      1.0  0.27040  0.86739  0.10035  1.0000
  H   H197      1.0  0.12524  0.79237  0.54224  1.0000
  C   C124      1.0  0.25526  0.83864  0.16807  1.0000
  C   C125      1.0  0.24675  0.83430  0.06803  1.0000
  C   C126      1.0  0.20273  0.93709  0.86036  1.0000
  H   H198      1.0  0.27867  0.87035  0.05745  1.0000
  Fe  Fe24      1.0  0.26526  0.99435  0.02442  1.0000
  C   C127      1.0  0.19325  0.78184  0.64144  1.0000
  H   H199      1.0  0.29517  0.79461  0.98814  1.0000
  H   H200      1.0  0.17298  0.80295  0.03674  1.0000
  H   H201      1.0  0.14686  0.82170  0.01914  1.0000
  C   C128      1.0  0.11391  0.79821  0.08288  1.0000
  H   H202      1.0  0.10512  0.81044  0.05161  1.0000
  H   H203      1.0  0.08442  0.80437  0.90463  1.0000
  C   C129      1.0  0.15454  0.80927  0.05192  1.0000
  Fe  Fe25      1.0  0.06646  0.79293  0.19662  1.0000
  N   N15       1.0  0.13799  0.78910  0.06201  1.0000
  H   H204      1.0  0.11585  0.80825  0.12329  1.0000
  H   H205      1.0  0.08306  0.78519  0.57845  1.0000
  H   H206      1.0  0.10087  0.78353  0.09108  1.0000
  H   H207      1.0  0.07001  0.78152  0.31993  1.0000
  H   H208      1.0  0.45161  0.25399  0.60691  1.0000
  H   H209      1.0  0.32062  0.12936  0.98630  1.0000
  C   C130      1.0  0.33620  0.19308  0.51724  1.0000
  C   C131      1.0  0.34315  0.18425  0.57073  1.0000
  H   H210      1.0  0.39258  0.23555  0.67433  1.0000
  H   H211      1.0  0.34501  0.20863  0.49990  1.0000
  H   H212      1.0  0.41283  0.15809  0.83730  1.0000
  Fe  Fe26      1.0  0.31210  0.21368  0.78291  1.0000
  C   C132      1.0  0.33185  0.16405  0.59279  1.0000
  C   C133      1.0  0.31714  0.18235  0.48699  1.0000
  H   H213      1.0  0.30877  0.14259  0.11002  1.0000
  N   N16       1.0  0.41219  0.25767  0.61553  1.0000
  H   H214      1.0  0.40897  0.20761  0.88930  1.0000
  H   H215      1.0  0.36399  0.09814  0.92436  1.0000
  S   S50       1.0  0.32333  0.17853  0.74447  1.0000
  C   C134      1.0  0.40716  0.24180  0.56707  1.0000
  Fe  Fe27      1.0  0.34921  0.17568  0.81900  1.0000
  S   S51       1.0  0.34038  0.23463  0.73576  1.0000
  S   S52       1.0  0.33517  0.20897  0.86134  1.0000
  H   H216      1.0  0.43089  0.26957  0.91201  1.0000
  H   H217      1.0  0.37445  0.25926  0.64409  1.0000
  C   C135      1.0  0.34586  0.10037  0.90578  1.0000
  C   C136      1.0  0.33984  0.12117  0.87546  1.0000
  C   C137      1.0  0.39320  0.25440  0.65998  1.0000
  S   S53       1.0  0.32111  0.03636  0.03007  1.0000
  N   N17       1.0  0.42903  0.17535  0.90922  1.0000
  S   S54       1.0  0.38033  0.19346  0.77401  1.0000
  H   H218      1.0  0.42036  0.24453  0.53144  1.0000
  C   C138      1.0  0.31645  0.12390  0.85119  1.0000
  Fe  Fe28      1.0  0.36449  0.22706  0.81075  1.0000
  S   S55       1.0  0.36123  0.14413  0.87185  1.0000
  Fe  Fe29      1.0  0.35350  0.19936  0.70329  1.0000
  Fe  Fe30      1.0  0.52304  0.26486  0.81249  1.0000
  C   C139      1.0  0.31318  0.15303  0.56203  1.0000
  H   H219      1.0  0.33754  0.15684  0.63348  1.0000
  H   H220      1.0  0.40866  0.22273  0.57988  1.0000
  H   H221      1.0  0.38813  0.24472  0.55037  1.0000
  H   H222      1.0  0.46861  0.17589  0.91679  1.0000
  S   S56       1.0  0.36467  0.19949  0.61148  1.0000
  C   C140      1.0  0.43679  0.25174  0.63922  1.0000
  H   H223      1.0  0.30668  0.26490  0.78498  1.0000
  H   H224      1.0  0.43778  0.23299  0.65462  1.0000
  H   H225      1.0  0.47543  0.26133  0.89522  1.0000
  H   H226      1.0  0.33318  0.06646  0.93575  1.0000
  H   H227      1.0  0.45758  0.21933  0.74947  1.0000
  H   H228      1.0  0.40670  0.19844  0.96212  1.0000
  H   H229      1.0  0.40898  0.14473  0.93670  1.0000
  C   C141      1.0  0.45209  0.18766  0.92320  1.0000
  H   H230      1.0  0.32065  0.11440  0.08438  1.0000
  H   H231      1.0  0.42530  0.15960  0.99223  1.0000
  C   C142      1.0  0.43671  0.25935  0.87536  1.0000
  S   S57       1.0  0.31039  0.23539  0.28493  1.0000
  S   S58       1.0  0.50036  0.23198  0.81202  1.0000
  C   C143      1.0  0.46187  0.25456  0.86609  1.0000
  C   C144      1.0  0.42995  0.16753  0.84927  1.0000
  C   C145      1.0  0.42624  0.15438  0.94665  1.0000
  S   S59       1.0  0.38767  0.25457  0.85306  1.0000
  C   C146      1.0  0.46934  0.23998  0.82091  1.0000
  C   C147      1.0  0.32838  0.08249  0.91264  1.0000
  H   H232      1.0  0.39001  0.18312  0.90803  1.0000
  C   C148      1.0  0.41911  0.25013  0.83853  1.0000
  C   C149      1.0  0.42671  0.23613  0.79250  1.0000
  C   C150      1.0  0.45175  0.23068  0.78428  1.0000
  H   H233      1.0  0.39667  0.26563  0.69799  1.0000
  H   H234      1.0  0.45461  0.20360  0.89569  1.0000
  H   H235      1.0  0.41334  0.22944  0.76329  1.0000
  H   H236      1.0  0.43197  0.18291  0.81976  1.0000
  H   H237      1.0  0.44581  0.15512  0.84137  1.0000
  H   H238      1.0  0.45213  0.19384  0.96810  1.0000
  C   C151      1.0  0.40777  0.19183  0.91763  1.0000
  H   H239      1.0  0.44194  0.14152  0.94145  1.0000
  H   H240      1.0  0.31142  0.18955  0.44630  1.0000
  H   H241      1.0  0.31165  0.13994  0.82793  1.0000
  C   C152      1.0  0.30350  0.12507  0.09234  1.0000
  H   H242      1.0  0.44120  0.26330  0.67602  1.0000
  C   C153      1.0  0.29900  0.10599  0.85795  1.0000
  H   H243      1.0  0.30893  0.15782  0.00923  1.0000
  H   H244      1.0  0.32813  0.27814  0.23485  1.0000
  C   C154      1.0  0.30219  0.26525  0.29672  1.0000
  C   C155      1.0  0.30536  0.16253  0.50983  1.0000
  H   H245      1.0  0.30435  0.13747  0.57937  1.0000
  C   C156      1.0  0.30484  0.08537  0.88919  1.0000
  C   C157      1.0  0.30343  0.13972  0.99581  1.0000
  H   H246      1.0  0.30406  0.08513  0.26155  1.0000
  S   S60       1.0  0.29900  0.04662  0.18253  1.0000
  H   H247      1.0  0.43140  0.31222  0.90392  1.0000
  S   S61       1.0  0.51268  0.29776  0.86159  1.0000
  H   H248      1.0  0.34227  0.43442  0.45363  1.0000
  S   S62       1.0  0.33571  0.50344  0.24430  1.0000
  H   H249      1.0  0.42568  0.33311  0.84759  1.0000
  H   H250      1.0  0.54282  0.36742  0.71315  1.0000
  C   C158      1.0  0.29995  0.43123  0.56018  1.0000
  H   H251      1.0  0.30549  0.44059  0.34986  1.0000
  H   H252      1.0  0.42532  0.28576  0.56154  1.0000
  C   C159      1.0  0.30411  0.43184  0.01484  1.0000
  C   C160      1.0  0.30963  0.47428  0.02196  1.0000
  C   C161      1.0  0.31481  0.48604  0.20736  1.0000
  C   C162      1.0  0.32168  0.46298  0.19075  1.0000
  H   H253      1.0  0.34048  0.45669  0.19692  1.0000
  H   H254      1.0  0.42035  0.34268  0.97377  1.0000
  H   H255      1.0  0.41578  0.29503  0.63114  1.0000
  H   H256      1.0  0.39818  0.30366  0.97396  1.0000
  C   C163      1.0  0.30744  0.45567  0.92972  1.0000
  C   C164      1.0  0.32017  0.42479  0.52623  1.0000
  C   C165      1.0  0.38462  0.31194  0.94410  1.0000
  S   S63       1.0  0.33703  0.39833  0.53930  1.0000
  C   C166      1.0  0.32662  0.43932  0.48012  1.0000
  Fe  Fe31      1.0  0.31531  0.52455  0.31077  1.0000
  H   H257      1.0  0.31852  0.34699  0.49739  1.0000
  H   H258      1.0  0.39302  0.28792  0.57938  1.0000
  C   C167      1.0  0.54767  0.33412  0.63147  1.0000
  H   H259      1.0  0.30409  0.33432  0.43577  1.0000
  H   H260      1.0  0.41030  0.30505  0.84797  1.0000
  S   S64       1.0  0.38559  0.31635  0.72077  1.0000
  N   N18       1.0  0.39615  0.33039  0.90834  1.0000
  H   H261      1.0  0.38571  0.35409  0.83998  1.0000
  S   S65       1.0  0.33993  0.35631  0.05766  1.0000
  C   C168      1.0  0.30268  0.34895  0.46755  1.0000
  C   C169      1.0  0.31873  0.36705  0.95508  1.0000
  S   S66       1.0  0.32660  0.34902  0.77110  1.0000
  Fe  Fe32      1.0  0.33014  0.38806  0.75479  1.0000
  S   S67       1.0  0.33163  0.41364  0.82754  1.0000
  H   H262      1.0  0.45341  0.37296  0.71340  1.0000
  H   H263      1.0  0.33004  0.47183  0.02383  1.0000
  C   C170      1.0  0.33727  0.37234  0.99403  1.0000
  C   C171      1.0  0.35390  0.39040  0.98182  1.0000
  C   C172      1.0  0.35197  0.40321  0.93075  1.0000
  C   C173      1.0  0.33369  0.39767  0.89138  1.0000
  H   H264      1.0  0.30361  0.47312  0.90879  1.0000
  H   H265      1.0  0.40973  0.36157  0.70343  1.0000
  H   H266      1.0  0.36814  0.39462  0.01215  1.0000
  H   H267      1.0  0.37022  0.32624  0.84041  1.0000
  C   C174      1.0  0.37763  0.34036  0.86841  1.0000
  C   C175      1.0  0.41681  0.31971  0.87561  1.0000
  Fe  Fe33      1.0  0.35690  0.34518  0.70630  1.0000
  H   H268      1.0  0.32437  0.42913  0.01965  1.0000
  H   H269      1.0  0.39065  0.35703  0.97252  1.0000
  H   H270      1.0  0.36912  0.31952  0.96998  1.0000
  S   S68       1.0  0.33111  0.34255  0.63256  1.0000
  H   H271      1.0  0.36183  0.34878  0.89142  1.0000
  C   C176      1.0  0.40553  0.34947  0.94500  1.0000
  S   S69       1.0  0.36239  0.38437  0.69516  1.0000
  C   C177      1.0  0.52547  0.37033  0.60667  1.0000
  Fe  Fe34      1.0  0.33350  0.38227  0.62707  1.0000
  H   H272      1.0  0.36486  0.41718  0.92140  1.0000
  H   H273      1.0  0.30596  0.35305  0.96457  1.0000
  H   H274      1.0  0.51933  0.36256  0.56576  1.0000
  H   H275      1.0  0.37709  0.29740  0.91760  1.0000
  H   H276      1.0  0.42905  0.28989  0.75184  1.0000
  H   H277      1.0  0.41323  0.36427  0.91925  1.0000
  H   H278      1.0  0.32347  0.49208  0.58409  1.0000
  H   H279      1.0  0.30279  0.37545  0.87320  1.0000
  Fe  Fe35      1.0  0.30122  0.34985  0.69610  1.0000
  C   C178      1.0  0.30625  0.30680  0.27067  1.0000
  H   H280      1.0  0.30522  0.36600  0.44414  1.0000
  H   H281      1.0  0.35920  0.52076  0.65782  1.0000
  H   H282      1.0  0.29879  0.44173  0.90325  1.0000
  H   H283      1.0  0.52631  0.38996  0.60108  1.0000
  Fe  Fe36      1.0  0.52068  0.31647  0.77945  1.0000
  S   S70       1.0  0.49683  0.34621  0.74492  1.0000
  H   H284      1.0  0.47277  0.30117  0.76129  1.0000
  H   H285      1.0  0.31860  0.47172  0.43381  1.0000
  C   C179      1.0  0.46600  0.33783  0.73785  1.0000
  C   C180      1.0  0.45910  0.31436  0.74836  1.0000
  C   C181      1.0  0.43437  0.30794  0.74253  1.0000
  C   C182      1.0  0.41643  0.32496  0.72671  1.0000
  C   C183      1.0  0.42335  0.34839  0.71614  1.0000
  C   C184      1.0  0.44812  0.35480  0.72157  1.0000
  H   H286      1.0  0.53345  0.32956  0.66374  1.0000
  H   H287      1.0  0.35659  0.49192  0.57861  1.0000
  C   C185      1.0  0.31706  0.37958  0.90345  1.0000
  H   H288      1.0  0.30932  0.42977  0.15776  1.0000
  H   H289      1.0  0.30561  0.49214  0.00327  1.0000
  H   H290      1.0  0.32774  0.45228  0.92808  1.0000
  H   H291      1.0  0.30274  0.47462  0.06657  1.0000
  C   C186      1.0  0.41157  0.28267  0.59586  1.0000
  S   S71       1.0  0.52810  0.28344  0.72892  1.0000
  C   C187      1.0  0.31318  0.46040  0.46875  1.0000
  S   S72       1.0  0.32803  0.52209  0.40127  1.0000
  H   H292      1.0  0.30481  0.30503  0.74253  1.0000
  Fe  Fe37      1.0  0.30448  0.36011  0.10644  1.0000
  S   S73       1.0  0.30166  0.38942  0.68604  1.0000
  C   C188      1.0  0.30392  0.44761  0.16942  1.0000
  H   H293      1.0  0.51088  0.36677  0.63891  1.0000
  S   S74       1.0  0.30167  0.38275  0.18477  1.0000
  C   C189      1.0  0.31377  0.28296  0.26500  1.0000
  H   H294      1.0  0.32616  0.52058  0.66465  1.0000
  C   C190      1.0  0.33942  0.50133  0.56453  1.0000
  H   H295      1.0  0.31493  0.32032  0.24503  1.0000
  H   H296      1.0  0.33800  0.49899  0.51769  1.0000
  H   H297      1.0  0.54258  0.32538  0.59092  1.0000
  N   N19       1.0  0.33945  0.52681  0.57981  1.0000
  C   C191      1.0  0.34176  0.52920  0.64213  1.0000
  H   H298      1.0  0.35919  0.53713  0.50431  1.0000
  Fe  Fe38      1.0  0.31943  0.56124  0.40440  1.0000
  C   C192      1.0  0.46844  0.74851  0.75935  1.0000
  H   H299      1.0  0.36025  0.74645  0.15528  1.0000
  S   S75       1.0  0.30459  0.74887  0.56712  1.0000
  Fe  Fe39      1.0  0.36837  0.71543  0.43635  1.0000
  N   N20       1.0  0.35033  0.73942  0.24250  1.0000
  S   S76       1.0  0.34575  0.74914  0.43118  1.0000
  S   S77       1.0  0.34161  0.58473  0.46107  1.0000
  H   H300      1.0  0.31376  0.53657  0.51438  1.0000
  Fe  Fe40      1.0  0.34164  0.74462  0.52541  1.0000
  C   C193      1.0  0.41227  0.77721  0.32200  1.0000
  C   C194      1.0  0.34316  0.61903  0.37705  1.0000
  S   S78       1.0  0.36178  0.68832  0.36797  1.0000
  C   C195      1.0  0.43414  0.72244  0.74607  1.0000
  C   C196      1.0  0.37466  0.72887  0.25729  1.0000
  Fe  Fe41      1.0  0.38057  0.76769  0.45163  1.0000
  C   C197      1.0  0.36309  0.65301  0.44940  1.0000
  S   S79       1.0  0.37448  0.76657  0.54588  1.0000
  C   C198      1.0  0.34759  0.64212  0.35697  1.0000
  H   H301      1.0  0.33575  0.60595  0.34868  1.0000
  H   H302      1.0  0.34340  0.64673  0.31328  1.0000
  H   H303      1.0  0.37139  0.66579  0.47714  1.0000
  C   C199      1.0  0.33075  0.72700  0.27416  1.0000
  H   H304      1.0  0.50679  0.76037  0.60949  1.0000
  C   C200      1.0  0.36046  0.53844  0.55150  1.0000
  S   S80       1.0  0.36190  0.70966  0.52961  1.0000
  H   H305      1.0  0.42048  0.71052  0.76622  1.0000
  H   H306      1.0  0.32775  0.74441  0.16825  1.0000
  H   H307      1.0  0.38973  0.73715  0.23228  1.0000
  C   C201      1.0  0.34981  0.76492  0.25767  1.0000
  H   H308      1.0  0.35332  0.76753  0.30390  1.0000
  C   C202      1.0  0.34837  0.61300  0.43360  1.0000
  C   C203      1.0  0.35857  0.62997  0.46954  1.0000
  C   C204      1.0  0.35734  0.65923  0.39329  1.0000
  H   H309      1.0  0.31561  0.55767  0.57058  1.0000
  H   H310      1.0  0.42149  0.73637  0.85071  1.0000
  H   H311      1.0  0.36295  0.62536  0.51312  1.0000
  C   C205      1.0  0.48700  0.76300  0.61217  1.0000
  H   H312      1.0  0.47561  0.70294  0.78974  1.0000
  H   H313      1.0  0.33322  0.72871  0.32090  1.0000
  H   H314      1.0  0.36093  0.55779  0.56156  1.0000
  H   H315      1.0  0.34176  0.54826  0.65493  1.0000
  S   S81       1.0  0.31988  0.75633  0.05116  1.0000
  H   H316      1.0  0.45140  0.70199  0.84225  1.0000
  H   H317      1.0  0.42364  0.73641  0.72205  1.0000
  C   C206      1.0  0.43578  0.76972  0.61532  1.0000
  C   C207      1.0  0.47147  0.74343  0.60764  1.0000
  H   H318      1.0  0.34673  0.71795  0.16749  1.0000
  H   H319      1.0  0.30369  0.74720  0.68969  1.0000
  H   H320      1.0  0.37537  0.70938  0.24894  1.0000
  H   H321      1.0  0.41703  0.76408  0.35386  1.0000
  S   S82       1.0  0.40398  0.73448  0.44778  1.0000
  Fe  Fe42      1.0  0.39547  0.73189  0.54104  1.0000
  H   H322      1.0  0.30474  0.64214  0.47105  1.0000
  C   C208      1.0  0.43574  0.74727  0.82935  1.0000
  H   H323      1.0  0.37886  0.73125  0.30327  1.0000
  H   H324      1.0  0.47696  0.72155  0.85151  1.0000
  C   C209      1.0  0.34611  0.73693  0.18075  1.0000
  H   H325      1.0  0.44748  0.75475  0.86330  1.0000
  S   S83       1.0  0.42656  0.72244  0.60021  1.0000
  H   H326      1.0  0.47932  0.72573  0.60217  1.0000
  C   C210      1.0  0.44584  0.74683  0.60837  1.0000
  H   H327      1.0  0.33101  0.70760  0.26470  1.0000
  H   H328      1.0  0.44474  0.71174  0.71418  1.0000
  S   S84       1.0  0.31069  0.56426  0.31142  1.0000
  N   N21       1.0  0.45061  0.73306  0.78856  1.0000
  C   C211      1.0  0.46421  0.71399  0.81940  1.0000
  H   H329      1.0  0.47945  0.73847  0.72707  1.0000
  S   S85       1.0  0.52995  0.76679  0.72160  1.0000
  H   H330      1.0  0.45903  0.76361  0.73692  1.0000
  H   H331      1.0  0.43190  0.75879  0.25498  1.0000
  H   H332      1.0  0.30097  0.66494  0.41808  1.0000
  H   H333      1.0  0.41604  0.77239  0.61755  1.0000
  C   C212      1.0  0.42085  0.77432  0.26616  1.0000
  S   S86       1.0  0.38602  0.77838  0.01870  1.0000
  H   H334      1.0  0.30873  0.71951  0.46695  1.0000
  H   H335      1.0  0.48177  0.75610  0.78988  1.0000
  H   H336      1.0  0.31209  0.73427  0.26356  1.0000
  H   H337      1.0  0.42606  0.76249  0.80796  1.0000
  H   H338      1.0  0.33167  0.77345  0.24754  1.0000
  H   H339      1.0  0.45572  0.77354  0.50339  1.0000
  C   C213      1.0  0.31611  0.53828  0.56099  1.0000
  H   H340      1.0  0.45958  0.76389  0.43137  1.0000
  S   S87       1.0  0.51152  0.77897  0.88342  1.0000
  C   C214      1.0  0.45309  0.77899  0.45831  1.0000
  H   H341      1.0  0.36419  0.77477  0.23395  1.0000
  H   H342      1.0  0.30031  0.76282  0.75577  1.0000
  H   H343      1.0  0.37843  0.53027  0.56443  1.0000
  H   H344      1.0  0.29975  0.52997  0.58118  1.0000
  H   H345      1.0  0.30239  0.90961  0.07159  1.0000
  C   C215      1.0  0.46322  0.80710  0.38426  1.0000
  N   N22       1.0  0.46639  0.80107  0.44510  1.0000
  H   H346      1.0  0.38190  0.83034  0.30654  1.0000
  C   C216      1.0  0.45625  0.82074  0.48015  1.0000
  H   H347      1.0  0.32904  0.91683  0.87159  1.0000
  N   N23       1.0  0.35308  0.99205  0.20312  1.0000
  H   H348      1.0  0.50118  0.78293  0.43143  1.0000
  C   C217      1.0  0.37451  0.99294  0.24166  1.0000
  C   C218      1.0  0.47692  0.78594  0.61816  1.0000
  H   H349      1.0  0.50724  0.82591  0.95632  1.0000
  C   C219      1.0  0.45130  0.78926  0.62024  1.0000
  H   H350      1.0  0.31150  0.87654  0.86032  1.0000
  S   S88       1.0  0.35569  0.80558  0.12133  1.0000
  H   H351      1.0  0.43292  0.78134  0.45153  1.0000
  H   H352      1.0  0.30213  0.83244  0.13497  1.0000
  Fe  Fe43      1.0  0.53254  0.78685  0.80322  1.0000
  H   H353      1.0  0.52988  0.88420  0.90295  1.0000
  H   H354      1.0  0.32927  0.85068  0.88137  1.0000
  H   H355      1.0  0.53909  0.84112  0.02220  1.0000
  S   S89       1.0  0.35597  0.97460  0.01740  1.0000
  H   H356      1.0  0.35123  0.95381  0.20702  1.0000
  H   H357      1.0  0.35539  0.02890  0.17842  1.0000
  N   N24       1.0  0.34818  0.88380  0.88991  1.0000
  C   C220      1.0  0.34061  0.89828  0.07159  1.0000
  H   H358      1.0  0.37672  0.89267  0.83027  1.0000
  H   H359      1.0  0.37346  0.97905  0.27544  1.0000
  Fe  Fe44      1.0  0.32083  0.99673  0.01923  1.0000
  C   C221      1.0  0.36972  0.92850  0.04334  1.0000
  C   C222      1.0  0.36573  0.87426  0.93255  1.0000
  H   H360      1.0  0.39213  0.99001  0.21800  1.0000
  C   C223      1.0  0.35021  0.94495  0.03604  1.0000
  C   C224      1.0  0.32603  0.93784  0.04548  1.0000
  H   H361      1.0  0.36921  0.96519  0.14869  1.0000
  S   S90       1.0  0.34372  0.81896  0.98773  1.0000
  C   C225      1.0  0.35952  0.88221  0.83276  1.0000
  H   H362      1.0  0.50672  0.83580  0.88390  1.0000
  C   C226      1.0  0.46755  0.79028  0.93452  1.0000
  H   H363      1.0  0.46532  0.83785  0.47014  1.0000
  Fe  Fe45      1.0  0.34658  0.78613  0.04166  1.0000
  H   H364      1.0  0.37997  0.89245  0.06729  1.0000
  H   H365      1.0  0.34670  0.88903  0.79932  1.0000
  C   C227      1.0  0.34209  0.90892  0.90317  1.0000
  H   H366      1.0  0.47403  0.82297  0.37211  1.0000
  Fe  Fe46      1.0  0.38435  0.81322  0.97228  1.0000
  H   H367      1.0  0.36458  0.86343  0.82193  1.0000
  C   C228      1.0  0.32542  0.86972  0.89141  1.0000
  C   C229      1.0  0.32125  0.91474  0.06401  1.0000
  H   H368      1.0  0.53045  0.87125  0.00431  1.0000
  C   C230      1.0  0.36492  0.90508  0.06094  1.0000
  Fe  Fe47      1.0  0.35611  0.83808  0.06592  1.0000
  S   S91       1.0  0.33349  0.86959  0.09497  1.0000
  C   C231      1.0  0.39258  0.81459  0.29519  1.0000
  C   C232      1.0  0.40034  0.81123  0.23879  1.0000
  H   H369      1.0  0.31087  0.95007  0.03816  1.0000
  S   S92       1.0  0.42359  0.78623  0.15398  1.0000
  Fe  Fe48      1.0  0.39501  0.80071  0.09412  1.0000
  H   H370      1.0  0.49585  0.79253  0.50315  1.0000
  H   H371      1.0  0.45911  0.81726  0.52622  1.0000
  C   C233      1.0  0.33012  0.99603  0.23616  1.0000
  H   H372      1.0  0.39562  0.82434  0.20661  1.0000
  C   C234      1.0  0.41454  0.79111  0.22438  1.0000
  H   H373      1.0  0.50347  0.81392  0.44973  1.0000
  H   H374      1.0  0.33325  0.91054  0.94574  1.0000
  H   H375      1.0  0.37184  0.85587  0.92185  1.0000
  H   H376      1.0  0.31354  0.99562  0.20838  1.0000
  S   S93       1.0  0.38888  0.80200  0.40704  1.0000
  H   H377      1.0  0.37222  0.00834  0.13294  1.0000
  H   H378      1.0  0.43264  0.79838  0.97460  1.0000
  C   C235      1.0  0.39826  0.79743  0.33662  1.0000
  H   H379      1.0  0.32978  0.01381  0.25702  1.0000
  H   H380      1.0  0.33634  0.96715  0.14660  1.0000
  C   C236      1.0  0.51121  0.84134  0.92805  1.0000
  H   H381      1.0  0.35885  0.92007  0.90379  1.0000
  H   H382      1.0  0.38253  0.88524  0.93548  1.0000
  C   C237      1.0  0.49290  0.79746  0.45769  1.0000
  H   H383      1.0  0.31650  0.87035  0.93421  1.0000
  H   H384      1.0  0.35716  0.87346  0.97544  1.0000
  S   S94       1.0  0.49617  0.81061  0.62026  1.0000
  C   C238      1.0  0.48139  0.79105  0.88420  1.0000
  S   S95       1.0  0.40151  0.81830  0.88603  1.0000
  H   H385      1.0  0.44343  0.80695  0.62562  1.0000
  H   H386      1.0  0.43601  0.82328  0.47330  1.0000
  S   S96       1.0  0.52660  0.82262  0.76375  1.0000
  C   C239      1.0  0.44319  0.79915  0.93556  1.0000
  H   H387      1.0  0.38851  0.93395  0.03607  1.0000
  C   C240      1.0  0.35248  0.96851  0.17537  1.0000
  H   H388      1.0  0.49825  0.85611  0.93964  1.0000
  H   H389      1.0  0.48126  0.80153  0.79582  1.0000
  C   C241      1.0  0.43250  0.80864  0.88614  1.0000
  C   C242      1.0  0.44647  0.80978  0.83603  1.0000
  Fe  Fe49      1.0  0.52700  0.80288  0.68138  1.0000
  H   H390      1.0  0.43829  0.81708  0.79766  1.0000
  C   C243      1.0  0.47090  0.80107  0.83509  1.0000
  S   S97       1.0  0.39653  0.83527  0.04615  1.0000
  H   H391      1.0  0.46915  0.79212  0.35626  1.0000
  H   H392      1.0  0.47555  0.78260  0.97270  1.0000
  H   H393      1.0  0.44356  0.81132  0.37440  1.0000
  N   N25       1.0  0.53724  0.84846  0.93258  1.0000
  C   C244      1.0  0.35525  0.01081  0.15924  1.0000
  H   H394      1.0  0.53824  0.86335  0.84816  1.0000
  H   H395      1.0  0.32780  0.98228  0.26980  1.0000
  C   C245      1.0  0.54241  0.85588  0.99150  1.0000
  H   H396      1.0  0.37548  0.01053  0.26311  1.0000
  C   C246      1.0  0.54183  0.86845  0.89311  1.0000
  H   H397      1.0  0.33941  0.01062  0.12959  1.0000
  H   H398      1.0  0.77484  0.09887  0.28114  1.0000
  H   H399      1.0  0.79181  0.21438  0.84020  1.0000
  S   S98       1.0  0.59951  0.27928  0.69773  1.0000
  C   C247      1.0  0.77821  0.13290  0.04542  1.0000
  C   C248      1.0  0.76180  0.17136  0.07496  1.0000
  Fe  Fe50      1.0  0.73628  0.26006  0.96312  1.0000
  S   S99       1.0  0.70988  0.24499  0.11268  1.0000
  S   S100      1.0  0.77801  0.03512  0.06661  1.0000
  C   C249      1.0  0.66296  0.27767  0.76797  1.0000
  Fe  Fe51      1.0  0.69110  0.24441  0.02792  1.0000
  S   S101      1.0  0.65202  0.23263  0.01912  1.0000
  C   C250      1.0  0.62989  0.25481  0.00338  1.0000
  H   H400      1.0  0.75754  0.08388  0.13272  1.0000
  H   H401      1.0  0.60163  0.22953  0.98518  1.0000
  C   C251      1.0  0.60617  0.24818  0.98740  1.0000
  C   C252      1.0  0.78174  0.15544  0.06876  1.0000
  H   H402      1.0  0.79392  0.12130  0.03790  1.0000
  H   H403      1.0  0.77500  0.16891  0.89963  1.0000
  H   H404      1.0  0.66064  0.23795  0.83183  1.0000
  H   H405      1.0  0.62131  0.26002  0.81080  1.0000
  C   C253      1.0  0.73451  0.14151  0.03738  1.0000
  H   H406      1.0  0.66227  0.25229  0.89967  1.0000
  C   C254      1.0  0.74187  0.08910  0.16084  1.0000
  C   C255      1.0  0.62902  0.27537  0.83423  1.0000
  H   H407      1.0  0.65057  0.26312  0.19115  1.0000
  H   H408      1.0  0.71435  0.26882  0.31138  1.0000
  C   C256      1.0  0.65707  0.27789  0.16362  1.0000
  H   H409      1.0  0.74876  0.13617  0.16321  1.0000
  N   N26       1.0  0.75025  0.10318  0.20987  1.0000
  C   C257      1.0  0.75450  0.12549  0.03186  1.0000
  H   H410      1.0  0.76820  0.13645  0.22491  1.0000
  H   H411      1.0  0.77820  0.12113  0.16203  1.0000
  S   S102      1.0  0.75015  0.26540  0.87396  1.0000
  C   C258      1.0  0.78116  0.27374  0.87519  1.0000
  H   H412      1.0  0.72567  0.27223  0.20937  1.0000
  C   C259      1.0  0.76844  0.08905  0.24313  1.0000
  C   C260      1.0  0.79755  0.26488  0.83394  1.0000
  S   S103      1.0  0.79823  0.03381  0.21912  1.0000
  H   H413      1.0  0.76070  0.07187  0.25790  1.0000
  H   H414      1.0  0.73293  0.07237  0.17463  1.0000
  H   H415      1.0  0.76763  0.18305  0.96579  1.0000
  H   H416      1.0  0.73443  0.12020  0.28350  1.0000
  H   H417      1.0  0.71477  0.12005  0.22211  1.0000
  C   C261      1.0  0.72883  0.10943  0.24623  1.0000
  H   H418      1.0  0.71971  0.09320  0.26270  1.0000
  H   H419      1.0  0.68334  0.27774  0.76202  1.0000
  S   S104      1.0  0.76712  0.19977  0.10202  1.0000
  Fe  Fe52      1.0  0.78231  0.07215  0.03263  1.0000
  S   S105      1.0  0.74953  0.09585  0.01220  1.0000
  H   H420      1.0  0.72852  0.09936  0.13390  1.0000
  H   H421      1.0  0.71614  0.13598  0.02621  1.0000
  H   H422      1.0  0.68774  0.25412  0.85094  1.0000
  S   S106      1.0  0.72168  0.22412  0.98442  1.0000
  H   H423      1.0  0.65549  0.27191  0.11874  1.0000
  C   C262      1.0  0.66721  0.25413  0.85382  1.0000
  C   C263      1.0  0.73821  0.16459  0.05819  1.0000
  H   H424      1.0  0.72274  0.17691  0.06249  1.0000
  Fe  Fe53      1.0  0.74190  0.22816  0.06649  1.0000
  H   H425      1.0  0.78168  0.23228  0.93642  1.0000
  S   S107      1.0  0.75916  0.26269  0.04201  1.0000
  H   H426      1.0  0.75980  0.19768  0.90047  1.0000
  N   N27       1.0  0.65617  0.27603  0.82882  1.0000
  C   C264      1.0  0.63561  0.27893  0.00627  1.0000
  H   H427      1.0  0.79071  0.25434  0.79920  1.0000
  S   S108      1.0  0.56312  0.26536  0.83519  1.0000
  C   C265      1.0  0.77413  0.18638  0.92179  1.0000
  H   H428      1.0  0.57001  0.26035  0.96115  1.0000
  C   C266      1.0  0.76183  0.12520  0.18922  1.0000
  H   H429      1.0  0.62315  0.27371  0.87938  1.0000
  C   C267      1.0  0.58831  0.26558  0.97358  1.0000
  H   H430      1.0  0.78509  0.08452  0.21722  1.0000
  H   H431      1.0  0.79220  0.21731  0.99923  1.0000
  H   H432      1.0  0.65556  0.26250  0.74332  1.0000
  H   H433      1.0  0.78107  0.02952  0.81309  1.0000
  C   C268      1.0  0.79657  0.22052  0.95355  1.0000
  N   N28       1.0  0.79836  0.19799  0.92157  1.0000
  Fe  Fe54      1.0  0.72534  0.27938  0.08129  1.0000
  C   C269      1.0  0.77373  0.45943  0.40607  1.0000
  S   S109      1.0  0.69961  0.34263  0.53255  1.0000
  C   C270      1.0  0.62539  0.30399  0.61772  1.0000
  H   H434      1.0  0.56545  0.32589  0.64582  1.0000
  S   S110      1.0  0.69980  0.30375  0.39404  1.0000
  H   H435      1.0  0.75814  0.33155  0.54395  1.0000
  Fe  Fe55      1.0  0.66868  0.36942  0.52319  1.0000
  S   S111      1.0  0.63913  0.37335  0.58956  1.0000
  H   H436      1.0  0.76101  0.47374  0.42169  1.0000
  S   S112      1.0  0.66299  0.36324  0.42974  1.0000
  C   C271      1.0  0.63260  0.34637  0.62310  1.0000
  C   C272      1.0  0.63473  0.32488  0.59358  1.0000
  Fe  Fe56      1.0  0.69634  0.33922  0.43763  1.0000
  H   H437      1.0  0.64258  0.32454  0.55118  1.0000
  S   S113      1.0  0.72579  0.31297  0.13297  1.0000
  H   H438      1.0  0.57132  0.38489  0.57625  1.0000
  S   S114      1.0  0.69321  0.40066  0.51076  1.0000
  H   H439      1.0  0.65179  0.31496  0.09192  1.0000
  C   C273      1.0  0.70735  0.30640  0.32177  1.0000
  H   H440      1.0  0.62625  0.28753  0.59403  1.0000
  H   H441      1.0  0.67666  0.44477  0.45117  1.0000
  S   S115      1.0  0.70399  0.28012  0.99951  1.0000
  C   C274      1.0  0.68817  0.45593  0.42507  1.0000
  C   C275      1.0  0.74757  0.42877  0.44229  1.0000
  C   C276      1.0  0.69561  0.47811  0.44541  1.0000
  C   C277      1.0  0.64497  0.30681  0.23442  1.0000
  C   C278      1.0  0.79036  0.41977  0.42177  1.0000
  H   H442      1.0  0.69000  0.48385  0.48746  1.0000
  H   H443      1.0  0.76847  0.31008  0.43528  1.0000
  Fe  Fe57      1.0  0.69054  0.39221  0.41818  1.0000
  H   H444      1.0  0.70185  0.34445  0.31864  1.0000
  C   C279      1.0  0.69584  0.44816  0.37128  1.0000
  C   C280      1.0  0.70720  0.32868  0.29511  1.0000
  N   N29       1.0  0.64286  0.30017  0.17385  1.0000
  C   C281      1.0  0.77942  0.44464  0.50180  1.0000
  H   H445      1.0  0.74158  0.42433  0.39840  1.0000
  S   S116      1.0  0.79300  0.51805  0.44990  1.0000
  H   H446      1.0  0.73407  0.44186  0.46014  1.0000
  H   H447      1.0  0.65760  0.31384  0.84139  1.0000
  H   H448      1.0  0.57463  0.36324  0.69471  1.0000
  H   H449      1.0  0.62211  0.31504  0.99528  1.0000
  H   H450      1.0  0.77865  0.42896  0.53085  1.0000
  H   H451      1.0  0.65377  0.28418  0.01869  1.0000
  H   H452      1.0  0.60541  0.31310  0.16628  1.0000
  H   H453      1.0  0.63764  0.29278  0.26304  1.0000
  H   H454      1.0  0.60542  0.32634  0.74412  1.0000
  H   H455      1.0  0.76837  0.45533  0.36152  1.0000
  C   C282      1.0  0.61764  0.29638  0.99339  1.0000
  S   S117      1.0  0.77303  0.52286  0.31723  1.0000
  H   H456      1.0  0.66454  0.30941  0.24652  1.0000
  H   H457      1.0  0.67261  0.32259  0.14762  1.0000
  H   H458      1.0  0.71287  0.34780  0.21661  1.0000
  C   C283      1.0  0.61387  0.30469  0.67111  1.0000
  H   H459      1.0  0.55886  0.39040  0.67566  1.0000
  S   S118      1.0  0.57223  0.31146  0.95675  1.0000
  H   H460      1.0  0.62121  0.36330  0.70104  1.0000
  N   N30       1.0  0.77281  0.43814  0.44297  1.0000
  C   C284      1.0  0.61317  0.32589  0.70190  1.0000
  C   C285      1.0  0.62242  0.34673  0.67782  1.0000
  C   C286      1.0  0.65285  0.31939  0.13789  1.0000
  C   C287      1.0  0.59405  0.28968  0.97649  1.0000
  H   H461      1.0  0.74795  0.32363  0.38505  1.0000
  S   S119      1.0  0.56051  0.32219  0.79898  1.0000
  S   S120      1.0  0.72356  0.36768  0.41875  1.0000
  H   H462      1.0  0.76251  0.33267  0.28679  1.0000
  C   C288      1.0  0.78214  0.36167  0.54520  1.0000
  S   S121      1.0  0.75872  0.38277  0.55678  1.0000
  C   C289      1.0  0.76407  0.31131  0.38928  1.0000
  H   H463      1.0  0.76653  0.45848  0.51911  1.0000
  C   C290      1.0  0.71101  0.49238  0.41234  1.0000
  C   C291      1.0  0.71966  0.31018  0.20597  1.0000
  S   S122      1.0  0.68935  0.41936  0.34787  1.0000
  C   C292      1.0  0.77694  0.33749  0.53975  1.0000
  C   C293      1.0  0.71337  0.33055  0.23729  1.0000
  Fe  Fe58      1.0  0.72372  0.37343  0.51273  1.0000
  H   H464      1.0  0.68596  0.29789  0.85640  1.0000
  S   S123      1.0  0.72217  0.51892  0.44085  1.0000
  H   H465      1.0  0.79234  0.30218  0.52697  1.0000
  C   C294      1.0  0.71798  0.48495  0.35782  1.0000
  C   C295      1.0  0.71027  0.46293  0.33718  1.0000
  H   H466      1.0  0.72931  0.49609  0.33144  1.0000
  H   H467      1.0  0.71604  0.45706  0.29533  1.0000
  H   H468      1.0  0.74617  0.41241  0.46834  1.0000
  H   H469      1.0  0.75800  0.29343  0.37543  1.0000
  H   H470      1.0  0.61442  0.29132  0.11434  1.0000
  C   C296      1.0  0.77843  0.32027  0.29458  1.0000
  H   H471      1.0  0.56320  0.35836  0.53846  1.0000
  H   H472      1.0  0.79252  0.46679  0.40458  1.0000
  H   H473      1.0  0.62005  0.29177  0.81658  1.0000
  N   N31       1.0  0.78524  0.31966  0.35545  1.0000
  Fe  Fe59      1.0  0.56744  0.28719  0.75621  1.0000
  H   H474      1.0  0.77614  0.35667  0.36809  1.0000
  H   H475      1.0  0.58650  0.35720  0.59184  1.0000
  C   C297      1.0  0.55678  0.37081  0.67935  1.0000
  H   H476      1.0  0.77284  0.30243  0.27931  1.0000
  H   H477      1.0  0.64260  0.33650  0.14446  1.0000
  C   C298      1.0  0.56838  0.36543  0.58081  1.0000
  H   H478      1.0  0.78610  0.41475  0.37719  1.0000
  H   H479      1.0  0.63478  0.32373  0.24378  1.0000
  C   C299      1.0  0.66547  0.29698  0.85927  1.0000
  H   H480      1.0  0.66048  0.29637  0.90520  1.0000
  C   C300      1.0  0.61666  0.29657  0.15963  1.0000
  H   H481      1.0  0.65524  0.29423  0.74816  1.0000
  Fe  Fe60      1.0  0.55344  0.30015  0.87668  1.0000
  H   H482      1.0  0.78974  0.40338  0.44850  1.0000
  C   C301      1.0  0.71400  0.28606  0.29068  1.0000
  H   H483      1.0  0.79400  0.32623  0.26742  1.0000
  C   C302      1.0  0.79181  0.34383  0.37404  1.0000
  C   C303      1.0  0.72029  0.28796  0.23292  1.0000
  N   N32       1.0  0.54958  0.36017  0.62456  1.0000
  H   H484      1.0  0.77736  0.29482  0.95111  1.0000
  C   C304      1.0  0.79001  0.28760  0.91968  1.0000
  H   H485      1.0  0.67701  0.28025  0.17241  1.0000
  H   H486      1.0  0.60855  0.28223  0.18614  1.0000
  H   H487      1.0  0.79843  0.45166  0.50395  1.0000
  C   C305      1.0  0.79623  0.32093  0.53020  1.0000
  H   H488      1.0  0.79677  0.34405  0.41991  1.0000
  H   H489      1.0  0.75370  0.68797  0.94719  1.0000
  H   H490      1.0  0.70562  0.61787  0.50091  1.0000
  C   C306      1.0  0.78849  0.69931  0.98066  1.0000
  Fe  Fe61      1.0  0.75382  0.68208  0.63971  1.0000
  H   H491      1.0  0.77898  0.63254  0.19502  1.0000
  C   C307      1.0  0.78111  0.69083  0.88108  1.0000
  H   H492      1.0  0.65696  0.75054  0.82788  1.0000
  S   S124      1.0  0.59553  0.74362  0.67614  1.0000
  H   H493      1.0  0.79341  0.61309  0.97832  1.0000
  H   H494      1.0  0.76003  0.74215  0.93265  1.0000
  S   S125      1.0  0.70236  0.73277  0.78072  1.0000
  C   C308      1.0  0.62474  0.73933  0.70713  1.0000
  C   C309      1.0  0.62965  0.74746  0.76200  1.0000
  C   C310      1.0  0.65328  0.74429  0.78533  1.0000
  C   C311      1.0  0.67222  0.73343  0.75349  1.0000
  C   C312      1.0  0.66725  0.72495  0.69899  1.0000
  C   C313      1.0  0.64349  0.72777  0.67601  1.0000
  C   C314      1.0  0.77266  0.69216  0.93738  1.0000
  H   H495      1.0  0.78732  0.70550  0.49298  1.0000
  H   H496      1.0  0.68169  0.71635  0.67436  1.0000
  H   H497      1.0  0.63971  0.72127  0.63371  1.0000
  H   H498      1.0  0.77448  0.62648  0.09374  1.0000
  H   H499      1.0  0.61518  0.75589  0.78674  1.0000
  Fe  Fe62      1.0  0.78643  0.56037  0.32003  1.0000
  Fe  Fe63      1.0  0.76999  0.73303  0.63448  1.0000
  H   H500      1.0  0.79152  0.70952  0.38867  1.0000
  S   S126      1.0  0.79517  0.71895  0.20426  1.0000
  C   C315      1.0  0.79636  0.69021  0.38731  1.0000
  H   H501      1.0  0.75104  0.69880  0.43047  1.0000
  H   H502      1.0  0.78158  0.64065  0.46243  1.0000
  C   C316      1.0  0.79471  0.75673  0.85885  1.0000
  H   H503      1.0  0.74033  0.60229  0.55405  1.0000
  H   H504      1.0  0.68357  0.55538  0.41245  1.0000
  H   H505      1.0  0.78659  0.73957  0.84624  1.0000
  S   S127      1.0  0.79124  0.69857  0.63946  1.0000
  C   C317      1.0  0.69342  0.57259  0.41012  1.0000
  S   S128      1.0  0.76890  0.56865  0.40392  1.0000
  C   C318      1.0  0.79079  0.65133  0.42887  1.0000
  S   S129      1.0  0.77743  0.70092  0.05060  1.0000
  H   H506      1.0  0.79545  0.59449  0.04064  1.0000
  C   C319      1.0  0.76888  0.75940  0.94230  1.0000
  H   H507      1.0  0.79126  0.68358  0.34441  1.0000
  H   H508      1.0  0.76864  0.68572  0.84779  1.0000
  S   S130      1.0  0.74957  0.68177  0.73479  1.0000
  C   C320      1.0  0.70618  0.60767  0.46030  1.0000
  S   S131      1.0  0.78010  0.76417  0.57916  1.0000
  S   S132      1.0  0.74346  0.65061  0.58650  1.0000
  N   N33       1.0  0.69250  0.58523  0.46518  1.0000
  S   S133      1.0  0.73281  0.71660  0.62734  1.0000
  Fe  Fe64      1.0  0.73189  0.71782  0.72272  1.0000
  H   H509      1.0  0.65733  0.60198  0.44773  1.0000
  H   H510      1.0  0.72352  0.56570  0.49987  1.0000
  C   C321      1.0  0.70384  0.57003  0.50982  1.0000
  N   N34       1.0  0.77650  0.77177  0.88960  1.0000
  Fe  Fe65      1.0  0.78527  0.70124  0.73392  1.0000
  H   H511      1.0  0.74569  0.75910  0.84151  1.0000
  H   H512      1.0  0.77183  0.57254  0.52374  1.0000
  S   S134      1.0  0.76730  0.73725  0.72885  1.0000
  H   H513      1.0  0.78550  0.64385  0.38695  1.0000
  C   C322      1.0  0.76656  0.62871  0.57622  1.0000
  H   H514      1.0  0.74701  0.66989  0.46144  1.0000
  C   C323      1.0  0.75958  0.60649  0.55613  1.0000
  C   C324      1.0  0.77741  0.58975  0.53874  1.0000
  H   H515      1.0  0.66517  0.60013  0.52189  1.0000
  C   C325      1.0  0.79165  0.63358  0.58245  1.0000
  H   H516      1.0  0.68495  0.58339  0.37532  1.0000
  C   C326      1.0  0.78559  0.63988  0.07058  1.0000
  H   H517      1.0  0.71276  0.56820  0.39731  1.0000
  H   H518      1.0  0.79728  0.65041  0.59944  1.0000
  N   N35       1.0  0.78390  0.67685  0.43305  1.0000
  H   H519      1.0  0.65576  0.57397  0.48461  1.0000
  H   H520      1.0  0.70318  0.57878  0.55219  1.0000
  C   C327      1.0  0.75688  0.67975  0.42723  1.0000
  H   H521      1.0  0.69832  0.61942  0.42646  1.0000
  H   H522      1.0  0.78170  0.67704  0.52415  1.0000
  H   H523      1.0  0.77433  0.64673  0.03424  1.0000
  H   H524      1.0  0.72595  0.60419  0.44960  1.0000
  S   S135      1.0  0.78050  0.58719  0.25025  1.0000
  H   H525      1.0  0.69427  0.55273  0.51385  1.0000
  H   H526      1.0  0.75045  0.67299  0.38548  1.0000
  C   C328      1.0  0.66653  0.59058  0.48050  1.0000
  Fe  Fe66      1.0  0.57083  0.77205  0.71414  1.0000
  H   H527      1.0  0.75542  0.77028  0.96735  1.0000
  C   C329      1.0  0.79301  0.63301  0.22748  1.0000
  H   H528      1.0  0.69058  0.77165  0.69226  1.0000
  H   H529      1.0  0.78496  0.75529  0.97034  1.0000
  H   H530      1.0  0.78827  0.65514  0.09986  1.0000
  C   C330      1.0  0.79155  0.68611  0.48891  1.0000
  C   C331      1.0  0.79701  0.61318  0.26254  1.0000
  C   C332      1.0  0.75470  0.77610  0.85305  1.0000
  Fe  Fe67      1.0  0.75862  0.53022  0.40496  1.0000
  H   H531      1.0  0.74064  0.78753  0.87477  1.0000
  H   H532      1.0  0.68648  0.92622  0.47374  1.0000
  C   C333      1.0  0.72339  0.92505  0.54951  1.0000
  H   H533      1.0  0.71833  0.94356  0.53663  1.0000
  H   H534      1.0  0.71221  0.92065  0.58782  1.0000
  H   H535      1.0  0.63209  0.86492  0.61320  1.0000
  C   C334      1.0  0.79787  0.94020  0.53655  1.0000
  C   C335      1.0  0.66990  0.82807  0.71677  1.0000
  S   S136      1.0  0.78065  0.94681  0.64518  1.0000
  S   S137      1.0  0.67574  0.89012  0.64345  1.0000
  H   H536      1.0  0.65003  0.82421  0.72371  1.0000
  S   S138      1.0  0.71397  0.88254  0.78743  1.0000
  Fe  Fe68      1.0  0.56763  0.82288  0.75528  1.0000
  S   S139      1.0  0.58719  0.85398  0.79259  1.0000
  Fe  Fe69      1.0  0.70718  0.89864  0.70127  1.0000
  C   C336      1.0  0.61056  0.86552  0.74946  1.0000
  C   C337      1.0  0.61165  0.86049  0.69127  1.0000
  C   C338      1.0  0.63108  0.86915  0.65800  1.0000
  C   C339      1.0  0.64966  0.88247  0.68320  1.0000
  C   C340      1.0  0.64828  0.88793  0.74109  1.0000
  C   C341      1.0  0.62866  0.87958  0.77409  1.0000
  H   H537      1.0  0.59753  0.84994  0.67188  1.0000
  H   H538      1.0  0.66238  0.89850  0.76060  1.0000
  H   H539      1.0  0.62778  0.88367  0.81901  1.0000
  H   H540      1.0  0.66298  0.79415  0.79505  1.0000
  H   H541      1.0  0.67474  0.84281  0.74595  1.0000
  C   C342      1.0  0.78773  0.79472  0.90409  1.0000
  H   H542      1.0  0.57339  0.83283  0.91918  1.0000
  H   H543      1.0  0.74307  0.92502  0.56276  1.0000
  H   H544      1.0  0.71791  0.82706  0.74553  1.0000
  N   N36       1.0  0.68566  0.80678  0.72668  1.0000
  S   S140      1.0  0.71913  0.93861  0.88842  1.0000
  S   S141      1.0  0.56770  0.80701  0.66767  1.0000
  H   H545      1.0  0.78807  0.80398  0.47964  1.0000
  H   H546      1.0  0.79339  0.80461  0.86512  1.0000
  H   H547      1.0  0.56197  0.86125  0.99623  1.0000
  H   H548      1.0  0.67992  0.79354  0.64204  1.0000
  H   H549      1.0  0.74664  0.88306  0.53427  1.0000
  S   S142      1.0  0.57384  0.78820  0.80077  1.0000
  H   H550      1.0  0.79791  0.87145  0.55173  1.0000
  H   H551      1.0  0.75192  0.99971  0.77494  1.0000
  C   C343      1.0  0.79313  0.80176  0.72079  1.0000
  C   C344      1.0  0.76806  0.80869  0.61814  1.0000
  C   C345      1.0  0.76587  0.82561  0.66171  1.0000
  H   H552      1.0  0.76361  0.97165  0.74896  1.0000
  S   S143      1.0  0.77161  0.83999  0.77303  1.0000
  H   H553      1.0  0.68904  0.89547  0.45303  1.0000
  C   C346      1.0  0.73411  0.91478  0.45280  1.0000
  H   H554      1.0  0.68119  0.90315  0.52497  1.0000
  H   H555      1.0  0.72435  0.87049  0.48751  1.0000
  H   H556      1.0  0.76322  0.00463  0.97281  1.0000
  Fe  Fe70      1.0  0.72888  0.91846  0.80886  1.0000
  H   H557      1.0  0.71579  0.87797  0.55923  1.0000
  H   H558      1.0  0.75989  0.78519  0.81266  1.0000
  H   H559      1.0  0.76348  0.97761  0.82368  1.0000
  C   C347      1.0  0.68252  0.79867  0.78606  1.0000
  S   S144      1.0  0.74406  0.88801  0.66674  1.0000
  H   H560      1.0  0.72551  0.98371  0.94310  1.0000
  C   C348      1.0  0.67849  0.78773  0.68719  1.0000
  H   H561      1.0  0.75770  0.81104  0.57921  1.0000
  N   N37       1.0  0.71929  0.90797  0.50298  1.0000
  C   C349      1.0  0.72684  0.88379  0.52181  1.0000
  H   H562      1.0  0.73179  0.90210  0.41704  1.0000
  C   C350      1.0  0.77773  0.82175  0.71386  1.0000
  C   C351      1.0  0.69284  0.90822  0.48785  1.0000
  H   H563      1.0  0.72900  0.93292  0.43730  1.0000
  H   H564      1.0  0.69402  0.78249  0.79497  1.0000
  C   C352      1.0  0.78776  0.97530  0.95214  1.0000
  S   S145      1.0  0.76787  0.90941  0.78357  1.0000
  H   H565      1.0  0.75412  0.91481  0.46304  1.0000
  Fe  Fe71      1.0  0.75663  0.92323  0.69816  1.0000
  H   H566      1.0  0.75386  0.84081  0.65592  1.0000
  H   H567      1.0  0.79447  0.93876  0.05194  1.0000
  S   S146      1.0  0.71880  0.93528  0.72501  1.0000
  C   C353      1.0  0.74332  0.97474  0.94064  1.0000
  Fe  Fe72      1.0  0.75215  0.87486  0.75457  1.0000
  H   H568      1.0  0.76960  0.92226  0.89898  1.0000
  C   C354      1.0  0.74518  0.95182  0.91767  1.0000
  C   C355      1.0  0.76465  0.98655  0.95763  1.0000
  H   H569      1.0  0.79080  0.95034  0.20744  1.0000
  H   H570      1.0  0.72421  0.79698  0.72346  1.0000
  C   C356      1.0  0.76819  0.94028  0.91454  1.0000
  H   H571      1.0  0.67192  0.83488  0.67250  1.0000
  H   H572      1.0  0.68789  0.81264  0.81681  1.0000
  H   H573      1.0  0.77409  0.94013  0.14639  1.0000
  C   C357      1.0  0.76653  0.98580  0.78114  1.0000
  C   C358      1.0  0.71174  0.81271  0.71660  1.0000
  C   C359      1.0  0.79525  0.78480  0.67751  1.0000
  H   H574      1.0  0.65911  0.78221  0.69466  1.0000
  H   H575      1.0  0.56141  0.87409  0.89477  1.0000
  H   H576      1.0  0.79203  0.89683  0.63646  1.0000
  C   C360      1.0  0.55355  0.82808  0.91754  1.0000
  H   H577      1.0  0.77997  0.83336  0.27558  1.0000
  C   C361      1.0  0.78209  0.78788  0.62690  1.0000
  H   H578      1.0  0.77455  0.80648  0.92774  1.0000
  H   H579      1.0  0.71462  0.81897  0.67218  1.0000
  H   H580      1.0  0.79332  0.80512  0.37385  1.0000
  C   C362      1.0  0.78944  0.95201  0.93161  1.0000
  H   H581      1.0  0.78332  0.97761  0.09372  1.0000
  H   H582      1.0  0.78098  0.02029  0.71004  1.0000
  N   N38       1.0  0.79151  0.99574  0.77640  1.0000
  H   H583      1.0  0.79148  0.00757  0.86319  1.0000
  C   C363      1.0  0.79271  0.94093  0.16601  1.0000
  C   C364      1.0  0.79257  0.83398  0.23988  1.0000
  H   H584      1.0  0.79713  0.99762  0.30511  1.0000
  H   H585      1.0  0.79521  0.87213  0.24129  1.0000
  H   H586      1.0  0.79696  0.95935  0.53196  1.0000
  C   C365      1.0  0.79279  0.92967  0.58928  1.0000
  C   C366      1.0  0.79810  0.89061  0.54734  1.0000
  C   C367      1.0  0.79494  0.00603  0.71901  1.0000
  C   C368      1.0  0.79427  0.90495  0.59512  1.0000
  C   C369      1.0  0.79450  0.01455  0.81951  1.0000
  H   H587      1.0  0.79313  0.99227  0.68543  1.0000
  S   S147      1.0  0.79323  0.78556  0.24527  1.0000
  H   H588      1.0  0.55058  0.81252  0.94607  1.0000
  H   H589      1.0  0.54991  0.82200  0.87364  1.0000
  C   C370      1.0  0.97078  0.27527  0.68954  1.0000
  H   H590      1.0  0.02134  0.21683  0.01335  1.0000
  S   S148      1.0  0.87099  0.09321  0.02886  1.0000
  H   H591      1.0  0.85078  0.03097  0.19782  1.0000
  C   C371      1.0  0.99765  0.26892  0.97102  1.0000
  C   C372      1.0  0.00676  0.24785  0.49654  1.0000
  H   H592      1.0  0.80006  0.16065  0.08123  1.0000
  C   C373      1.0  0.99744  0.26085  0.07226  1.0000
  C   C374      1.0  0.93068  0.27146  0.64585  1.0000
  S   S149      1.0  0.81142  0.06152  0.96924  1.0000
  H   H593      1.0  0.97657  0.24999  0.40590  1.0000
  C   C375      1.0  0.82293  0.26879  0.83893  1.0000
  H   H594      1.0  0.95712  0.24340  0.49998  1.0000
  H   H595      1.0  0.91436  0.26115  0.63846  1.0000
  H   H596      1.0  0.80788  0.18613  0.83740  1.0000
  H   H597      1.0  0.98525  0.26818  0.71671  1.0000
  C   C376      1.0  0.90804  0.25961  0.08724  1.0000
  C   C377      1.0  0.80574  0.20290  0.86218  1.0000
  H   H598      1.0  0.83580  0.18959  0.94558  1.0000
  Fe  Fe73      1.0  0.83764  0.07031  0.03959  1.0000
  H   H599      1.0  0.89718  0.25891  0.12741  1.0000
  H   H600      1.0  0.02757  0.21968  0.08792  1.0000
  Fe  Fe74      1.0  0.88528  0.20230  0.84646  1.0000
  S   S150      1.0  0.88431  0.22477  0.92460  1.0000
  S   S151      1.0  0.85995  0.17162  0.83613  1.0000
  Fe  Fe75      1.0  0.92399  0.23161  0.78927  1.0000
  Fe  Fe76      1.0  0.92551  0.22439  0.91722  1.0000
  S   S152      1.0  0.94536  0.22022  0.00084  1.0000
  Fe  Fe77      1.0  0.88571  0.25558  0.86456  1.0000
  S   S153      1.0  0.92692  0.25705  0.86207  1.0000
  S   S154      1.0  0.92646  0.19881  0.84416  1.0000
  S   S155      1.0  0.88263  0.23331  0.78613  1.0000
  C   C378      1.0  0.96939  0.24018  0.00982  1.0000
  Fe  Fe78      1.0  0.80680  0.04503  0.12964  1.0000
  H   H601      1.0  0.81286  0.17926  0.99441  1.0000
  H   H602      1.0  0.81760  0.16437  0.92807  1.0000
  H   H603      1.0  0.00443  0.26421  0.11444  1.0000
  S   S156      1.0  0.80854  0.08282  0.10100  1.0000
  H   H604      1.0  0.87148  0.26687  0.01112  1.0000
  H   H605      1.0  0.02918  0.19094  0.05504  1.0000
  H   H606      1.0  0.97233  0.24888  0.92084  1.0000
  H   H607      1.0  0.81411  0.23047  0.95144  1.0000
  C   C379      1.0  0.03332  0.21008  0.04858  1.0000
  H   H608      1.0  0.97129  0.23482  0.10057  1.0000
  S   S157      1.0  0.94717  0.23375  0.71014  1.0000
  C   C380      1.0  0.97869  0.24431  0.06439  1.0000
  C   C381      1.0  0.81696  0.18213  0.94864  1.0000
  H   H609      1.0  0.92795  0.25818  0.09841  1.0000
  H   H610      1.0  0.90373  0.24341  0.06217  1.0000
  C   C382      1.0  0.86857  0.11465  0.97413  1.0000
  C   C383      1.0  0.85152  0.11214  0.93016  1.0000
  C   C384      1.0  0.84954  0.12935  0.88707  1.0000
  C   C385      1.0  0.86444  0.14938  0.88793  1.0000
  C   C386      1.0  0.88166  0.15197  0.93159  1.0000
  C   C387      1.0  0.88384  0.13452  0.97441  1.0000
  H   H611      1.0  0.84013  0.09676  0.92859  1.0000
  H   H612      1.0  0.83627  0.12723  0.85329  1.0000
  H   H613      1.0  0.89328  0.16740  0.93252  1.0000
  H   H614      1.0  0.89717  0.13653  0.00811  1.0000
  C   C388      1.0  0.97900  0.25238  0.96317  1.0000
  H   H615      1.0  0.00066  0.22995  0.48306  1.0000
  C   C389      1.0  0.94917  0.26249  0.68192  1.0000
  H   H616      1.0  0.91506  0.26539  0.97719  1.0000
  H   H617      1.0  0.82378  0.21202  0.86012  1.0000
  H   H618      1.0  0.83557  0.26124  0.80802  1.0000
  H   H619      1.0  0.01080  0.24689  0.54297  1.0000
  H   H620      1.0  0.96777  0.25912  0.56111  1.0000
  C   C390      1.0  0.96471  0.26060  0.51437  1.0000
  H   H621      1.0  0.02439  0.25157  0.47398  1.0000
  H   H622      1.0  0.00020  0.27175  0.39800  1.0000
  C   C391      1.0  0.00693  0.27311  0.02544  1.0000
  H   H623      1.0  0.95026  0.27466  0.50754  1.0000
  N   N39       1.0  0.98779  0.26635  0.48407  1.0000
  C   C392      1.0  0.98315  0.26730  0.42214  1.0000
  S   S158      1.0  0.83893  0.03329  0.07599  1.0000
  H   H624      1.0  0.00506  0.27833  0.93470  1.0000
  Fe  Fe79      1.0  0.80848  0.51350  0.36191  1.0000
  S   S159      1.0  0.83169  0.48223  0.33297  1.0000
  H   H625      1.0  0.83469  0.28048  0.69066  1.0000
  H   H626      1.0  0.87916  0.28662  0.67183  1.0000
  S   S160      1.0  0.91487  0.31601  0.46341  1.0000
  Fe  Fe80      1.0  0.89421  0.38125  0.49396  1.0000
  S   S161      1.0  0.87625  0.35956  0.42626  1.0000
  Fe  Fe81      1.0  0.87796  0.33033  0.49125  1.0000
  S   S162      1.0  0.84445  0.30861  0.50827  1.0000
  Fe  Fe82      1.0  0.91483  0.34751  0.40457  1.0000
  S   S163      1.0  0.92816  0.34158  0.31508  1.0000
  H   H627      1.0  0.86300  0.29307  0.76772  1.0000
  S   S164      1.0  0.93285  0.37223  0.46608  1.0000
  C   C393      1.0  0.99654  0.28969  0.50341  1.0000
  C   C394      1.0  0.80639  0.36932  0.54047  1.0000
  C   C395      1.0  0.95889  0.33135  0.31706  1.0000
  C   C396      1.0  0.97051  0.32275  0.26771  1.0000
  C   C397      1.0  0.99489  0.31388  0.27008  1.0000
  H   H628      1.0  0.82704  0.30079  0.63391  1.0000
  C   C398      1.0  0.99625  0.32306  0.37050  1.0000
  C   C399      1.0  0.97184  0.33149  0.36838  1.0000
  H   H629      1.0  0.96054  0.32266  0.22791  1.0000
  S   S165      1.0  0.03088  0.29324  0.03308  1.0000
  C   C400      1.0  0.82042  0.32877  0.52376  1.0000
  H   H630      1.0  0.84204  0.31736  0.78256  1.0000
  H   H631      1.0  0.85114  0.45962  0.52962  1.0000
  H   H632      1.0  0.87407  0.32282  0.76882  1.0000
  C   C401      1.0  0.84487  0.46398  0.38585  1.0000
  C   C402      1.0  0.85823  0.44345  0.37021  1.0000
  C   C403      1.0  0.86900  0.42873  0.41203  1.0000
  C   C404      1.0  0.86655  0.43467  0.46949  1.0000
  H   H633      1.0  0.84391  0.35930  0.52398  1.0000
  C   C405      1.0  0.84219  0.46967  0.44336  1.0000
  H   H634      1.0  0.86037  0.43897  0.32570  1.0000
  H   H635      1.0  0.82197  0.30328  0.95754  1.0000
  H   H636      1.0  0.83196  0.48538  0.45577  1.0000
  H   H637      1.0  0.02950  0.36157  0.33565  1.0000
  H   H638      1.0  0.00632  0.32374  0.41002  1.0000
  H   H639      1.0  0.99086  0.30663  0.66662  1.0000
  C   C406      1.0  0.82539  0.35298  0.52865  1.0000
  C   C407      1.0  0.97398  0.29694  0.66105  1.0000
  H   H640      1.0  0.81051  0.38800  0.54498  1.0000
  C   C408      1.0  0.85312  0.45513  0.48509  1.0000
  S   S166      1.0  0.86341  0.28776  0.89021  1.0000
  H   H641      1.0  0.80792  0.35061  0.34984  1.0000
  H   H642      1.0  0.96310  0.33817  0.40653  1.0000
  H   H643      1.0  0.02344  0.38434  0.28333  1.0000
  H   H644      1.0  0.01439  0.29427  0.48297  1.0000
  H   H645      1.0  0.87127  0.30681  0.61521  1.0000
  S   S167      1.0  0.89319  0.35273  0.56076  1.0000
  H   H646      1.0  0.81456  0.30561  0.70400  1.0000
  H   H647      1.0  0.91999  0.29969  0.58791  1.0000
  C   C409      1.0  0.83177  0.28262  0.88356  1.0000
  H   H648      1.0  0.87956  0.41305  0.39974  1.0000
  C   C410      1.0  0.86239  0.52410  0.51024  1.0000
  H   H649      1.0  0.89689  0.30311  0.12905  1.0000
  H   H650      1.0  0.83128  0.34631  0.70427  1.0000
  H   H651      1.0  0.90846  0.50636  0.51989  1.0000
  C   C411      1.0  0.00763  0.31386  0.32174  1.0000
  Fe  Fe83      1.0  0.93003  0.34150  0.52676  1.0000
  S   S168      1.0  0.88037  0.41717  0.52265  1.0000
  N   N40       1.0  0.85291  0.31408  0.69464  1.0000
  H   H652      1.0  0.00366  0.30682  0.23217  1.0000
  N   N41       1.0  0.90253  0.28157  0.05449  1.0000
  C   C412      1.0  0.93394  0.29313  0.61705  1.0000
  H   H653      1.0  0.80225  0.28487  0.35029  1.0000
  H   H654      1.0  0.91310  0.29723  0.97440  1.0000
  H   H655      1.0  0.89122  0.31616  0.67145  1.0000
  H   H656      1.0  0.87133  0.29863  0.01392  1.0000
  H   H657      1.0  0.92796  0.30247  0.10228  1.0000
  H   H658      1.0  0.89918  0.51914  0.39320  1.0000
  H   H659      1.0  0.84369  0.34157  0.63433  1.0000
  C   C413      1.0  0.88380  0.51472  0.42261  1.0000
  C   C414      1.0  0.85819  0.31179  0.75605  1.0000
  H   H660      1.0  0.80967  0.42617  0.42253  1.0000
  C   C415      1.0  0.87616  0.28224  0.03860  1.0000
  H   H661      1.0  0.03201  0.35477  0.26167  1.0000
  H   H662      1.0  0.86311  0.50524  0.52476  1.0000
  S   S169      1.0  0.96137  0.33142  0.58429  1.0000
  H   H663      1.0  0.84477  0.52705  0.48699  1.0000
  C   C416      1.0  0.95572  0.30574  0.62429  1.0000
  H   H664      1.0  0.99926  0.29001  0.55034  1.0000
  C   C417      1.0  0.90680  0.52534  0.50626  1.0000
  H   H665      1.0  0.90449  0.31942  0.06559  1.0000
  C   C418      1.0  0.84762  0.33929  0.68044  1.0000
  H   H666      1.0  0.88584  0.49551  0.43370  1.0000
  H   H667      1.0  0.98299  0.30419  0.49303  1.0000
  C   C419      1.0  0.87459  0.30556  0.66185  1.0000
  H   H668      1.0  0.86356  0.35073  0.69049  1.0000
  C   C420      1.0  0.90819  0.30257  0.08943  1.0000
  H   H669      1.0  0.86629  0.51690  0.39827  1.0000
  H   H670      1.0  0.82302  0.30914  0.33973  1.0000
  C   C421      1.0  0.03558  0.36877  0.29379  1.0000
  C   C422      1.0  0.80654  0.30326  0.36401  1.0000
  H   H671      1.0  0.81196  0.30230  0.40968  1.0000
  H   H672      1.0  0.96887  0.28110  0.41136  1.0000
  C   C423      1.0  0.91782  0.28178  0.00238  1.0000
  H   H673      1.0  0.93785  0.28249  0.01243  1.0000
  S   S170      1.0  0.03778  0.30244  0.32689  1.0000
  C   C424      1.0  0.83134  0.29960  0.68020  1.0000
  C   C425      1.0  0.81524  0.29241  0.92326  1.0000
  H   H674      1.0  0.92337  0.52941  0.48018  1.0000
  H   H675      1.0  0.86396  0.28174  0.07670  1.0000
  H   H676      1.0  0.89822  0.56034  0.43019  1.0000
  H   H677      1.0  0.84257  0.61467  0.08815  1.0000
  C   C426      1.0  0.95860  0.75949  0.11727  1.0000
  H   H678      1.0  0.86143  0.53561  0.54869  1.0000
  S   S171      1.0  0.84957  0.74341  0.22023  1.0000
  H   H679      1.0  0.81493  0.60976  0.12868  1.0000
  Fe  Fe84      1.0  0.81114  0.75524  0.19803  1.0000
  H   H680      1.0  0.81169  0.68335  0.49603  1.0000
  Fe  Fe85      1.0  0.83418  0.70666  0.21812  1.0000
  S   S172      1.0  0.84286  0.67954  0.28564  1.0000
  C   C427      1.0  0.91717  0.73790  0.16495  1.0000
  S   S173      1.0  0.82335  0.55030  0.35633  1.0000
  H   H681      1.0  0.82271  0.60059  0.99973  1.0000
  H   H682      1.0  0.00900  0.70314  0.24786  1.0000
  C   C428      1.0  0.82516  0.65411  0.27664  1.0000
  C   C429      1.0  0.82863  0.63459  0.31298  1.0000
  C   C430      1.0  0.81449  0.61417  0.30607  1.0000
  H   H683      1.0  0.97458  0.76756  0.09825  1.0000
  H   H684      1.0  0.84241  0.63515  0.34612  1.0000
  H   H685      1.0  0.81735  0.59917  0.33410  1.0000
  C   C431      1.0  0.81295  0.70476  0.96778  1.0000
  C   C432      1.0  0.82264  0.64763  0.01702  1.0000
  H   H686      1.0  0.84054  0.70697  0.90166  1.0000
  Fe  Fe86      1.0  0.85434  0.73852  0.12622  1.0000
  Fe  Fe87      1.0  0.01368  0.77726  0.17959  1.0000
  H   H687      1.0  0.94128  0.72827  0.23451  1.0000
  C   C433      1.0  0.96050  0.74820  0.17021  1.0000
  H   H688      1.0  0.81105  0.64839  0.43371  1.0000
  H   H689      1.0  0.86518  0.55913  0.43234  1.0000
  H   H690      1.0  0.80654  0.76894  0.68396  1.0000
  C   C434      1.0  0.93985  0.73713  0.19369  1.0000
  S   S174      1.0  0.82415  0.57590  0.50918  1.0000
  H   H691      1.0  0.82527  0.71043  0.00101  1.0000
  H   H692      1.0  0.90124  0.72953  0.18352  1.0000
  H   H693      1.0  0.82529  0.66426  0.04164  1.0000
  S   S175      1.0  0.98841  0.74816  0.20791  1.0000
  C   C435      1.0  0.88225  0.55518  0.45705  1.0000
  H   H694      1.0  0.84117  0.64101  0.00325  1.0000
  S   S176      1.0  0.81696  0.75351  0.10360  1.0000
  H   H695      1.0  0.88159  0.56708  0.49485  1.0000
  H   H696      1.0  0.81121  0.75255  0.88542  1.0000
  H   H697      1.0  0.93468  0.76872  0.04722  1.0000
  S   S177      1.0  0.84253  0.70047  0.12577  1.0000
  C   C436      1.0  0.80718  0.65339  0.23419  1.0000
  H   H698      1.0  0.01083  0.71667  0.31629  1.0000
  N   N42       1.0  0.88381  0.52984  0.47399  1.0000
  H   H699      1.0  0.82897  0.62105  0.56673  1.0000
  Fe  Fe88      1.0  0.80481  0.55578  0.44068  1.0000
  C   C437      1.0  0.82161  0.70271  0.91165  1.0000
  H   H700      1.0  0.81680  0.68845  0.39079  1.0000
  H   H701      1.0  0.82870  0.63858  0.12790  1.0000
  C   C438      1.0  0.93603  0.76000  0.08825  1.0000
  C   C439      1.0  0.01920  0.70250  0.28896  1.0000
  C   C440      1.0  0.91521  0.74950  0.11235  1.0000
  C   C441      1.0  0.82458  0.62284  0.10110  1.0000
  S   S178      1.0  0.81594  0.69609  0.79727  1.0000
  S   S179      1.0  0.88673  0.75232  0.07737  1.0000
  H   H702      1.0  0.01561  0.68502  0.30936  1.0000
  H   H703      1.0  0.04209  0.74431  0.28340  1.0000
  H   H704      1.0  0.81213  0.65265  0.97799  1.0000
  H   H705      1.0  0.90738  0.53648  0.54530  1.0000
  C   C442      1.0  0.80240  0.59525  0.54067  1.0000
  N   N43       1.0  0.80949  0.62970  0.05116  1.0000
  H   H706      1.0  0.03991  0.73190  0.21373  1.0000
  H   H707      1.0  0.81348  0.77333  0.43107  1.0000
  H   H708      1.0  0.04660  0.68890  0.19884  1.0000
  C   C443      1.0  0.80561  0.69602  0.86808  1.0000
  Fe  Fe89      1.0  0.80465  0.71598  0.11164  1.0000
  C   C444      1.0  0.80960  0.61688  0.56422  1.0000
  H   H709      1.0  0.80429  0.66844  0.20620  1.0000
  H   H710      1.0  0.80125  0.76540  0.81917  1.0000
  N   N44       1.0  0.04588  0.70619  0.28020  1.0000
  C   C445      1.0  0.80508  0.60851  0.01589  1.0000
  Fe  Fe90      1.0  0.02428  0.82929  0.19403  1.0000
  S   S180      1.0  0.00844  0.86385  0.22631  1.0000
  Fe  Fe91      1.0  0.88211  0.87774  0.33870  1.0000
  S   S181      1.0  0.88407  0.90285  0.26460  1.0000
  S   S182      1.0  0.90878  0.84803  0.35867  1.0000
  Fe  Fe92      1.0  0.83088  0.89440  0.37234  1.0000
  S   S183      1.0  0.82755  0.92123  0.30167  1.0000
  S   S184      1.0  0.80166  0.88311  0.43352  1.0000
  Fe  Fe93      1.0  0.84518  0.89297  0.24791  1.0000
  H   H711      1.0  0.87586  0.80076  0.12985  1.0000
  Fe  Fe94      1.0  0.86673  0.92931  0.32448  1.0000
  S   S185      1.0  0.88165  0.96608  0.31852  1.0000
  S   S186      1.0  0.84474  0.86524  0.31607  1.0000
  S   S187      1.0  0.86850  0.90511  0.40079  1.0000
  C   C446      1.0  0.85873  0.98573  0.29320  1.0000
  H   H712      1.0  0.81952  0.92128  0.08094  1.0000
  S   S188      1.0  0.03213  0.79742  0.24909  1.0000
  H   H713      1.0  0.89436  0.78814  0.21895  1.0000
  C   C447      1.0  0.83437  0.98384  0.31218  1.0000
  H   H714      1.0  0.80806  0.96190  0.75448  1.0000
  H   H715      1.0  0.88348  0.00442  0.23756  1.0000
  H   H716      1.0  0.82983  0.97095  0.34465  1.0000
  H   H717      1.0  0.87822  0.85102  0.17913  1.0000
  C   C448      1.0  0.91016  0.80013  0.21137  1.0000
  C   C449      1.0  0.83473  0.95383  0.15581  1.0000
  H   H718      1.0  0.82488  0.79762  0.15052  1.0000
  C   C450      1.0  0.80270  0.92583  0.48889  1.0000
  C   C451      1.0  0.80173  0.90104  0.49402  1.0000
  C   C452      1.0  0.94788  0.98265  0.28300  1.0000
  C   C453      1.0  0.80096  0.85591  0.22000  1.0000
  H   H719      1.0  0.93942  0.82393  0.13969  1.0000
  H   H720      1.0  0.92038  0.85042  0.13477  1.0000
  H   H721      1.0  0.92948  0.94674  0.34641  1.0000
  C   C454      1.0  0.98121  0.85922  0.26476  1.0000
  C   C455      1.0  0.96538  0.87855  0.27588  1.0000
  C   C456      1.0  0.94322  0.87521  0.30541  1.0000
  C   C457      1.0  0.93708  0.85254  0.32476  1.0000
  C   C458      1.0  0.95312  0.83323  0.31468  1.0000
  C   C459      1.0  0.97499  0.83650  0.28383  1.0000
  H   H722      1.0  0.97029  0.89597  0.26097  1.0000
  H   H723      1.0  0.93102  0.89016  0.31397  1.0000
  H   H724      1.0  0.94849  0.81567  0.32985  1.0000
  H   H725      1.0  0.98703  0.82146  0.27525  1.0000
  C   C460      1.0  0.82175  0.01582  0.24828  1.0000
  H   H726      1.0  0.83901  0.84463  0.44200  1.0000
  C   C461      1.0  0.93886  0.94602  0.23471  1.0000
  C   C462      1.0  0.80137  0.81287  0.21526  1.0000
  H   H727      1.0  0.96000  0.95374  0.36939  1.0000
  C   C463      1.0  0.81009  0.97656  0.78587  1.0000
  H   H728      1.0  0.94268  0.92658  0.23123  1.0000
  C   C464      1.0  0.80131  0.97749  0.11643  1.0000
  H   H729      1.0  0.95912  0.99158  0.31587  1.0000
  C   C465      1.0  0.94938  0.94541  0.33456  1.0000
  H   H730      1.0  0.80378  0.83519  0.37881  1.0000
  H   H731      1.0  0.91701  0.80598  0.25355  1.0000
  C   C466      1.0  0.81760  0.81379  0.16891  1.0000
  H   H732      1.0  0.95459  0.92618  0.33383  1.0000
  H   H733      1.0  0.89238  0.84298  0.24541  1.0000
  C   C467      1.0  0.86465  0.00285  0.25223  1.0000
  S   S189      1.0  0.81496  0.99042  0.96645  1.0000
  H   H734      1.0  0.93364  0.84162  0.20166  1.0000
  C   C468      1.0  0.80987  0.81618  0.38067  1.0000
  N   N45       1.0  0.95417  0.95699  0.27910  1.0000
  H   H735      1.0  0.80728  0.94317  0.92779  1.0000
  H   H736      1.0  0.90566  0.80119  0.09690  1.0000
  H   H737      1.0  0.99264  0.96195  0.29686  1.0000
  H   H738      1.0  0.81356  0.01382  0.71418  1.0000
  S   S190      1.0  0.04758  0.80600  0.99214  1.0000
  H   H739      1.0  0.80441  0.79206  0.93106  1.0000
  H   H740      1.0  0.85756  0.82249  0.40640  1.0000
  Fe  Fe95      1.0  0.81016  0.02558  0.01067  1.0000
  C   C469      1.0  0.92505  0.83481  0.16218  1.0000
  H   H741      1.0  0.92815  0.98560  0.29483  1.0000
  N   N46       1.0  0.90299  0.82068  0.17520  1.0000
  H   H742      1.0  0.82920  0.98328  0.78206  1.0000
  H   H743      1.0  0.91884  0.94834  0.24427  1.0000
  S   S191      1.0  0.83303  0.88316  0.16084  1.0000
  H   H744      1.0  0.94222  0.95413  0.19219  1.0000
  H   H745      1.0  0.81340  0.02194  0.81850  1.0000
  N   N47       1.0  0.82212  0.81042  0.43528  1.0000
  H   H746      1.0  0.84217  0.93561  0.16486  1.0000
  C   C470      1.0  0.81765  0.85676  0.17457  1.0000
  C   C471      1.0  0.81258  0.93983  0.07391  1.0000
  C   C472      1.0  0.89213  0.81212  0.12164  1.0000
  H   H747      1.0  0.98486  0.96252  0.22255  1.0000
  C   C473      1.0  0.98056  0.95396  0.26413  1.0000
  C   C474      1.0  0.84411  0.82534  0.44180  1.0000
  N   N48       1.0  0.81033  0.95300  0.12805  1.0000
  C   C475      1.0  0.82538  0.83577  0.14782  1.0000
  H   H748      1.0  0.95092  0.99194  0.24173  1.0000
  H   H749      1.0  0.98601  0.93482  0.26063  1.0000
  H   H750      1.0  0.85392  0.82142  0.48237  1.0000
  H   H751      1.0  0.83856  0.83638  0.11324  1.0000
  H   H752      1.0  0.82554  0.94866  0.04401  1.0000
  H   H753      1.0  0.88596  0.82713  0.09387  1.0000
  C   C476      1.0  0.81593  0.99903  0.29010  1.0000
  C   C477      1.0  0.84611  0.01772  0.22932  1.0000
  H   H754      1.0  0.81452  0.98724  0.08908  1.0000
  H   H755      1.0  0.83365  0.96354  0.19690  1.0000
  H   H756      1.0  0.82243  0.81293  0.34379  1.0000
  H   H757      1.0  0.92516  0.78929  0.19126  1.0000
  H   H758      1.0  0.80826  0.96866  0.82911  1.0000
  H   H759      1.0  0.80567  0.93393  0.44764  1.0000
  S   S192      1.0  0.00308  0.80954  0.12819  1.0000
  C   C478      1.0  0.80478  0.81511  0.48282  1.0000
  H   H760      1.0  0.84839  0.96308  0.12851  1.0000
  Fe  Fe96      1.0  0.04007  0.80447  0.08618  1.0000
  C   C479      1.0  0.88460  0.83566  0.20564  1.0000
  H   H761      1.0  0.81342  0.81101  0.52475  1.0000
  H   H762      1.0  0.80300  0.79912  0.76019  1.0000
  H   H763      1.0  0.86806  0.82531  0.21768  1.0000
  C   C480      1.0  0.82969  0.78503  0.43585  1.0000
  H   H764      1.0  0.84275  0.78084  0.40044  1.0000
  H   H765      1.0  0.83890  0.78004  0.47658  1.0000
  H   H766      1.0  0.79886  0.92231  0.17530  1.0000
  H   H767      1.0  0.79888  0.98787  0.15635  1.0000
  H   H768      1.0  0.79859  0.83411  0.48351  1.0000
