data_image0
_chemical_formula_structural       FeSC3HFeSNSFeS2FeH2Fe2S2C3H2CFeSHC3H2C6H5NH2S3H2CHFeHCSHCH4SH2CH3CH2SH3CHNHSNH2CFeHC2H2CHCH3CH9CSCH4C3HFeCHFeSHFeSCFe2S2H2C2HCH2CH3CH4C2HSC2H7C2H2CHSCHNHCSHCS2HCHC2HCHNCH3SH5NHCHCH2CFeH3C2H2SCSFeHFeSC2FeS2FeSCFe2S2H2CHC2H3SH2NC7H5FeHNC4H2CH2SH3SH4SHSHCHNFeHCH2CH6SH2CHCHSCHCH2CSCNFeSNFeC2Fe2S4C4H2NC2H3SNCHFeH2CH6FeHCHSCHCSCH4CH2C2H3CHCSH3CHCHCH3C2H3CH2CH3CSCHNH4C2HSH3CHC2SHFeSCHFeCSCSC3HCH3SH2CH5NH2CH2C2H2SH3SC3HFeHCH2SCHSHCH2SHCH3FeC3SHCHC2SCFeSH2SCHCH5C4HSHCH6CNCHCSCH2CH2CFeC3HSHFeCNHCHC2H2CFeH2CHNC2HCH3SFeS2FeSHFeHFeS3H2C2HCHCH2CHCNHC6H4C4H2CH3SCHCH2CHSH5CH2NCSH2FeC2HCH3CSCH2FeSFeHSH2CH2C2HC3H4SC5HCH3CH2CHSNC2H2FeHSC3SH3CSH5C4S2FeS2FeS2FeHFeS3C2HCH5CNHC5NH5CH3SH2C2H2CH3FeHCHC2H6C2HCHSH2SHFeS2C2H2C4NH2CH2CHCHC2H3CH3CHNH2SHCHCH2CH3CHCH4NCH2FeCH2CHCHSH3C2H2C2H2C2HCSFeS2FeS2FeS2FeSFeHS2HCH2SCNH6C7H5CHCH4C3H4CH2CHCHSH2SCFeSH2FeC5HFeH2CSC2H2CHSHCH2C3NCHNC5H7CH2CHCH3CH6SFeS2FeS2FeS2FeHFeHS2H5SH3C2SH2C6H5NC2HCHC2H4CH3C2HNHCH3CHC2HCHCH2CSHS2H3C2FeHC2HSH2CH3C2HCNH7S2CHSFeCH5SFeH3CH2NHC3H3SCHSH2CHCHCHC4HNCHCH2C3H6C3H2CH3SH3CSHSH2SHSFeSFeH2CFeSFeSFeSFeS3C3H3FeCH2SC6H6C2H2CHCH4CH2C2SCH2SH2N2H7CHCH2CHFeC2HSHFeSFeSFeCFeS4HCH3CH4NH2C2H3C2H2SH2SHC2HC2SCHCHSCH2CHFeHCH2C5H3NSHC3H2NCH2CH3CH2NH2CH2C2H3C3FeSFeSFeSFeHSHFeSFeSFeCFeS3H2CHC2HNCH2C6H6SCH4NC3H3C2HCNH4SH5NHCHSH2CHSHSHCH6CHCHC2FeCH4CHCH4FeSHSFeHFeHSH2SH4CHC3H3SH3C2H5CH3C2FeC2HC2H2CHSH2CH2NCH2NHC5H2C2SHC2HCNSFeCH3SFeHCHCH3S
_chemical_formula_sum              "Fe96 S192 C480 H768 N48"
_cell_length_a       39.9438
_cell_length_b       39.6461
_cell_length_c       47.2607
_cell_angle_alpha    90.1442
_cell_angle_beta     89.938
_cell_angle_gamma    89.9464

_space_group_name_H-M_alt    "P 1"
_space_group_IT_number       1

loop_
  _space_group_symop_operation_xyz
  'x, y, z'

loop_
  _atom_site_type_symbol
  _atom_site_label
  _atom_site_symmetry_multiplicity
  _atom_site_fract_x
  _atom_site_fract_y
  _atom_site_fract_z
  _atom_site_occupancy
  Fe  Fe1       1.0  0.26293  0.44373  0.18670  1.0000
  S   S1        1.0  0.27795  0.39346  0.20484  1.0000
  C   C1        1.0  0.07329  0.38208  0.24706  1.0000
  C   C2        1.0  0.04996  0.39831  0.07769  1.0000
  C   C3        1.0  0.15987  0.14790  0.04767  1.0000
  H   H1        1.0  0.17710  0.15079  0.06515  1.0000
  Fe  Fe2       1.0  0.22367  0.38816  0.21644  1.0000
  S   S2        1.0  0.19122  0.34198  0.21453  1.0000
  N   N1        1.0  0.10615  0.39630  0.23904  1.0000
  S   S3        1.0  0.20761  0.43598  0.19536  1.0000
  Fe  Fe3       1.0  0.09524  0.27596  0.09109  1.0000
  S   S4        1.0  0.04870  0.29341  0.11298  1.0000
  S   S5        1.0  0.14259  0.30652  0.09096  1.0000
  Fe  Fe4       1.0  0.05958  0.21884  0.06135  1.0000
  H   H2        1.0  0.15715  0.39391  0.25316  1.0000
  H   H3        1.0  0.12743  0.38208  0.10418  1.0000
  Fe  Fe5       1.0  0.02425  0.28661  0.07046  1.0000
  Fe  Fe6       1.0  0.03875  0.23791  0.12079  1.0000
  S   S6        1.0  0.07150  0.27180  0.04848  1.0000
  S   S7        1.0  0.08808  0.22150  0.10229  1.0000
  C   C4        1.0  0.09622  0.37018  0.05476  1.0000
  C   C5        1.0  0.11437  0.38635  0.20968  1.0000
  C   C6        1.0  0.23540  0.00929  0.07442  1.0000
  H   H4        1.0  0.18171  0.21189  0.05377  1.0000
  H   H5        1.0  0.09823  0.44190  0.26293  1.0000
  C   C7        1.0  0.01592  0.11047  0.19765  1.0000
  Fe  Fe7       1.0  0.21616  0.45973  0.23804  1.0000
  S   S8        1.0  0.02170  0.22029  0.16470  1.0000
  H   H6        1.0  0.14678  0.23952  0.05963  1.0000
  C   C8        1.0  0.03075  0.15065  0.16015  1.0000
  C   C9        1.0  0.02900  0.11735  0.17059  1.0000
  C   C10       1.0  0.26301  0.06011  0.05888  1.0000
  H   H7        1.0  0.04073  0.15538  0.13924  1.0000
  H   H8        1.0  0.03781  0.09673  0.15750  1.0000
  C   C11       1.0  0.17838  0.33184  0.18007  1.0000
  C   C12       1.0  0.15315  0.30778  0.17603  1.0000
  C   C13       1.0  0.14189  0.30007  0.14867  1.0000
  C   C14       1.0  0.15638  0.31590  0.12528  1.0000
  C   C15       1.0  0.18169  0.33986  0.12928  1.0000
  C   C16       1.0  0.19247  0.34808  0.15670  1.0000
  H   H9        1.0  0.14222  0.29514  0.19408  1.0000
  H   H10       1.0  0.12232  0.28152  0.14569  1.0000
  H   H11       1.0  0.19299  0.35215  0.11123  1.0000
  H   H12       1.0  0.21205  0.36662  0.15970  1.0000
  H   H13       1.0  0.21674  0.99778  0.08894  1.0000
  N   N2        1.0  0.09189  0.10894  0.26414  1.0000
  H   H14       1.0  0.19647  0.05772  0.05177  1.0000
  H   H15       1.0  0.06641  0.38916  0.26916  1.0000
  S   S9        1.0  0.04413  0.00111  0.26176  1.0000
  S   S10       1.0  0.26982  0.47268  0.22735  1.0000
  S   S11       1.0  0.28064  0.45945  0.14252  1.0000
  H   H16       1.0  0.27395  0.04108  0.11246  1.0000
  H   H17       1.0  0.09548  0.39588  0.19440  1.0000
  C   C17       1.0  0.12732  0.16084  0.04989  1.0000
  H   H18       1.0  0.13456  0.35528  0.25669  1.0000
  Fe  Fe8       1.0  0.00372  0.03851  0.25043  1.0000
  H   H19       1.0  0.07948  0.06423  0.24058  1.0000
  C   C18       1.0  0.09964  0.38439  0.10433  1.0000
  S   S12       1.0  0.00953  0.23271  0.08010  1.0000
  H   H20       1.0  0.25985  0.99644  0.07792  1.0000
  C   C19       1.0  0.13215  0.38322  0.25835  1.0000
  H   H21       1.0  0.08957  0.35915  0.11022  1.0000
  H   H22       1.0  0.09267  0.40246  0.12136  1.0000
  H   H23       1.0  0.03947  0.40629  0.05692  1.0000
  H   H24       1.0  0.08429  0.34534  0.05908  1.0000
  S   S13       1.0  0.22913  0.41136  0.25943  1.0000
  H   H25       1.0  0.18860  0.25457  0.06479  1.0000
  H   H26       1.0  0.05303  0.39135  0.23291  1.0000
  C   C20       1.0  0.20525  0.06212  0.07384  1.0000
  H   H27       1.0  0.09221  0.43734  0.04813  1.0000
  H   H28       1.0  0.11555  0.35841  0.20741  1.0000
  H   H29       1.0  0.23099  0.04283  0.12381  1.0000
  C   C21       1.0  0.24916  0.05296  0.10813  1.0000
  H   H30       1.0  0.03805  0.37375  0.08317  1.0000
  H   H31       1.0  0.22765  0.00320  0.05235  1.0000
  S   S14       1.0  0.06616  0.17857  0.02797  1.0000
  H   H32       1.0  0.07348  0.35401  0.24577  1.0000
  H   H33       1.0  0.12932  0.42694  0.06778  1.0000
  H   H34       1.0  0.03862  0.10336  0.26063  1.0000
  C   C22       1.0  0.09762  0.07311  0.25687  1.0000
  H   H35       1.0  0.09500  0.44801  0.08502  1.0000
  N   N3        1.0  0.08683  0.39534  0.07648  1.0000
  H   H36       1.0  0.08596  0.44439  0.22651  1.0000
  S   S15       1.0  0.01610  0.06789  0.20989  1.0000
  N   N4        1.0  0.23817  0.04612  0.07883  1.0000
  H   H37       1.0  0.11954  0.17322  0.06908  1.0000
  H   H38       1.0  0.08823  0.37831  0.03329  1.0000
  C   C23       1.0  0.09554  0.12978  0.23841  1.0000
  Fe  Fe9       1.0  0.28174  0.42185  0.24585  1.0000
  H   H39       1.0  0.99752  0.19153  0.21676  1.0000
  C   C24       1.0  0.10488  0.43350  0.24113  1.0000
  C   C25       1.0  0.01951  0.17769  0.17671  1.0000
  H   H40       1.0  0.12378  0.36601  0.05420  1.0000
  H   H41       1.0  0.09024  0.15687  0.24279  1.0000
  C   C26       1.0  0.10150  0.42838  0.06905  1.0000
  H   H42       1.0  0.04179  0.41709  0.09378  1.0000
  C   C27       1.0  0.00458  0.13750  0.21423  1.0000
  H   H43       1.0  0.12118  0.12785  0.22937  1.0000
  H   H44       1.0  0.12953  0.44503  0.23577  1.0000
  H   H45       1.0  0.13931  0.39627  0.20316  1.0000
  C   C28       1.0  0.00653  0.17086  0.20384  1.0000
  H   H46       1.0  0.25177  0.08054  0.11203  1.0000
  H   H47       1.0  0.12320  0.06891  0.24828  1.0000
  H   H48       1.0  0.07775  0.12159  0.22162  1.0000
  H   H49       1.0  0.26487  0.08805  0.06067  1.0000
  H   H50       1.0  0.18572  0.05213  0.08835  1.0000
  H   H51       1.0  0.20646  0.08997  0.07678  1.0000
  H   H52       1.0  0.28834  0.04924  0.06241  1.0000
  H   H53       1.0  0.99395  0.13277  0.23488  1.0000
  H   H54       1.0  0.25611  0.05434  0.03667  1.0000
  C   C29       1.0  0.17275  0.23819  0.05111  1.0000
  S   S16       1.0  0.99217  0.32973  0.05311  1.0000
  C   C30       1.0  0.10519  0.15812  0.02713  1.0000
  H   H55       1.0  0.31104  0.46646  0.08750  1.0000
  H   H56       1.0  0.28525  0.35558  0.27026  1.0000
  H   H57       1.0  0.13912  0.28926  0.02727  1.0000
  H   H58       1.0  0.18199  0.30087  0.03193  1.0000
  C   C31       1.0  0.00396  0.35632  0.02455  1.0000
  C   C32       1.0  0.30568  0.35067  0.28470  1.0000
  C   C33       1.0  0.11649  0.11964  0.28570  1.0000
  H   H59       1.0  0.15649  0.02708  0.45384  1.0000
  Fe  Fe10      1.0  0.03534  0.01759  0.30695  1.0000
  C   C34       1.0  0.08961  0.03606  0.45157  1.0000
  H   H60       1.0  0.31831  0.16375  0.30783  1.0000
  Fe  Fe11      1.0  0.22158  0.06960  0.50174  1.0000
  S   S17       1.0  0.23573  0.01668  0.48939  1.0000
  H   H61       1.0  0.19874  0.13781  0.50229  1.0000
  Fe  Fe12      1.0  0.26636  0.10055  0.45770  1.0000
  S   S18       1.0  0.28365  0.05038  0.44135  1.0000
  C   C35       1.0  0.99863  0.38246  0.48975  1.0000
  Fe  Fe13      1.0  0.22925  0.03514  0.44451  1.0000
  Fe  Fe14      1.0  0.28852  0.03682  0.48771  1.0000
  S   S19       1.0  0.21193  0.08662  0.45733  1.0000
  S   S20       1.0  0.27451  0.08841  0.50347  1.0000
  H   H62       1.0  0.05468  0.09895  0.29587  1.0000
  H   H63       1.0  0.11384  0.05985  0.51773  1.0000
  C   C36       1.0  0.15453  0.04849  0.38875  1.0000
  C   C37       1.0  0.10390  0.46948  0.33029  1.0000
  H   H64       1.0  0.27174  0.13770  0.33508  1.0000
  C   C38       1.0  0.09659  0.04990  0.50114  1.0000
  H   H65       1.0  0.13556  0.08448  0.44426  1.0000
  H   H66       1.0  0.16086  0.03607  0.49076  1.0000
  C   C39       1.0  0.00241  0.35705  0.51080  1.0000
  H   H67       1.0  0.17208  0.43667  0.29567  1.0000
  H   H68       1.0  0.29970  0.46376  0.36447  1.0000
  H   H69       1.0  0.31910  0.21204  0.43682  1.0000
  C   C40       1.0  0.27166  0.16057  0.34878  1.0000
  H   H70       1.0  0.31910  0.14020  0.38342  1.0000
  H   H71       1.0  0.11934  0.08283  0.36944  1.0000
  H   H72       1.0  0.10141  0.10136  0.46469  1.0000
  H   H73       1.0  0.10162  0.03489  0.43028  1.0000
  C   C41       1.0  0.14291  0.02733  0.47434  1.0000
  C   C42       1.0  0.26203  0.48527  0.30264  1.0000
  H   H74       1.0  0.01391  0.44378  0.51878  1.0000
  S   S21       1.0  0.03414  0.48957  0.42700  1.0000
  C   C43       1.0  0.12952  0.44673  0.32275  1.0000
  C   C44       1.0  0.15276  0.45455  0.30125  1.0000
  H   H75       1.0  0.13127  0.42280  0.33362  1.0000
  H   H76       1.0  0.22702  0.43256  0.32290  1.0000
  H   H77       1.0  0.23997  0.48063  0.37195  1.0000
  H   H78       1.0  0.05171  0.13996  0.28002  1.0000
  H   H79       1.0  0.12651  0.38961  0.28079  1.0000
  H   H80       1.0  0.02510  0.46255  0.48573  1.0000
  H   H81       1.0  0.23658  0.48299  0.29328  1.0000
  C   C45       1.0  0.30955  0.31846  0.29656  1.0000
  C   C46       1.0  0.16492  0.01491  0.39134  1.0000
  H   H82       1.0  0.16817  0.06814  0.39965  1.0000
  H   H83       1.0  0.14128  0.09439  0.48099  1.0000
  C   C47       1.0  0.10917  0.03162  0.35656  1.0000
  H   H84       1.0  0.01944  0.38884  0.47611  1.0000
  S   S22       1.0  0.07514  0.04404  0.33445  1.0000
  C   C48       1.0  0.30410  0.20542  0.36966  1.0000
  H   H85       1.0  0.25346  0.17893  0.33984  1.0000
  N   N5        1.0  0.11303  0.04929  0.47311  1.0000
  H   H86       1.0  0.08127  0.01003  0.45679  1.0000
  C   C49       1.0  0.12689  0.05674  0.37146  1.0000
  S   S23       1.0  0.28156  0.15117  0.44074  1.0000
  H   H87       1.0  0.07399  0.06633  0.50111  1.0000
  C   C50       1.0  0.16132  0.17486  0.51314  1.0000
  S   S24       1.0  0.99569  0.05590  0.29522  1.0000
  S   S25       1.0  0.07466  0.45729  0.35683  1.0000
  H   H88       1.0  0.28855  0.22588  0.36033  1.0000
  C   C51       1.0  0.11935  0.99802  0.35936  1.0000
  H   H89       1.0  0.08884  0.02417  0.50783  1.0000
  C   C52       1.0  0.12322  0.08390  0.46538  1.0000
  C   C53       1.0  0.25301  0.43550  0.33099  1.0000
  H   H90       1.0  0.11260  0.14645  0.29193  1.0000
  C   C54       1.0  0.17708  0.14334  0.51524  1.0000
  H   H91       1.0  0.26207  0.15282  0.37000  1.0000
  N   N6        1.0  0.30548  0.17545  0.35101  1.0000
  C   C55       1.0  0.15059  0.48525  0.28683  1.0000
  H   H92       1.0  0.06694  0.05224  0.44970  1.0000
  H   H93       1.0  0.02608  0.34411  0.51324  1.0000
  H   H94       1.0  0.25403  0.42403  0.35243  1.0000
  S   S26       1.0  0.20003  0.00312  0.41244  1.0000
  H   H95       1.0  0.11424  0.10403  0.30525  1.0000
  H   H96       1.0  0.26976  0.42032  0.31703  1.0000
  H   H97       1.0  0.17082  0.19343  0.49843  1.0000
  H   H98       1.0  0.13625  0.00079  0.47940  1.0000
  H   H99       1.0  0.29202  0.29865  0.29123  1.0000
  N   N7        1.0  0.26320  0.47134  0.33159  1.0000
  H   H100      1.0  0.30090  0.20526  0.31323  1.0000
  C   C56       1.0  0.29774  0.47396  0.34262  1.0000
  H   H101      1.0  0.29311  0.19911  0.39063  1.0000
  C   C57       1.0  0.02732  0.46550  0.50909  1.0000
  H   H102      1.0  0.27982  0.47186  0.28842  1.0000
  H   H103      1.0  0.05427  0.46314  0.51467  1.0000
  C   C58       1.0  0.31735  0.18557  0.32265  1.0000
  Fe  Fe15      1.0  0.03129  0.48451  0.37931  1.0000
  H   H104      1.0  0.31570  0.45948  0.32913  1.0000
  H   H105      1.0  0.14258  0.11690  0.27779  1.0000
  H   H106      1.0  0.21382  0.48930  0.34185  1.0000
  C   C59       1.0  0.24002  0.49058  0.34995  1.0000
  C   C60       1.0  0.05774  0.11304  0.27568  1.0000
  H   H107      1.0  0.09464  0.05662  0.27576  1.0000
  H   H108      1.0  0.27504  0.39869  0.58975  1.0000
  S   S27       1.0  0.26434  0.41037  0.68441  1.0000
  C   C61       1.0  0.27109  0.41627  0.60781  1.0000
  S   S28       1.0  0.19932  0.42301  0.72628  1.0000
  Fe  Fe16      1.0  0.25129  0.40193  0.72990  1.0000
  H   H109      1.0  0.22494  0.22812  0.57435  1.0000
  Fe  Fe17      1.0  0.21468  0.43653  0.68208  1.0000
  S   S29       1.0  0.18330  0.42713  0.64313  1.0000
  C   C62       1.0  0.30173  0.46062  0.58440  1.0000
  C   C63       1.0  0.99442  0.14564  0.65275  1.0000
  Fe  Fe18      1.0  0.07188  0.27075  0.61618  1.0000
  S   S30       1.0  0.01584  0.26582  0.61889  1.0000
  S   S31       1.0  0.10696  0.28741  0.65075  1.0000
  Fe  Fe19      1.0  0.07586  0.23528  0.55992  1.0000
  S   S32       1.0  0.02038  0.22710  0.55759  1.0000
  C   C64       1.0  0.16475  0.11913  0.53400  1.0000
  Fe  Fe20      1.0  0.01673  0.28101  0.57257  1.0000
  Fe  Fe21      1.0  0.02390  0.21245  0.60380  1.0000
  S   S33       1.0  0.07205  0.29007  0.57166  1.0000
  S   S34       1.0  0.07971  0.21657  0.60431  1.0000
  H   H110      1.0  0.17185  0.30585  0.57210  1.0000
  H   H111      1.0  0.21699  0.29572  0.60625  1.0000
  C   C65       1.0  0.11634  0.10768  0.72396  1.0000
  H   H112      1.0  0.30644  0.44484  0.56531  1.0000
  C   C66       1.0  0.12123  0.15834  0.54894  1.0000
  C   C67       1.0  0.13692  0.12671  0.55095  1.0000
  H   H113      1.0  0.09948  0.16386  0.56178  1.0000
  H   H114      1.0  0.12726  0.10800  0.56545  1.0000
  H   H115      1.0  0.07802  0.14919  0.75469  1.0000
  S   S35       1.0  0.11449  0.22223  0.52697  1.0000
  H   H116      1.0  0.06174  0.09907  0.69018  1.0000
  H   H117      1.0  0.13052  0.12135  0.74069  1.0000
  N   N8        1.0  0.26975  0.45173  0.59830  1.0000
  C   C68       1.0  0.06464  0.13438  0.73820  1.0000
  C   C69       1.0  0.16220  0.38821  0.64485  1.0000
  C   C70       1.0  0.13799  0.37992  0.62450  1.0000
  C   C71       1.0  0.12061  0.34913  0.62613  1.0000
  C   C72       1.0  0.12758  0.32649  0.64804  1.0000
  C   C73       1.0  0.15217  0.33460  0.66803  1.0000
  C   C74       1.0  0.16948  0.36530  0.66642  1.0000
  H   H118      1.0  0.13222  0.39760  0.60780  1.0000
  H   H119      1.0  0.10150  0.34319  0.61073  1.0000
  H   H120      1.0  0.15772  0.31719  0.68500  1.0000
  H   H121      1.0  0.18834  0.37124  0.68202  1.0000
  H   H122      1.0  0.31112  0.02917  0.55827  1.0000
  Fe  Fe22      1.0  0.22275  0.47207  0.73902  1.0000
  H   H123      1.0  0.06313  0.15006  0.71872  1.0000
  N   N9        1.0  0.18370  0.25753  0.59027  1.0000
  C   C75       1.0  0.20627  0.24703  0.56705  1.0000
  C   C76       1.0  0.16566  0.22771  0.60110  1.0000
  C   C77       1.0  0.15935  0.28241  0.57946  1.0000
  C   C78       1.0  0.20321  0.27295  0.61351  1.0000
  H   H124      1.0  0.22011  0.26890  0.55814  1.0000
  H   H125      1.0  0.14874  0.23466  0.61896  1.0000
  C   C79       1.0  0.06352  0.08363  0.70978  1.0000
  H   H126      1.0  0.18322  0.20806  0.60893  1.0000
  H   H127      1.0  0.00061  0.47918  0.56006  1.0000
  S   S36       1.0  0.23442  0.48807  0.69390  1.0000
  H   H128      1.0  0.22174  0.25489  0.62239  1.0000
  H   H129      1.0  0.03756  0.07727  0.71623  1.0000
  H   H130      1.0  0.14107  0.28972  0.59612  1.0000
  S   S37       1.0  0.02201  0.01238  0.74307  1.0000
  H   H131      1.0  0.99945  0.19250  0.67542  1.0000
  H   H132      1.0  0.23938  0.46937  0.63285  1.0000
  H   H133      1.0  0.18649  0.28110  0.63121  1.0000
  H   H134      1.0  0.05451  0.07672  0.76611  1.0000
  S   S38       1.0  0.27456  0.45013  0.74437  1.0000
  H   H135      1.0  0.14483  0.27207  0.56135  1.0000
  S   S39       1.0  0.18279  0.07877  0.53552  1.0000
  H   H136      1.0  0.24508  0.43974  0.55913  1.0000
  C   C80       1.0  0.30022  0.34352  0.76168  1.0000
  H   H137      1.0  0.03857  0.13066  0.74592  1.0000
  N   N10       1.0  0.08130  0.10171  0.73265  1.0000
  Fe  Fe23      1.0  0.28393  0.46094  0.69816  1.0000
  H   H138      1.0  0.12963  0.08347  0.71974  1.0000
  C   C81       1.0  0.13337  0.18240  0.52993  1.0000
  H   H139      1.0  0.15010  0.21589  0.58424  1.0000
  H   H140      1.0  0.24743  0.40883  0.61864  1.0000
  C   C82       1.0  0.26424  0.47398  0.62299  1.0000
  H   H141      1.0  0.28337  0.46965  0.63966  1.0000
  H   H142      1.0  0.07605  0.05938  0.70431  1.0000
  H   H143      1.0  0.09213  0.05579  0.75516  1.0000
  H   H144      1.0  0.29189  0.41226  0.62315  1.0000
  H   H145      1.0  0.11753  0.12305  0.70429  1.0000
  H   H146      1.0  0.19189  0.23520  0.54936  1.0000
  S   S40       1.0  0.25824  0.35463  0.75544  1.0000
  H   H147      1.0  0.13721  0.47998  0.75749  1.0000
  H   H148      1.0  0.21739  0.44933  0.58809  1.0000
  C   C83       1.0  0.24183  0.45605  0.57812  1.0000
  H   H149      1.0  0.23994  0.48266  0.57083  1.0000
  C   C84       1.0  0.08065  0.08108  0.75867  1.0000
  H   H150      1.0  0.30215  0.48753  0.57766  1.0000
  S   S41       1.0  0.99959  0.16290  0.61820  1.0000
  C   C85       1.0  0.99481  0.16571  0.67716  1.0000
  H   H151      1.0  0.32076  0.37948  0.73231  1.0000
  C   C86       1.0  0.98823  0.15121  0.70388  1.0000
  H   H152      1.0  0.20749  0.05157  0.85416  1.0000
  H   H153      1.0  0.14954  0.23657  0.98185  1.0000
  C   C87       1.0  0.24158  0.01005  0.82015  1.0000
  S   S42       1.0  0.21287  0.12181  0.01902  1.0000
  C   C88       1.0  0.99501  0.40832  0.99746  1.0000
  N   N11       1.0  0.17409  0.24875  0.02115  1.0000
  Fe  Fe24      1.0  0.22503  0.08387  0.98511  1.0000
  S   S43       1.0  0.20972  0.03040  0.99288  1.0000
  N   N12       1.0  0.24408  0.01183  0.85131  1.0000
  Fe  Fe25      1.0  0.26793  0.06456  0.93529  1.0000
  C   C89       1.0  0.24519  0.45374  0.82937  1.0000
  C   C90       1.0  0.04147  0.37168  0.98606  1.0000
  Fe  Fe26      1.0  0.20350  0.02664  0.94549  1.0000
  Fe  Fe27      1.0  0.26462  0.01910  0.98723  1.0000
  S   S44       1.0  0.21433  0.08164  0.93833  1.0000
  S   S45       1.0  0.27997  0.07275  0.98108  1.0000
  S   S46       1.0  0.25696  0.00937  0.94066  1.0000
  S   S47       1.0  0.16102  0.99652  0.92457  1.0000
  C   C91       1.0  0.22013  0.40553  0.85221  1.0000
  C   C92       1.0  0.03191  0.34929  0.00771  1.0000
  C   C93       1.0  0.14110  0.03347  0.87717  1.0000
  C   C94       1.0  0.12316  0.03746  0.85162  1.0000
  H   H154      1.0  0.15802  0.05297  0.88434  1.0000
  H   H155      1.0  0.12688  0.05995  0.83911  1.0000
  N   N13       1.0  0.99465  0.99792  0.88801  1.0000
  C   C95       1.0  0.14794  0.12791  0.00034  1.0000
  C   C96       1.0  0.30119  0.14423  0.91740  1.0000
  H   H156      1.0  0.15599  0.11570  0.98098  1.0000
  H   H157      1.0  0.09809  0.13842  0.98501  1.0000
  H   H158      1.0  0.19712  0.42027  0.85733  1.0000
  S   S48       1.0  0.30117  0.07838  0.89872  1.0000
  N   N14       1.0  0.23596  0.41786  0.82594  1.0000
  C   C97       1.0  0.26634  0.39778  0.81976  1.0000
  H   H159      1.0  0.04145  0.02383  0.89397  1.0000
  Fe  Fe28      1.0  0.02972  0.00260  0.78978  1.0000
  H   H160      1.0  0.22306  0.42421  0.78242  1.0000
  H   H161      1.0  0.20519  0.38762  0.79834  1.0000
  C   C98       1.0  0.23343  0.04563  0.86104  1.0000
  H   H162      1.0  0.22700  0.25851  0.02248  1.0000
  H   H163      1.0  0.28269  0.13646  0.93278  1.0000
  H   H164      1.0  0.12440  0.22990  0.01289  1.0000
  H   H165      1.0  0.06314  0.36589  0.97316  1.0000
  H   H166      1.0  0.21271  0.37857  0.85014  1.0000
  H   H167      1.0  0.99385  0.04547  0.86621  1.0000
  Fe  Fe29      1.0  0.01396  0.47391  0.93033  1.0000
  H   H168      1.0  0.02404  0.99417  0.84996  1.0000
  C   C99       1.0  0.17050  0.13235  0.02263  1.0000
  H   H169      1.0  0.27860  0.40621  0.79980  1.0000
  S   S49       1.0  0.03686  0.42824  0.95307  1.0000
  C   C100      1.0  0.21205  0.41444  0.80229  1.0000
  H   H170      1.0  0.21038  0.25139  0.98757  1.0000
  C   C101      1.0  0.20839  0.24367  0.01014  1.0000
  S   S50       1.0  0.08078  0.01782  0.80854  1.0000
  C   C102      1.0  0.31160  0.17806  0.91627  1.0000
  H   H171      1.0  0.25028  0.06577  0.85284  1.0000
  H   H172      1.0  0.23410  0.04748  0.88452  1.0000
  H   H173      1.0  0.26315  0.45747  0.84705  1.0000
  H   H174      1.0  0.29632  0.02528  0.85108  1.0000
  C   C103      1.0  0.27916  0.00581  0.85993  1.0000
  H   H175      1.0  0.15760  0.20125  0.00429  1.0000
  H   H176      1.0  0.22275  0.46971  0.83360  1.0000
  C   C104      1.0  0.30764  0.31810  0.78128  1.0000
  C   C105      1.0  0.02320  0.40134  0.98080  1.0000
  H   H177      1.0  0.04615  0.32653  0.01129  1.0000
  H   H178      1.0  0.18866  0.42910  0.80615  1.0000
  H   H179      1.0  0.30104  0.19631  0.93081  1.0000
  C   C106      1.0  0.11524  0.14081  0.00262  1.0000
  H   H180      1.0  0.01470  0.02316  0.92461  1.0000
  C   C107      1.0  0.10047  0.01268  0.84217  1.0000
  S   S51       1.0  0.00245  0.46465  0.88453  1.0000
  H   H181      1.0  0.08063  0.48427  0.77916  1.0000
  H   H182      1.0  0.28516  0.39982  0.83699  1.0000
  H   H183      1.0  0.26029  0.37056  0.81687  1.0000
  C   C108      1.0  0.15037  0.22833  0.00431  1.0000
  H   H184      1.0  0.09434  0.09340  0.77637  1.0000
  C   C109      1.0  0.02318  0.00815  0.90600  1.0000
  H   H185      1.0  0.21593  0.21659  0.01132  1.0000
  C   C110      1.0  0.13719  0.00421  0.89333  1.0000
  H   H186      1.0  0.25702  0.46386  0.80977  1.0000
  H   H187      1.0  0.16575  0.29380  0.99684  1.0000
  H   H188      1.0  0.23747  0.40767  0.87054  1.0000
  C   C111      1.0  0.13449  0.48937  0.77888  1.0000
  C   C112      1.0  0.16488  0.28478  0.01910  1.0000
  H   H189      1.0  0.28755  0.30549  0.79239  1.0000
  H   H190      1.0  0.21538  0.01440  0.81294  1.0000
  H   H191      1.0  0.25774  0.02941  0.80994  1.0000
  C   C113      1.0  0.31449  0.12065  0.89837  1.0000
  H   H192      1.0  0.28204  0.00711  0.88331  1.0000
  H   H193      1.0  0.04553  0.79542  0.23160  1.0000
  C   C114      1.0  0.05788  0.81004  0.21445  1.0000
  H   H194      1.0  0.07992  0.74591  0.21579  1.0000
  H   H195      1.0  0.10546  0.82100  0.17453  1.0000
  H   H196      1.0  0.02378  0.75572  0.19536  1.0000
  C   C115      1.0  0.08159  0.80926  0.16746  1.0000
  S   S52       1.0  0.00836  0.69083  0.05506  1.0000
  C   C116      1.0  0.01566  0.89139  0.17043  1.0000
  H   H197      1.0  0.08048  0.82241  0.22351  1.0000
  N   N15       1.0  0.06645  0.78836  0.18997  1.0000
  H   H198      1.0  0.08678  0.79420  0.14802  1.0000
  H   H199      1.0  0.04114  0.75600  0.16019  1.0000
  H   H200      1.0  0.09753  0.74543  0.18078  1.0000
  H   H201      1.0  0.02756  0.92967  0.20166  1.0000
  C   C117      1.0  0.03579  0.77195  0.17909  1.0000
  C   C118      1.0  0.09057  0.76216  0.19883  1.0000
  H   H202      1.0  0.30454  0.93751  0.06254  1.0000
  S   S53       1.0  0.17826  0.49546  0.25856  1.0000
  H   H203      1.0  0.06464  0.83020  0.16114  1.0000
  H   H204      1.0  0.04037  0.83058  0.20828  1.0000
  H   H205      1.0  0.11405  0.77355  0.20718  1.0000
  C   C119      1.0  0.01331  0.90706  0.19724  1.0000
  H   H206      1.0  0.01684  0.79086  0.17251  1.0000
  C   C120      1.0  0.99777  0.86169  0.16427  1.0000
  C   C121      1.0  0.99811  0.66058  0.02829  1.0000
  S   S54       1.0  0.00513  0.84065  0.13142  1.0000
  H   H207      1.0  0.03175  0.90223  0.15442  1.0000
  Fe  Fe30      1.0  0.00237  0.96350  0.26796  1.0000
  S   S55       1.0  0.99363  0.90870  0.25390  1.0000
  C   C122      1.0  0.99372  0.89267  0.21859  1.0000
  H   H208      1.0  0.15492  0.96374  0.37835  1.0000
  Fe  Fe31      1.0  0.00731  0.53913  0.42111  1.0000
  C   C123      1.0  0.99963  0.64995  0.51109  1.0000
  S   S56       1.0  0.99730  0.97623  0.31468  1.0000
  C   C124      1.0  0.01410  0.63530  0.48674  1.0000
  S   S57       1.0  0.02174  0.58689  0.44542  1.0000
  C   C125      1.0  0.00108  0.60547  0.47493  1.0000
  C   C126      1.0  0.10200  0.50039  0.31614  1.0000
  C   C127      1.0  0.12525  0.50819  0.29456  1.0000
  H   H209      1.0  0.03600  0.64678  0.47732  1.0000
  C   C128      1.0  0.14709  0.98979  0.37658  1.0000
  H   H210      1.0  0.08250  0.51819  0.32169  1.0000
  H   H211      1.0  0.24708  0.51772  0.35097  1.0000
  H   H212      1.0  0.02298  0.55108  0.51383  1.0000
  S   S58       1.0  0.00860  0.53627  0.37330  1.0000
  H   H213      1.0  0.10610  0.97839  0.34806  1.0000
  H   H214      1.0  0.03062  0.52628  0.48280  1.0000
  C   C129      1.0  0.03239  0.52618  0.50631  1.0000
  H   H215      1.0  0.26893  0.51245  0.30228  1.0000
  H   H216      1.0  0.12335  0.53207  0.28363  1.0000
  H   H217      1.0  0.05941  0.52471  0.51186  1.0000
  H   H218      1.0  0.30650  0.50061  0.34307  1.0000
  H   H219      1.0  0.01059  0.67233  0.52038  1.0000
  N   N16       1.0  0.01315  0.49802  0.51877  1.0000
  H   H220      1.0  0.04135  0.49816  0.55750  1.0000
  H   H221      1.0  0.26523  0.50110  0.61706  1.0000
  C   C130      1.0  0.00416  0.84003  0.68603  1.0000
  H   H222      1.0  0.01395  0.87715  0.71883  1.0000
  H   H223      1.0  0.02057  0.82129  0.69520  1.0000
  C   C131      1.0  0.00041  0.87169  0.69955  1.0000
  C   C132      1.0  0.01500  0.49999  0.54997  1.0000
  H   H224      1.0  0.00458  0.52430  0.55798  1.0000
  H   H225      1.0  0.31611  0.52891  0.64606  1.0000
  S   S59       1.0  0.99166  0.79173  0.64506  1.0000
  H   H226      1.0  0.22272  0.98707  0.88760  1.0000
  H   H227      1.0  0.00807  0.70940  0.98693  1.0000
  H   H228      1.0  0.00465  0.78394  0.97097  1.0000
  S   S60       1.0  0.99767  0.95554  0.78834  1.0000
  C   C133      1.0  0.12632  0.51438  0.83417  1.0000
  C   C134      1.0  0.09790  0.50448  0.81893  1.0000
  C   C135      1.0  0.15841  0.51271  0.82151  1.0000
  H   H229      1.0  0.12341  0.52456  0.85528  1.0000
  Fe  Fe32      1.0  0.02903  0.51318  0.87522  1.0000
  H   H230      1.0  0.17993  0.52169  0.83316  1.0000
  C   C136      1.0  0.99248  0.71695  0.96847  1.0000
  H   H231      1.0  0.28825  0.98062  0.85293  1.0000
  H   H232      1.0  0.03766  0.60959  0.97975  1.0000
  S   S61       1.0  0.05623  0.50969  0.83223  1.0000
  C   C137      1.0  0.16273  0.50040  0.79372  1.0000
  H   H233      1.0  0.07994  0.96374  0.85115  1.0000
  S   S62       1.0  0.04340  0.52150  0.92116  1.0000
  H   H234      1.0  0.00985  0.72499  0.95138  1.0000
  C   C138      1.0  0.01730  0.62175  0.99094  1.0000
  H   H235      1.0  0.22979  0.96002  0.85771  1.0000
  H   H236      1.0  0.03717  0.98584  0.91405  1.0000
  S   S63       1.0  0.28878  0.98382  0.01956  1.0000
  H   H237      1.0  0.24955  0.98489  0.81207  1.0000
  C   C139      1.0  0.02407  0.64328  0.01416  1.0000
  H   H238      1.0  0.11137  0.95663  0.89613  1.0000
  H   H239      1.0  0.00275  0.76644  0.00595  1.0000
  H   H240      1.0  0.04971  0.64725  0.02071  1.0000
  Fe  Fe33      1.0  0.99330  0.54824  0.92604  1.0000
  C   C140      1.0  0.22214  0.98594  0.86406  1.0000
  C   C141      1.0  0.11436  0.97954  0.88398  1.0000
  C   C142      1.0  0.09615  0.98368  0.85860  1.0000
  S   S64       1.0  0.20362  0.50058  0.77822  1.0000
  H   H241      1.0  0.02154  0.95587  0.87020  1.0000
  C   C143      1.0  0.00727  0.97856  0.86346  1.0000
  H   H242      1.0  0.19555  0.98945  0.85766  1.0000
  C   C144      1.0  0.10234  0.49184  0.79127  1.0000
  C   C145      1.0  0.43987  0.28238  0.24259  1.0000
  S   S65       1.0  0.51106  0.45619  0.05946  1.0000
  C   C146      1.0  0.48967  0.16666  0.23888  1.0000
  Fe  Fe34      1.0  0.48088  0.04006  0.18446  1.0000
  S   S66       1.0  0.46619  0.06686  0.22593  1.0000
  H   H243      1.0  0.57164  0.48519  0.11797  1.0000
  H   H244      1.0  0.45599  0.29985  0.23024  1.0000
  S   S67       1.0  0.47167  0.05062  0.13805  1.0000
  C   C147      1.0  0.37053  0.00878  0.06947  1.0000
  H   H245      1.0  0.61532  0.41135  0.08796  1.0000
  C   C148      1.0  0.40163  0.32706  0.25579  1.0000
  H   H246      1.0  0.35722  0.27644  0.25936  1.0000
  H   H247      1.0  0.45021  0.28134  0.26441  1.0000
  H   H248      1.0  0.39397  0.26997  0.20245  1.0000
  H   H249      1.0  0.64916  0.38236  0.05087  1.0000
  H   H250      1.0  0.58420  0.44169  0.07769  1.0000
  C   C149      1.0  0.38407  0.26887  0.25870  1.0000
  C   C150      1.0  0.47034  0.10832  0.24037  1.0000
  C   C151      1.0  0.48688  0.13442  0.22620  1.0000
  C   C152      1.0  0.61752  0.06066  0.07210  1.0000
  H   H251      1.0  0.41679  0.34618  0.24429  1.0000
  S   S68       1.0  0.43273  0.48261  0.10372  1.0000
  H   H252      1.0  0.49762  0.12978  0.20552  1.0000
  C   C153      1.0  0.60576  0.00105  0.07480  1.0000
  H   H253      1.0  0.40237  0.47290  0.15797  1.0000
  H   H254      1.0  0.38910  0.02850  0.07132  1.0000
  H   H255      1.0  0.44289  0.25659  0.23347  1.0000
  H   H256      1.0  0.37522  0.33613  0.25601  1.0000
  H   H257      1.0  0.36541  0.30310  0.21239  1.0000
  H   H258      1.0  0.53337  0.03634  0.23717  1.0000
  C   C154      1.0  0.59678  0.03453  0.08149  1.0000
  N   N17       1.0  0.40444  0.29332  0.24257  1.0000
  C   C155      1.0  0.39036  0.47454  0.11353  1.0000
  H   H259      1.0  0.52298  0.05354  0.27094  1.0000
  C   C156      1.0  0.39211  0.29497  0.21313  1.0000
  S   S69       1.0  0.53178  0.01681  0.17714  1.0000
  C   C157      1.0  0.34556  0.01048  0.04798  1.0000
  H   H260      1.0  0.60279  0.47840  0.16317  1.0000
  H   H261      1.0  0.40681  0.31334  0.20038  1.0000
  C   C158      1.0  0.45670  0.11497  0.26732  1.0000
  H   H262      1.0  0.58890  0.36820  0.05657  1.0000
  H   H263      1.0  0.61100  0.08654  0.07698  1.0000
  C   C159      1.0  0.33099  0.46777  0.10293  1.0000
  Fe  Fe35      1.0  0.52139  0.02377  0.13055  1.0000
  C   C160      1.0  0.47598  0.17329  0.26583  1.0000
  C   C161      1.0  0.36437  0.47248  0.09374  1.0000
  C   C162      1.0  0.34930  0.46599  0.15158  1.0000
  H   H264      1.0  0.50267  0.18655  0.22775  1.0000
  S   S70       1.0  0.55948  0.04656  0.09982  1.0000
  H   H265      1.0  0.48612  0.99562  0.24109  1.0000
  Fe  Fe36      1.0  0.44914  0.99857  0.13508  1.0000
  C   C163      1.0  0.38254  0.47128  0.14245  1.0000
  N   N18       1.0  0.60820  0.41621  0.04294  1.0000
  H   H266      1.0  0.62759  0.45142  0.07353  1.0000
  C   C164      1.0  0.64695  0.05392  0.05690  1.0000
  H   H267      1.0  0.36994  0.47446  0.07144  1.0000
  C   C165      1.0  0.60890  0.43065  0.07181  1.0000
  C   C166      1.0  0.32322  0.46442  0.13189  1.0000
  H   H268      1.0  0.34381  0.46361  0.17391  1.0000
  H   H269      1.0  0.38571  0.24310  0.24940  1.0000
  C   C167      1.0  0.63526  0.99424  0.05877  1.0000
  Fe  Fe37      1.0  0.46380  0.48699  0.06309  1.0000
  H   H270      1.0  0.55752  0.39848  0.04684  1.0000
  H   H271      1.0  0.34520  0.03142  0.03337  1.0000
  C   C168      1.0  0.53768  0.03326  0.26027  1.0000
  H   H272      1.0  0.56469  0.03805  0.26434  1.0000
  N   N19       1.0  0.52741  0.99938  0.27001  1.0000
  C   C169      1.0  0.49139  0.99448  0.26420  1.0000
  C   C170      1.0  0.58301  0.38894  0.04157  1.0000
  H   H273      1.0  0.57438  0.45374  0.02751  1.0000
  C   C171      1.0  0.64157  0.40250  0.03580  1.0000
  H   H274      1.0  0.47590  0.01453  0.27434  1.0000
  H   H275      1.0  0.39264  0.26695  0.28100  1.0000
  H   H276      1.0  0.46072  0.09375  0.50240  1.0000
  S   S71       1.0  0.48255  0.41030  0.50516  1.0000
  Fe  Fe38      1.0  0.45893  0.28885  0.36979  1.0000
  S   S72       1.0  0.41190  0.26943  0.38994  1.0000
  S   S73       1.0  0.48619  0.33627  0.38492  1.0000
  Fe  Fe39      1.0  0.45871  0.23225  0.32334  1.0000
  S   S74       1.0  0.41240  0.20906  0.34130  1.0000
  H   H277      1.0  0.47879  0.27063  0.45908  1.0000
  Fe  Fe40      1.0  0.39352  0.26205  0.34545  1.0000
  H   H278      1.0  0.48423  0.28005  0.42233  1.0000
  Fe  Fe41      1.0  0.43561  0.21852  0.38374  1.0000
  S   S75       1.0  0.43426  0.17805  0.41704  1.0000
  S   S76       1.0  0.43861  0.28537  0.32542  1.0000
  S   S77       1.0  0.48405  0.23791  0.36583  1.0000
  H   H279      1.0  0.52166  0.31131  0.47137  1.0000
  H   H280      1.0  0.48694  0.23727  0.43409  1.0000
  C   C172      1.0  0.39256  0.17032  0.42664  1.0000
  C   C173      1.0  0.38134  0.13726  0.43111  1.0000
  H   H281      1.0  0.51895  0.01573  0.31283  1.0000
  C   C174      1.0  0.53687  0.30337  0.45272  1.0000
  H   H282      1.0  0.39860  0.11638  0.42887  1.0000
  C   C175      1.0  0.33641  0.19109  0.43529  1.0000
  H   H283      1.0  0.35390  0.16127  0.36723  1.0000
  H   H284      1.0  0.37867  0.22276  0.42631  1.0000
  C   C176      1.0  0.32829  0.37636  0.29150  1.0000
  H   H285      1.0  0.52814  0.25045  0.48711  1.0000
  C   C177      1.0  0.32482  0.15807  0.43866  1.0000
  N   N20       1.0  0.52974  0.26816  0.44423  1.0000
  H   H286      1.0  0.53580  0.21820  0.46105  1.0000
  C   C178      1.0  0.47983  0.39301  0.47037  1.0000
  C   C179      1.0  0.46124  0.36327  0.46601  1.0000
  C   C180      1.0  0.46096  0.34688  0.43944  1.0000
  C   C181      1.0  0.48041  0.35931  0.41709  1.0000
  C   C182      1.0  0.49861  0.38928  0.42133  1.0000
  C   C183      1.0  0.49802  0.40626  0.44765  1.0000
  H   H287      1.0  0.44700  0.35284  0.48339  1.0000
  H   H288      1.0  0.44626  0.32429  0.43651  1.0000
  H   H289      1.0  0.51379  0.39919  0.40430  1.0000
  H   H290      1.0  0.51265  0.42895  0.45066  1.0000
  C   C184      1.0  0.54766  0.26046  0.41758  1.0000
  C   C185      1.0  0.33622  0.31178  0.31496  1.0000
  C   C186      1.0  0.35472  0.36976  0.31014  1.0000
  C   C187      1.0  0.35879  0.33747  0.32175  1.0000
  H   H291      1.0  0.41156  0.15055  0.51651  1.0000
  H   H292      1.0  0.37857  0.13681  0.49342  1.0000
  C   C188      1.0  0.49335  0.26379  0.43981  1.0000
  H   H293      1.0  0.37924  0.33262  0.33619  1.0000
  H   H294      1.0  0.56849  0.24726  0.47044  1.0000
  H   H295      1.0  0.57518  0.26361  0.42000  1.0000
  S   S78       1.0  0.34162  0.27094  0.32851  1.0000
  C   C189      1.0  0.40474  0.13145  0.50024  1.0000
  H   H296      1.0  0.53948  0.27761  0.40020  1.0000
  C   C190      1.0  0.54106  0.24498  0.46671  1.0000
  H   H297      1.0  0.56372  0.30702  0.45812  1.0000
  H   H298      1.0  0.54282  0.23413  0.41041  1.0000
  C   C191      1.0  0.37011  0.19718  0.42910  1.0000
  H   H299      1.0  0.33852  0.10550  0.43949  1.0000
  S   S79       1.0  0.33725  0.01155  0.50197  1.0000
  H   H300      1.0  0.37223  0.38960  0.31551  1.0000
  H   H301      1.0  0.37240  0.07552  0.48199  1.0000
  H   H302      1.0  0.41042  0.32681  0.27812  1.0000
  H   H303      1.0  0.44885  0.15172  0.30069  1.0000
  H   H304      1.0  0.42133  0.13556  0.48159  1.0000
  C   C192      1.0  0.32872  0.15024  0.36304  1.0000
  H   H305      1.0  0.53114  0.32128  0.43531  1.0000
  H   H306      1.0  0.34294  0.19653  0.32373  1.0000
  N   N21       1.0  0.40795  0.09675  0.51129  1.0000
  C   C193      1.0  0.34743  0.13111  0.43721  1.0000
  S   S80       1.0  0.48011  0.21445  0.28088  1.0000
  H   H307      1.0  0.32949  0.21621  0.37331  1.0000
  H   H308      1.0  0.33217  0.12828  0.34862  1.0000
  Fe  Fe42      1.0  0.48940  0.46594  0.51765  1.0000
  C   C194      1.0  0.53346  0.99647  0.30076  1.0000
  C   C195      1.0  0.39892  0.07239  0.48882  1.0000
  H   H309      1.0  0.56042  0.00002  0.30593  1.0000
  C   C196      1.0  0.45941  0.14718  0.27995  1.0000
  H   H310      1.0  0.41504  0.07531  0.46978  1.0000
  H   H311      1.0  0.44388  0.09504  0.27853  1.0000
  H   H312      1.0  0.40162  0.04591  0.49623  1.0000
  C   C197      1.0  0.44287  0.09062  0.52032  1.0000
  S   S81       1.0  0.32414  0.41675  0.27681  1.0000
  C   C198      1.0  0.49442  0.15485  0.75984  1.0000
  H   H313      1.0  0.59752  0.47790  0.59961  1.0000
  H   H314      1.0  0.33711  0.02619  0.60602  1.0000
  Fe  Fe43      1.0  0.50955  0.03937  0.67333  1.0000
  S   S82       1.0  0.51973  0.08961  0.69609  1.0000
  Fe  Fe44      1.0  0.53120  0.99868  0.62039  1.0000
  H   H315      1.0  0.46421  0.48814  0.62915  1.0000
  S   S83       1.0  0.49478  0.04168  0.62714  1.0000
  H   H316      1.0  0.39085  0.45105  0.64643  1.0000
  H   H317      1.0  0.44932  0.26113  0.74119  1.0000
  C   C199      1.0  0.45996  0.10533  0.76557  1.0000
  H   H318      1.0  0.44591  0.20511  0.69475  1.0000
  H   H319      1.0  0.46734  0.21944  0.74172  1.0000
  C   C200      1.0  0.38527  0.09247  0.53577  1.0000
  C   C201      1.0  0.35134  0.01830  0.58766  1.0000
  H   H320      1.0  0.40256  0.21179  0.68632  1.0000
  C   C202      1.0  0.50926  0.13988  0.73571  1.0000
  C   C203      1.0  0.49961  0.10752  0.72635  1.0000
  C   C204      1.0  0.47467  0.09043  0.74138  1.0000
  H   H321      1.0  0.32331  0.45689  0.59894  1.0000
  H   H322      1.0  0.50279  0.17929  0.76715  1.0000
  H   H323      1.0  0.52877  0.15319  0.72445  1.0000
  H   H324      1.0  0.46702  0.06554  0.73458  1.0000
  S   S84       1.0  0.48071  0.47955  0.56382  1.0000
  C   C205      1.0  0.42375  0.22137  0.69931  1.0000
  C   C206      1.0  0.32627  0.35978  0.74741  1.0000
  C   C207      1.0  0.35128  0.48795  0.64911  1.0000
  C   C208      1.0  0.33647  0.01991  0.56060  1.0000
  C   C209      1.0  0.37946  0.47277  0.63647  1.0000
  H   H325      1.0  0.42946  0.16903  0.73438  1.0000
  C   C210      1.0  0.44418  0.23415  0.74608  1.0000
  H   H326      1.0  0.36346  0.23364  0.72332  1.0000
  H   H327      1.0  0.39060  0.26934  0.72839  1.0000
  H   H328      1.0  0.42979  0.24734  0.69197  1.0000
  C   C211      1.0  0.39317  0.48555  0.61111  1.0000
  H   H329      1.0  0.37970  0.36268  0.74116  1.0000
  H   H330      1.0  0.38581  0.17578  0.72760  1.0000
  C   C212      1.0  0.35426  0.00912  0.53671  1.0000
  H   H331      1.0  0.38957  0.11208  0.55223  1.0000
  S   S85       1.0  0.33700  0.47317  0.68252  1.0000
  N   N22       1.0  0.41540  0.22112  0.72978  1.0000
  C   C213      1.0  0.40800  0.18620  0.73876  1.0000
  C   C214      1.0  0.38585  0.24279  0.73496  1.0000
  H   H332      1.0  0.43938  0.23257  0.76916  1.0000
  H   H333      1.0  0.62111  0.01583  0.59855  1.0000
  Fe  Fe45      1.0  0.45676  0.00239  0.63851  1.0000
  H   H334      1.0  0.37930  0.24370  0.75784  1.0000
  S   S86       1.0  0.54902  0.99886  0.66572  1.0000
  C   C215      1.0  0.35962  0.35024  0.75242  1.0000
  C   C216      1.0  0.63421  0.48927  0.63207  1.0000
  C   C217      1.0  0.62494  0.00594  0.57743  1.0000
  S   S87       1.0  0.46924  0.00242  0.68526  1.0000
  H   H335      1.0  0.49126  0.48698  0.65945  1.0000
  H   H336      1.0  0.41452  0.47331  0.60141  1.0000
  H   H337      1.0  0.40293  0.18480  0.76194  1.0000
  C   C218      1.0  0.38441  0.00673  0.59115  1.0000
  S   S88       1.0  0.40140  0.00402  0.62589  1.0000
  H   H338      1.0  0.64599  0.46473  0.63073  1.0000
  H   H339      1.0  0.44610  0.06447  0.52857  1.0000
  H   H340      1.0  0.38921  0.06768  0.54616  1.0000
  H   H341      1.0  0.45048  0.10824  0.53751  1.0000
  H   H342      1.0  0.35846  0.09364  0.52931  1.0000
  C   C219      1.0  0.36707  0.32490  0.77208  1.0000
  C   C220      1.0  0.40236  0.99632  0.56723  1.0000
  C   C221      1.0  0.38719  0.99708  0.54026  1.0000
  C   C222      1.0  0.49952  0.31991  0.92491  1.0000
  S   S89       1.0  0.45077  0.48051  0.01696  1.0000
  S   S90       1.0  0.51610  0.40297  0.99270  1.0000
  Fe  Fe46      1.0  0.46041  0.26710  0.86663  1.0000
  S   S91       1.0  0.41083  0.29205  0.85997  1.0000
  S   S92       1.0  0.49713  0.28573  0.90027  1.0000
  Fe  Fe47      1.0  0.44327  0.20741  0.82535  1.0000
  S   S93       1.0  0.39176  0.22853  0.81774  1.0000
  S   S94       1.0  0.44995  0.15489  0.80564  1.0000
  Fe  Fe48      1.0  0.41806  0.27824  0.81430  1.0000
  H   H343      1.0  0.54392  0.29863  0.94340  1.0000
  Fe  Fe49      1.0  0.39015  0.23965  0.86420  1.0000
  S   S95       1.0  0.34818  0.23074  0.89512  1.0000
  S   S96       1.0  0.46998  0.25712  0.82007  1.0000
  S   S97       1.0  0.43935  0.21481  0.87258  1.0000
  C   C223      1.0  0.47664  0.34695  0.92638  1.0000
  C   C224      1.0  0.46047  0.23605  0.95346  1.0000
  H   H344      1.0  0.34890  0.11274  0.86381  1.0000
  C   C225      1.0  0.34906  0.16463  0.87754  1.0000
  H   H345      1.0  0.45609  0.34804  0.91152  1.0000
  H   H346      1.0  0.55096  0.34332  0.97901  1.0000
  H   H347      1.0  0.36760  0.17229  0.86215  1.0000
  H   H348      1.0  0.46341  0.39386  0.94781  1.0000
  H   H349      1.0  0.56462  0.00662  0.99519  1.0000
  C   C226      1.0  0.46967  0.13761  0.77497  1.0000
  N   N23       1.0  0.42451  0.24384  0.95706  1.0000
  H   H350      1.0  0.58143  0.03845  0.93721  1.0000
  C   C227      1.0  0.53008  0.34467  0.96452  1.0000
  C   C228      1.0  0.63574  0.04331  0.97034  1.0000
  C   C229      1.0  0.52605  0.31915  0.94423  1.0000
  C   C230      1.0  0.50782  0.37191  0.96610  1.0000
  C   C231      1.0  0.48083  0.37298  0.94693  1.0000
  N   N24       1.0  0.60956  0.01699  0.97155  1.0000
  H   H351      1.0  0.37708  0.21844  0.95308  1.0000
  H   H352      1.0  0.47634  0.25863  0.95761  1.0000
  H   H353      1.0  0.40831  0.20456  0.92871  1.0000
  H   H354      1.0  0.39135  0.26123  0.98979  1.0000
  H   H355      1.0  0.38769  0.27696  0.93870  1.0000
  C   C232      1.0  0.41824  0.25493  0.98647  1.0000
  H   H356      1.0  0.46875  0.21560  0.96790  1.0000
  H   H357      1.0  0.41095  0.19213  0.96512  1.0000
  H   H358      1.0  0.43314  0.27787  0.99173  1.0000
  S   S98       1.0  0.40898  0.31281  0.77738  1.0000
  H   H359      1.0  0.46615  0.22781  0.93142  1.0000
  H   H360      1.0  0.42027  0.26396  0.91523  1.0000
  C   C233      1.0  0.40440  0.21340  0.95086  1.0000
  C   C234      1.0  0.41493  0.27115  0.93746  1.0000
  H   H361      1.0  0.42916  0.29473  0.94175  1.0000
  H   H362      1.0  0.42514  0.23493  0.00189  1.0000
  C   C235      1.0  0.34103  0.30896  0.78665  1.0000
  H   H363      1.0  0.59791  0.43296  0.00048  1.0000
  H   H364      1.0  0.34656  0.28946  0.80190  1.0000
  H   H365      1.0  0.58135  0.37794  0.01990  1.0000
  Fe  Fe50      1.0  0.50017  0.45331  0.01258  1.0000
  H   H366      1.0  0.62508  0.06832  0.96469  1.0000
  C   C236      1.0  0.58452  0.02612  0.99334  1.0000
  H   H367      1.0  0.61141  0.00677  0.92688  1.0000
  C   C237      1.0  0.33547  0.18831  0.89629  1.0000
  C   C238      1.0  0.33843  0.13091  0.87849  1.0000
  H   H368      1.0  0.57220  0.05063  0.98852  1.0000
  H   H369      1.0  0.59628  0.02871  0.01460  1.0000
  H   H370      1.0  0.64186  0.39145  0.01411  1.0000
  H   H371      1.0  0.64854  0.04627  0.99111  1.0000
  H   H372      1.0  0.44098  0.09165  0.77715  1.0000
  H   H373      1.0  0.57313  0.99458  0.94384  1.0000
  C   C239      1.0  0.59310  0.01415  0.94364  1.0000
  C   C240      1.0  0.59928  0.44288  0.02251  1.0000
  H   H374      1.0  0.61747  0.46416  0.02307  1.0000
  C   C241      1.0  0.40392  0.56696  0.08906  1.0000
  H   H375      1.0  0.44795  0.91559  0.11969  1.0000
  S   S99       1.0  0.49133  0.53604  0.05672  1.0000
  H   H376      1.0  0.41210  0.89689  0.19039  1.0000
  H   H377      1.0  0.41850  0.62663  0.06461  1.0000
  S   S100      1.0  0.49807  0.97280  0.12513  1.0000
  H   H378      1.0  0.38669  0.54710  0.09716  1.0000
  Fe  Fe51      1.0  0.50458  0.96751  0.17227  1.0000
  S   S101      1.0  0.52492  0.91795  0.18974  1.0000
  S   S102      1.0  0.57664  0.70220  0.26425  1.0000
  C   C242      1.0  0.48071  0.88794  0.26365  1.0000
  C   C243      1.0  0.61372  0.67903  0.26813  1.0000
  H   H379      1.0  0.39253  0.88962  0.12781  1.0000
  H   H380      1.0  0.34148  0.57396  0.06917  1.0000
  C   C244      1.0  0.53343  0.86764  0.22891  1.0000
  C   C245      1.0  0.51453  0.89615  0.22134  1.0000
  C   C246      1.0  0.48793  0.90612  0.23875  1.0000
  C   C247      1.0  0.63311  0.67156  0.24417  1.0000
  N   N25       1.0  0.60653  0.56541  0.23080  1.0000
  H   H381      1.0  0.55396  0.85959  0.21553  1.0000
  H   H382      1.0  0.47291  0.92774  0.23305  1.0000
  C   C248      1.0  0.54703  0.97332  0.25486  1.0000
  H   H383      1.0  0.44392  0.59402  0.04918  1.0000
  H   H384      1.0  0.41013  0.84828  0.12287  1.0000
  C   C249      1.0  0.34702  0.95617  0.08563  1.0000
  H   H385      1.0  0.46537  0.87428  0.11411  1.0000
  C   C250      1.0  0.42886  0.90633  0.17335  1.0000
  H   H386      1.0  0.41972  0.53803  0.03972  1.0000
  C   C251      1.0  0.58541  0.58756  0.24862  1.0000
  C   C252      1.0  0.49979  0.85950  0.27133  1.0000
  H   H387      1.0  0.43694  0.84043  0.18379  1.0000
  H   H388      1.0  0.40392  0.58806  0.10461  1.0000
  H   H389      1.0  0.56456  0.54058  0.21134  1.0000
  C   C253      1.0  0.45310  0.85112  0.16684  1.0000
  H   H390      1.0  0.38740  0.85806  0.15476  1.0000
  H   H391      1.0  0.56254  0.59597  0.23717  1.0000
  H   H392      1.0  0.59353  0.59061  0.19203  1.0000
  C   C254      1.0  0.58771  0.53454  0.22340  1.0000
  H   H393      1.0  0.60305  0.51730  0.20997  1.0000
  N   N26       1.0  0.39409  0.57844  0.06049  1.0000
  H   H394      1.0  0.42948  0.55573  0.08905  1.0000
  H   H395      1.0  0.62518  0.68035  0.22357  1.0000
  S   S103      1.0  0.40086  0.97639  0.11651  1.0000
  H   H396      1.0  0.41628  0.92830  0.16321  1.0000
  C   C255      1.0  0.32153  0.98465  0.04531  1.0000
  H   H397      1.0  0.48347  0.90183  0.14002  1.0000
  C   C256      1.0  0.45933  0.89343  0.13057  1.0000
  H   H398      1.0  0.65327  0.53877  0.23403  1.0000
  H   H399      1.0  0.64213  0.96851  0.05383  1.0000
  C   C257      1.0  0.61594  0.58338  0.20460  1.0000
  H   H400      1.0  0.35176  0.60160  0.04032  1.0000
  H   H401      1.0  0.57727  0.57461  0.26833  1.0000
  H   H402      1.0  0.54239  0.97411  0.23163  1.0000
  C   C258      1.0  0.52616  0.84942  0.25375  1.0000
  H   H403      1.0  0.47698  0.85916  0.17707  1.0000
  C   C259      1.0  0.40526  0.86833  0.13888  1.0000
  H   H404      1.0  0.63014  0.60683  0.20933  1.0000
  H   H405      1.0  0.58033  0.52021  0.24263  1.0000
  H   H406      1.0  0.45935  0.83048  0.15174  1.0000
  H   H407      1.0  0.45205  0.91573  0.18365  1.0000
  N   N27       1.0  0.43663  0.87973  0.15241  1.0000
  C   C260      1.0  0.36001  0.59292  0.06160  1.0000
  H   H408      1.0  0.35883  0.61492  0.07623  1.0000
  H   H409      1.0  0.58993  0.98058  0.08179  1.0000
  Fe  Fe52      1.0  0.53745  0.50467  0.05000  1.0000
  C   C261      1.0  0.39442  0.54946  0.04081  1.0000
  H   H410      1.0  0.54097  0.82755  0.25929  1.0000
  H   H411      1.0  0.37676  0.52936  0.04762  1.0000
  C   C262      1.0  0.60933  0.51637  0.09867  1.0000
  H   H412      1.0  0.41162  0.61300  0.02866  1.0000
  C   C263      1.0  0.63710  0.55609  0.24659  1.0000
  H   H413      1.0  0.63207  0.56742  0.19074  1.0000
  S   S104      1.0  0.59008  0.51912  0.06474  1.0000
  H   H414      1.0  0.54042  0.94747  0.26215  1.0000
  H   H415      1.0  0.59920  0.61063  0.25518  1.0000
  H   H416      1.0  0.34712  0.93498  0.10000  1.0000
  C   C264      1.0  0.41798  0.60425  0.05040  1.0000
  C   C265      1.0  0.37129  0.98142  0.08845  1.0000
  H   H417      1.0  0.63103  0.54316  0.26680  1.0000
  H   H418      1.0  0.65144  0.54678  0.08594  1.0000
  C   C266      1.0  0.64048  0.53214  0.10288  1.0000
  C   C267      1.0  0.61329  0.49373  0.14647  1.0000
  H   H419      1.0  0.48244  0.96965  0.27210  1.0000
  H   H420      1.0  0.57440  0.97667  0.25816  1.0000
  C   C268      1.0  0.64455  0.50940  0.15058  1.0000
  C   C269      1.0  0.59558  0.49745  0.12080  1.0000
  H   H421      1.0  0.65247  0.57863  0.25184  1.0000
  C   C270      1.0  0.32271  0.95764  0.06431  1.0000
  S   S105      1.0  0.45460  0.98982  0.18198  1.0000
  Fe  Fe53      1.0  0.49801  0.53985  0.49987  1.0000
  S   S106      1.0  0.51968  0.57162  0.46350  1.0000
  S   S107      1.0  0.45348  0.50465  0.50074  1.0000
  Fe  Fe54      1.0  0.51719  0.79052  0.31898  1.0000
  S   S108      1.0  0.57182  0.78118  0.31097  1.0000
  S   S109      1.0  0.48982  0.83750  0.30296  1.0000
  Fe  Fe55      1.0  0.51008  0.72503  0.35497  1.0000
  S   S110      1.0  0.56380  0.71105  0.34826  1.0000
  S   S111      1.0  0.47584  0.69526  0.38470  1.0000
  Fe  Fe56      1.0  0.57438  0.76573  0.35656  1.0000
  S   S112      1.0  0.61637  0.77433  0.38753  1.0000
  Fe  Fe57      1.0  0.55610  0.72756  0.30337  1.0000
  H   H422      1.0  0.63574  0.73392  0.33616  1.0000
  S   S113      1.0  0.52108  0.77932  0.36576  1.0000
  S   S114      1.0  0.50098  0.73738  0.30888  1.0000
  H   H423      1.0  0.63913  0.97116  0.50125  1.0000
  C   C271      1.0  0.53451  0.73200  0.42976  1.0000
  H   H424      1.0  0.56734  0.67739  0.47771  1.0000
  H   H425      1.0  0.53614  0.75952  0.42537  1.0000
  S   S115      1.0  0.53467  0.50000  0.51460  1.0000
  C   C272      1.0  0.54192  0.73978  0.47993  1.0000
  N   N28       1.0  0.55498  0.72246  0.45449  1.0000
  H   H426      1.0  0.50760  0.72574  0.43301  1.0000
  H   H427      1.0  0.54278  0.71847  0.41031  1.0000
  H   H428      1.0  0.51547  0.73244  0.48420  1.0000
  H   H429      1.0  0.60904  0.67290  0.31318  1.0000
  H   H430      1.0  0.55688  0.73338  0.49902  1.0000
  H   H431      1.0  0.60231  0.83581  0.35630  1.0000
  C   C273      1.0  0.59010  0.73257  0.44951  1.0000
  C   C274      1.0  0.50586  0.60511  0.44130  1.0000
  C   C275      1.0  0.47537  0.62187  0.44537  1.0000
  C   C276      1.0  0.46637  0.64911  0.42767  1.0000
  C   C277      1.0  0.48775  0.66006  0.40582  1.0000
  C   C278      1.0  0.51814  0.64319  0.40169  1.0000
  C   C279      1.0  0.52705  0.61590  0.41928  1.0000
  H   H432      1.0  0.45875  0.61387  0.46215  1.0000
  H   H433      1.0  0.44271  0.66183  0.43098  1.0000
  H   H434      1.0  0.53470  0.65098  0.38482  1.0000
  H   H435      1.0  0.55059  0.60301  0.41581  1.0000
  H   H436      1.0  0.60037  0.72039  0.43007  1.0000
  C   C280      1.0  0.55326  0.68555  0.45862  1.0000
  H   H437      1.0  0.56401  0.67177  0.44018  1.0000
  C   C281      1.0  0.62231  0.84069  0.37117  1.0000
  H   H438      1.0  0.54251  0.76769  0.47730  1.0000
  H   H439      1.0  0.52691  0.67679  0.46111  1.0000
  H   H440      1.0  0.60650  0.72549  0.46754  1.0000
  H   H441      1.0  0.59231  0.76033  0.44632  1.0000
  C   C282      1.0  0.62413  0.66779  0.29470  1.0000
  C   C283      1.0  0.63739  0.87269  0.37218  1.0000
  C   C284      1.0  0.63326  0.81520  0.38935  1.0000
  H   H442      1.0  0.64180  0.79479  0.32450  1.0000
  H   H443      1.0  0.62898  0.89238  0.35806  1.0000
  H   H444      1.0  0.40115  0.98842  0.52200  1.0000
  H   H445      1.0  0.52597  0.97116  0.30881  1.0000
  C   C285      1.0  0.63546  0.98076  0.52249  1.0000
  H   H446      1.0  0.63553  0.75009  0.28662  1.0000
  H   H447      1.0  0.46014  0.89578  0.27707  1.0000
  C   C286      1.0  0.65387  0.64924  0.29733  1.0000
  H   H448      1.0  0.58304  0.96752  0.52387  1.0000
  C   C287      1.0  0.61646  0.63151  0.76720  1.0000
  H   H449      1.0  0.46248  0.89733  0.64871  1.0000
  S   S116      1.0  0.48817  0.55839  0.54406  1.0000
  H   H450      1.0  0.34019  0.55151  0.60144  1.0000
  H   H451      1.0  0.61325  0.89623  0.77041  1.0000
  S   S117      1.0  0.49169  0.95965  0.62918  1.0000
  C   C288      1.0  0.64653  0.51325  0.65148  1.0000
  Fe  Fe58      1.0  0.50726  0.96197  0.67497  1.0000
  S   S118      1.0  0.51565  0.90893  0.69365  1.0000
  H   H452      1.0  0.40364  0.89149  0.60739  1.0000
  H   H453      1.0  0.44003  0.85927  0.64110  1.0000
  Fe  Fe59      1.0  0.44699  0.51963  0.54665  1.0000
  C   C289      1.0  0.59108  0.52820  0.61587  1.0000
  C   C290      1.0  0.52404  0.83801  0.75591  1.0000
  C   C291      1.0  0.52615  0.85572  0.73006  1.0000
  C   C292      1.0  0.51306  0.88858  0.72727  1.0000
  C   C293      1.0  0.49781  0.90354  0.75085  1.0000
  H   H454      1.0  0.38170  0.92850  0.61965  1.0000
  Fe  Fe60      1.0  0.52278  0.51716  0.55909  1.0000
  H   H455      1.0  0.53794  0.84379  0.71200  1.0000
  H   H456      1.0  0.48754  0.92872  0.74915  1.0000
  C   C294      1.0  0.44020  0.88214  0.65477  1.0000
  S   S119      1.0  0.39646  0.53238  0.56726  1.0000
  C   C295      1.0  0.37930  0.51419  0.59843  1.0000
  C   C296      1.0  0.60669  0.49665  0.61435  1.0000
  H   H457      1.0  0.38235  0.87161  0.68230  1.0000
  H   H458      1.0  0.38717  0.94712  0.66932  1.0000
  C   C297      1.0  0.50277  0.55362  0.66221  1.0000
  H   H459      1.0  0.45810  0.58137  0.62580  1.0000
  S   S120      1.0  0.55592  0.53915  0.59458  1.0000
  H   H460      1.0  0.43143  0.94817  0.66492  1.0000
  C   C298      1.0  0.60342  0.55218  0.63530  1.0000
  H   H461      1.0  0.44669  0.54245  0.60902  1.0000
  H   H462      1.0  0.59157  0.57668  0.63669  1.0000
  C   C299      1.0  0.63093  0.54481  0.65299  1.0000
  C   C300      1.0  0.65049  0.62414  0.76258  1.0000
  C   C301      1.0  0.35101  0.52923  0.61098  1.0000
  N   N29       1.0  0.47480  0.53666  0.64747  1.0000
  C   C302      1.0  0.44500  0.53605  0.66606  1.0000
  H   H463      1.0  0.50954  0.54029  0.68210  1.0000
  N   N30       1.0  0.40888  0.90179  0.65198  1.0000
  C   C303      1.0  0.38008  0.88049  0.66004  1.0000
  C   C304      1.0  0.40486  0.91313  0.62236  1.0000
  C   C305      1.0  0.41030  0.93151  0.67083  1.0000
  C   C306      1.0  0.33712  0.51628  0.63616  1.0000
  C   C307      1.0  0.46676  0.55525  0.62127  1.0000
  H   H464      1.0  0.50694  0.50133  0.62599  1.0000
  H   H465      1.0  0.42604  0.92950  0.61562  1.0000
  H   H466      1.0  0.53416  0.81276  0.75755  1.0000
  H   H467      1.0  0.43720  0.56196  0.67234  1.0000
  H   H468      1.0  0.59739  0.61678  0.75666  1.0000
  H   H469      1.0  0.64965  0.91345  0.53557  1.0000
  H   H470      1.0  0.37820  0.85782  0.64619  1.0000
  C   C308      1.0  0.48471  0.50174  0.64025  1.0000
  H   H471      1.0  0.41400  0.92420  0.69334  1.0000
  H   H472      1.0  0.42321  0.52426  0.65523  1.0000
  C   C309      1.0  0.60361  0.97877  0.53538  1.0000
  H   H473      1.0  0.44449  0.87393  0.67702  1.0000
  C   C310      1.0  0.65171  0.90910  0.55878  1.0000
  H   H474      1.0  0.35609  0.89467  0.65824  1.0000
  H   H475      1.0  0.49640  0.58018  0.66766  1.0000
  H   H476      1.0  0.48892  0.55712  0.60713  1.0000
  C   C311      1.0  0.59808  0.99125  0.56294  1.0000
  H   H477      1.0  0.52565  0.55426  0.64871  1.0000
  H   H478      1.0  0.63157  0.89118  0.56489  1.0000
  H   H479      1.0  0.64621  0.93351  0.56954  1.0000
  H   H480      1.0  0.63992  0.56350  0.66786  1.0000
  H   H481      1.0  0.42770  0.98704  0.56955  1.0000
  H   H482      1.0  0.44974  0.52138  0.68570  1.0000
  S   S121      1.0  0.55727  0.98731  0.57795  1.0000
  Fe  Fe61      1.0  0.48109  0.52841  0.01030  1.0000
  S   S122      1.0  0.45680  0.57202  0.98605  1.0000
  S   S123      1.0  0.52931  0.50065  0.00276  1.0000
  Fe  Fe62      1.0  0.52805  0.78230  0.82906  1.0000
  S   S124      1.0  0.57910  0.76414  0.81595  1.0000
  S   S125      1.0  0.50483  0.83164  0.81260  1.0000
  Fe  Fe63      1.0  0.52169  0.72532  0.87506  1.0000
  S   S126      1.0  0.57276  0.70524  0.86529  1.0000
  S   S127      1.0  0.48549  0.69921  0.90572  1.0000
  Fe  Fe64      1.0  0.58866  0.75950  0.86261  1.0000
  H   H483      1.0  0.54672  0.88842  0.82457  1.0000
  Fe  Fe65      1.0  0.55784  0.71189  0.81999  1.0000
  H   H484      1.0  0.65244  0.89285  0.81095  1.0000
  S   S128      1.0  0.53866  0.77974  0.87606  1.0000
  S   S129      1.0  0.50575  0.73003  0.82943  1.0000
  H   H485      1.0  0.60436  0.83717  0.83109  1.0000
  H   H486      1.0  0.52363  0.64794  0.87640  1.0000
  H   H487      1.0  0.57041  0.92395  0.83682  1.0000
  H   H488      1.0  0.52019  0.56856  0.83427  1.0000
  H   H489      1.0  0.45746  0.63675  0.82282  1.0000
  S   S130      1.0  0.56458  0.66757  0.79057  1.0000
  H   H490      1.0  0.62491  0.69781  0.81251  1.0000
  H   H491      1.0  0.60610  0.96372  0.97989  1.0000
  H   H492      1.0  0.57432  0.88371  0.85402  1.0000
  C   C312      1.0  0.61404  0.83934  0.89342  1.0000
  C   C313      1.0  0.61777  0.87296  0.90228  1.0000
  S   S131      1.0  0.63848  0.77622  0.88020  1.0000
  H   H493      1.0  0.58933  0.82915  0.88995  1.0000
  H   H494      1.0  0.59587  0.88861  0.90548  1.0000
  C   C314      1.0  0.46830  0.60675  0.96396  1.0000
  C   C315      1.0  0.44257  0.62877  0.95602  1.0000
  C   C316      1.0  0.44891  0.65676  0.93874  1.0000
  C   C317      1.0  0.48113  0.66352  0.92855  1.0000
  C   C318      1.0  0.50734  0.64151  0.93624  1.0000
  C   C319      1.0  0.50094  0.61320  0.95399  1.0000
  H   H495      1.0  0.41731  0.62424  0.96334  1.0000
  H   H496      1.0  0.42843  0.67331  0.93306  1.0000
  H   H497      1.0  0.53249  0.64650  0.92890  1.0000
  H   H498      1.0  0.52116  0.59654  0.96002  1.0000
  H   H499      1.0  0.48304  0.89735  0.79456  1.0000
  N   N31       1.0  0.49825  0.61582  0.84679  1.0000
  C   C320      1.0  0.47589  0.60044  0.86811  1.0000
  C   C321      1.0  0.49528  0.88563  0.77662  1.0000
  H   H500      1.0  0.48837  0.57929  0.87942  1.0000
  C   C322      1.0  0.48104  0.64466  0.83340  1.0000
  H   H501      1.0  0.38779  0.55714  0.01886  1.0000
  C   C323      1.0  0.52916  0.62777  0.86070  1.0000
  C   C324      1.0  0.59308  0.90272  0.78575  1.0000
  H   H502      1.0  0.52395  0.60173  0.80858  1.0000
  H   H503      1.0  0.46819  0.61924  0.88442  1.0000
  H   H504      1.0  0.63105  0.92680  0.82870  1.0000
  H   H505      1.0  0.54705  0.63847  0.84504  1.0000
  C   C325      1.0  0.60014  0.84992  0.81041  1.0000
  H   H506      1.0  0.57622  0.84002  0.80168  1.0000
  H   H507      1.0  0.56902  0.89408  0.77634  1.0000
  H   H508      1.0  0.48435  0.58114  0.81380  1.0000
  C   C326      1.0  0.50703  0.59062  0.82491  1.0000
  C   C327      1.0  0.64226  0.81891  0.88965  1.0000
  H   H509      1.0  0.49721  0.65677  0.81711  1.0000
  N   N32       1.0  0.59899  0.88699  0.81365  1.0000
  H   H510      1.0  0.47439  0.66437  0.84934  1.0000
  C   C328      1.0  0.64969  0.88619  0.90744  1.0000
  H   H511      1.0  0.62056  0.84186  0.79587  1.0000
  H   H512      1.0  0.45259  0.59049  0.85829  1.0000
  H   H513      1.0  0.54220  0.60705  0.87207  1.0000
  C   C329      1.0  0.63119  0.89900  0.82532  1.0000
  H   H514      1.0  0.59180  0.93071  0.78740  1.0000
  C   C330      1.0  0.57147  0.89625  0.83314  1.0000
  C   C331      1.0  0.50831  0.85273  0.77935  1.0000
  H   H515      1.0  0.63670  0.88706  0.84609  1.0000
  C   C332      1.0  0.63187  0.67721  0.79865  1.0000
  H   H516      1.0  0.64396  0.97671  0.96274  1.0000
  C   C333      1.0  0.62500  0.98427  0.97878  1.0000
  H   H517      1.0  0.63799  0.98539  0.99952  1.0000
  H   H518      1.0  0.63253  0.79675  0.98539  1.0000
  C   C334      1.0  0.60714  0.65820  0.78510  1.0000
  S   S132      1.0  0.65388  0.92828  0.91831  1.0000
  H   H519      1.0  0.96375  0.39156  0.03207  1.0000
  S   S133      1.0  0.69394  0.01567  0.03013  1.0000
  S   S134      1.0  0.96276  0.99973  0.25392  1.0000
  H   H520      1.0  0.66106  0.42256  0.03659  1.0000
  H   H521      1.0  0.66272  0.07472  0.05043  1.0000
  H   H522      1.0  0.89163  0.48102  0.26024  1.0000
  C   C335      1.0  0.65609  0.02088  0.04985  1.0000
  C   C336      1.0  0.88771  0.00054  0.35012  1.0000
  Fe  Fe66      1.0  0.95863  0.01342  0.30022  1.0000
  H   H523      1.0  0.88900  0.41589  0.34866  1.0000
  C   C337      1.0  0.83924  0.42156  0.38708  1.0000
  C   C338      1.0  0.86980  0.47122  0.40138  1.0000
  H   H524      1.0  0.82839  0.41849  0.40862  1.0000
  S   S135      1.0  0.90513  0.01589  0.31781  1.0000
  H   H525      1.0  0.85394  0.48842  0.38843  1.0000
  H   H526      1.0  0.91720  0.40277  0.50184  1.0000
  C   C339      1.0  0.94112  0.39025  0.50409  1.0000
  H   H527      1.0  0.89473  0.48347  0.40328  1.0000
  H   H528      1.0  0.82142  0.43708  0.37446  1.0000
  H   H529      1.0  0.91095  0.45338  0.35918  1.0000
  C   C340      1.0  0.89552  0.41632  0.40530  1.0000
  C   C341      1.0  0.88604  0.44083  0.35921  1.0000
  H   H530      1.0  0.83693  0.00860  0.33620  1.0000
  C   C342      1.0  0.85265  0.99988  0.35331  1.0000
  N   N33       1.0  0.87266  0.43746  0.38825  1.0000
  H   H531      1.0  0.86931  0.45656  0.34575  1.0000
  H   H532      1.0  0.84044  0.39613  0.37707  1.0000
  H   H533      1.0  0.85893  0.46988  0.42302  1.0000
  H   H534      1.0  0.96283  0.47866  0.51776  1.0000
  H   H535      1.0  0.88648  0.41354  0.42748  1.0000
  H   H536      1.0  0.89840  0.39061  0.39612  1.0000
  H   H537      1.0  0.92096  0.42763  0.40661  1.0000
  S   S136      1.0  0.95974  0.43166  0.46104  1.0000
  S   S137      1.0  0.70306  0.99825  0.52170  1.0000
  C   C343      1.0  0.96773  0.39916  0.48633  1.0000
  H   H538      1.0  0.92388  0.48801  0.30495  1.0000
  S   S138      1.0  0.98105  0.45788  0.38024  1.0000
  Fe  Fe67      1.0  0.98313  0.46593  0.42745  1.0000
  C   C344      1.0  0.98222  0.09627  0.68235  1.0000
  H   H539      1.0  0.87238  0.19193  0.61027  1.0000
  H   H540      1.0  0.98735  0.09511  0.63686  1.0000
  H   H541      1.0  0.91570  0.27448  0.60008  1.0000
  H   H542      1.0  0.86856  0.23683  0.61466  1.0000
  H   H543      1.0  0.95255  0.25636  0.58477  1.0000
  S   S139      1.0  0.97514  0.09930  0.74118  1.0000
  Fe  Fe68      1.0  0.97849  0.04431  0.75634  1.0000
  H   H544      1.0  0.95866  0.22055  0.62714  1.0000
  H   H545      1.0  0.91438  0.25633  0.56517  1.0000
  H   H546      1.0  0.92091  0.23694  0.64232  1.0000
  C   C345      1.0  0.92988  0.19294  0.58084  1.0000
  H   H547      1.0  0.92623  0.19216  0.63729  1.0000
  H   H548      1.0  0.95744  0.19538  0.57819  1.0000
  N   N34       1.0  0.91636  0.22008  0.59910  1.0000
  H   H549      1.0  0.86767  0.21862  0.57982  1.0000
  C   C346      1.0  0.92497  0.25322  0.58679  1.0000
  C   C347      1.0  0.93104  0.21737  0.62773  1.0000
  C   C348      1.0  0.87959  0.21673  0.60104  1.0000
  H   H550      1.0  0.91866  0.19352  0.55932  1.0000
  H   H551      1.0  0.92532  0.16754  0.59010  1.0000
  H   H552      1.0  0.91982  0.47746  0.73863  1.0000
  S   S140      1.0  0.94148  0.00139  0.75432  1.0000
  C   C349      1.0  0.97529  0.34828  0.52842  1.0000
  H   H553      1.0  0.92372  0.35891  0.53810  1.0000
  S   S141      1.0  0.97663  0.31670  0.55538  1.0000
  H   H554      1.0  0.67721  0.01994  0.57574  1.0000
  H   H555      1.0  0.97736  0.06949  0.68407  1.0000
  C   C350      1.0  0.98205  0.11639  0.70672  1.0000
  H   H556      1.0  0.86153  0.48592  0.75526  1.0000
  C   C351      1.0  0.66229  0.99550  0.53693  1.0000
  H   H557      1.0  0.90640  0.48561  0.70299  1.0000
  C   C352      1.0  0.65676  0.00823  0.56441  1.0000
  H   H558      1.0  0.98799  0.16711  0.72253  1.0000
  C   C353      1.0  0.94484  0.36525  0.52478  1.0000
  C   C354      1.0  0.98797  0.11090  0.65556  1.0000
  C   C355      1.0  0.95417  0.35765  0.93975  1.0000
  C   C356      1.0  0.98539  0.38581  0.01912  1.0000
  H   H559      1.0  0.95597  0.02136  0.86337  1.0000
  N   N35       1.0  0.93984  0.38450  0.92177  1.0000
  C   C357      1.0  0.87566  0.48052  0.84903  1.0000
  H   H560      1.0  0.95030  0.40837  0.88191  1.0000
  C   C358      1.0  0.97679  0.02827  0.87794  1.0000
  H   H561      1.0  0.94018  0.35507  0.96003  1.0000
  H   H562      1.0  0.92648  0.41497  0.95786  1.0000
  C   C359      1.0  0.94018  0.41678  0.93741  1.0000
  C   C360      1.0  0.82588  0.46004  0.82463  1.0000
  C   C361      1.0  0.88189  0.00896  0.86759  1.0000
  H   H563      1.0  0.98070  0.36321  0.94528  1.0000
  H   H564      1.0  0.85424  0.04083  0.89658  1.0000
  H   H565      1.0  0.88894  0.37359  0.93330  1.0000
  H   H566      1.0  0.96567  0.04281  0.89580  1.0000
  H   H567      1.0  0.89510  0.02973  0.85791  1.0000
  H   H568      1.0  0.95377  0.33275  0.92885  1.0000
  C   C362      1.0  0.85852  0.01521  0.88950  1.0000
  C   C363      1.0  0.90497  0.37601  0.91413  1.0000
  C   C364      1.0  0.85176  0.45538  0.84420  1.0000
  H   H569      1.0  0.92832  0.43731  0.92491  1.0000
  H   H570      1.0  0.85328  0.43185  0.85568  1.0000
  C   C365      1.0  0.96010  0.38785  0.89574  1.0000
  H   H571      1.0  0.89372  0.39601  0.90052  1.0000
  H   H572      1.0  0.90365  0.35181  0.90222  1.0000
  H   H573      1.0  0.96015  0.36414  0.88313  1.0000
  S   S142      1.0  0.90716  0.47140  0.87463  1.0000
  H   H574      1.0  0.96620  0.42487  0.94219  1.0000
  H   H575      1.0  0.98666  0.39406  0.90081  1.0000
  H   H576      1.0  0.98091  0.43123  0.99395  1.0000
  C   C366      1.0  0.82297  0.49004  0.80936  1.0000
  S   S143      1.0  0.81227  0.99813  0.93057  1.0000
  H   H577      1.0  0.80795  0.43996  0.82127  1.0000
  S   S144      1.0  0.98729  0.03622  0.80313  1.0000
  H   H578      1.0  0.65539  0.03698  0.95447  1.0000
  H   H579      1.0  0.84610  0.89413  0.27125  1.0000
  S   S145      1.0  0.91828  0.73065  0.07240  1.0000
  H   H580      1.0  0.85570  0.89712  0.09011  1.0000
  S   S146      1.0  0.91877  0.80250  0.10886  1.0000
  Fe  Fe69      1.0  0.91880  0.74680  0.11828  1.0000
  S   S147      1.0  0.88992  0.72844  0.15628  1.0000
  Fe  Fe70      1.0  0.92440  0.78618  0.06356  1.0000
  H   H581      1.0  0.83838  0.54565  0.18873  1.0000
  H   H582      1.0  0.87929  0.62465  0.16462  1.0000
  C   C367      1.0  0.85483  0.96353  0.07907  1.0000
  Fe  Fe71      1.0  0.71164  0.53451  0.19707  1.0000
  S   S148      1.0  0.70761  0.59087  0.19549  1.0000
  Fe  Fe72      1.0  0.78233  0.53739  0.22580  1.0000
  S   S149      1.0  0.78260  0.59393  0.22528  1.0000
  Fe  Fe73      1.0  0.72905  0.58983  0.23935  1.0000
  S   S150      1.0  0.82976  0.50929  0.23992  1.0000
  Fe  Fe74      1.0  0.76134  0.58921  0.18148  1.0000
  S   S151      1.0  0.77937  0.61560  0.14213  1.0000
  S   S152      1.0  0.72963  0.53332  0.24248  1.0000
  S   S153      1.0  0.76442  0.53269  0.18052  1.0000
  C   C368      1.0  0.80807  0.82544  0.03717  1.0000
  C   C369      1.0  0.85055  0.56521  0.17543  1.0000
  C   C370      1.0  0.85211  0.51533  0.27217  1.0000
  H   H583      1.0  0.96314  0.82520  0.18096  1.0000
  H   H584      1.0  0.78927  0.81634  0.05177  1.0000
  H   H585      1.0  0.94471  0.66698  0.03074  1.0000
  Fe  Fe75      1.0  0.97428  0.73010  0.07643  1.0000
  C   C371      1.0  0.87090  0.59618  0.21594  1.0000
  H   H586      1.0  0.79629  0.91175  0.04996  1.0000
  H   H587      1.0  0.83162  0.58515  0.17150  1.0000
  S   S154      1.0  0.98042  0.78495  0.06558  1.0000
  C   C372      1.0  0.85887  0.69757  0.15179  1.0000
  C   C373      1.0  0.84092  0.68645  0.17552  1.0000
  C   C374      1.0  0.81622  0.66151  0.17272  1.0000
  C   C375      1.0  0.80940  0.64759  0.14615  1.0000
  C   C376      1.0  0.82729  0.65874  0.12241  1.0000
  C   C377      1.0  0.85207  0.68365  0.12521  1.0000
  H   H588      1.0  0.84599  0.69736  0.19608  1.0000
  H   H589      1.0  0.80211  0.65348  0.19100  1.0000
  H   H590      1.0  0.82204  0.64802  0.10181  1.0000
  H   H591      1.0  0.86578  0.69211  0.10683  1.0000
  H   H592      1.0  0.89254  0.53265  0.21024  1.0000
  H   H593      1.0  0.67805  0.64784  0.22834  1.0000
  C   C378      1.0  0.97709  0.84803  0.18527  1.0000
  C   C379      1.0  0.86013  0.90437  0.06768  1.0000
  H   H594      1.0  0.85339  0.61750  0.21189  1.0000
  H   H595      1.0  0.85111  0.88318  0.05433  1.0000
  C   C380      1.0  0.66290  0.65302  0.24681  1.0000
  H   H596      1.0  0.79241  0.95547  0.05935  1.0000
  C   C381      1.0  0.80632  0.93180  0.06418  1.0000
  H   H597      1.0  0.79997  0.92446  0.08625  1.0000
  H   H598      1.0  0.90469  0.59180  0.14994  1.0000
  H   H599      1.0  0.92726  0.56098  0.20610  1.0000
  H   H600      1.0  0.85656  0.55342  0.15465  1.0000
  C   C382      1.0  0.89677  0.60379  0.17019  1.0000
  H   H601      1.0  0.91167  0.53769  0.17611  1.0000
  H   H602      1.0  0.85813  0.57840  0.23066  1.0000
  C   C383      1.0  0.67326  0.64179  0.27341  1.0000
  C   C384      1.0  0.84138  0.81452  0.03989  1.0000
  S   S155      1.0  0.66641  0.50322  0.18300  1.0000
  C   C385      1.0  0.65782  0.52902  0.12874  1.0000
  H   H603      1.0  0.85090  0.95433  0.25726  1.0000
  H   H604      1.0  0.91921  0.61547  0.18009  1.0000
  S   S156      1.0  0.97465  0.74266  0.12318  1.0000
  H   H605      1.0  0.88232  0.96740  0.07678  1.0000
  H   H606      1.0  0.88768  0.90624  0.06441  1.0000
  N   N36       1.0  0.88065  0.57917  0.18930  1.0000
  N   N37       1.0  0.84282  0.93616  0.06038  1.0000
  H   H607      1.0  0.88636  0.91092  0.23354  1.0000
  H   H608      1.0  0.84971  0.95784  0.10173  1.0000
  H   H609      1.0  0.84231  0.98793  0.07407  1.0000
  H   H610      1.0  0.68184  0.54122  0.13150  1.0000
  H   H611      1.0  0.91980  0.89108  0.25283  1.0000
  H   H612      1.0  0.89302  0.60662  0.22722  1.0000
  H   H613      1.0  0.84821  0.79706  0.05649  1.0000
  C   C386      1.0  0.90417  0.55142  0.19568  1.0000
  H   H614      1.0  0.88789  0.97771  0.26633  1.0000
  C   C387      1.0  0.90529  0.91488  0.25045  1.0000
  H   H615      1.0  0.96066  0.85142  0.22873  1.0000
  H   H616      1.0  0.92326  0.93433  0.24280  1.0000
  C   C388      1.0  0.97560  0.86309  0.21238  1.0000
  H   H617      1.0  0.67247  0.76677  0.27018  1.0000
  Fe  Fe76      1.0  0.97444  0.79776  0.11180  1.0000
  C   C389      1.0  0.87097  0.95702  0.27338  1.0000
  C   C390      1.0  0.85002  0.94490  0.03058  1.0000
  H   H618      1.0  0.87738  0.94758  0.02674  1.0000
  S   S157      1.0  0.90783  0.81422  0.02439  1.0000
  H   H619      1.0  0.83787  0.96911  0.02445  1.0000
  Fe  Fe77      1.0  0.78553  0.95293  0.44561  1.0000
  S   S158      1.0  0.76611  0.90182  0.43292  1.0000
  Fe  Fe78      1.0  0.72305  0.96645  0.48479  1.0000
  S   S159      1.0  0.70000  0.91668  0.47378  1.0000
  Fe  Fe79      1.0  0.75177  0.89558  0.47848  1.0000
  C   C391      1.0  0.86625  0.89861  0.28706  1.0000
  Fe  Fe80      1.0  0.71638  0.92813  0.42937  1.0000
  S   S160      1.0  0.68181  0.91953  0.39240  1.0000
  S   S161      1.0  0.77428  0.94444  0.49190  1.0000
  S   S162      1.0  0.84007  0.96653  0.43479  1.0000
  S   S163      1.0  0.76001  0.85166  0.50768  1.0000
  H   H620      1.0  0.89222  0.69357  0.50071  1.0000
  C   C392      1.0  0.71443  0.75198  0.31359  1.0000
  H   H621      1.0  0.87956  0.87428  0.29048  1.0000
  H   H622      1.0  0.72591  0.76945  0.29794  1.0000
  H   H623      1.0  0.72152  0.72578  0.30736  1.0000
  C   C393      1.0  0.83763  0.98868  0.37869  1.0000
  H   H624      1.0  0.85401  0.90579  0.30741  1.0000
  H   H625      1.0  0.84909  0.55707  0.33530  1.0000
  H   H626      1.0  0.69366  0.85894  0.42490  1.0000
  H   H627      1.0  0.72595  0.75724  0.33458  1.0000
  N   N38       1.0  0.88957  0.92515  0.27748  1.0000
  H   H628      1.0  0.85908  0.96572  0.29346  1.0000
  H   H629      1.0  0.89751  0.88960  0.48236  1.0000
  C   C394      1.0  0.95359  0.72069  0.49531  1.0000
  C   C395      1.0  0.66340  0.74870  0.28642  1.0000
  H   H630      1.0  0.95795  0.74070  0.44142  1.0000
  H   H631      1.0  0.96314  0.67876  0.45157  1.0000
  H   H632      1.0  0.93473  0.65959  0.47602  1.0000
  C   C396      1.0  0.82359  0.84312  0.48646  1.0000
  C   C397      1.0  0.85680  0.83163  0.48803  1.0000
  H   H633      1.0  0.81505  0.85658  0.46793  1.0000
  H   H634      1.0  0.87377  0.83609  0.47060  1.0000
  S   S164      1.0  0.95667  0.51596  0.42441  1.0000
  H   H635      1.0  0.94988  0.74646  0.50405  1.0000
  H   H636      1.0  0.95069  0.70277  0.51319  1.0000
  S   S165      1.0  0.91058  0.80381  0.51519  1.0000
  H   H637      1.0  0.96239  0.56806  0.47839  1.0000
  C   C398      1.0  0.88486  0.91454  0.48118  1.0000
  C   C399      1.0  0.80139  0.83681  0.50873  1.0000
  H   H638      1.0  0.88875  0.73797  0.49398  1.0000
  C   C400      1.0  0.97294  0.59072  0.48748  1.0000
  C   C401      1.0  0.85862  0.54054  0.31891  1.0000
  S   S166      1.0  0.73627  0.98010  0.43958  1.0000
  C   C402      1.0  0.85753  0.97847  0.40147  1.0000
  H   H639      1.0  0.85973  0.91061  0.47147  1.0000
  C   C403      1.0  0.86823  0.96482  0.50644  1.0000
  H   H640      1.0  0.67990  0.79755  0.34409  1.0000
  S   S167      1.0  0.71014  0.61833  0.27748  1.0000
  C   C404      1.0  0.95889  0.60497  0.51218  1.0000
  H   H641      1.0  0.87620  0.70816  0.46737  1.0000
  H   H642      1.0  0.92641  0.76513  0.45931  1.0000
  C   C405      1.0  0.86814  0.81479  0.51223  1.0000
  H   H643      1.0  0.83433  0.90741  0.51792  1.0000
  Fe  Fe81      1.0  0.95864  0.50997  0.37697  1.0000
  H   H644      1.0  0.89934  0.93058  0.46623  1.0000
  C   C406      1.0  0.65902  0.82186  0.40868  1.0000
  H   H645      1.0  0.66766  0.80218  0.42272  1.0000
  H   H646      1.0  0.90498  0.93757  0.31990  1.0000
  C   C407      1.0  0.93709  0.67995  0.45997  1.0000
  C   C408      1.0  0.66934  0.79107  0.32295  1.0000
  C   C409      1.0  0.88883  0.52303  0.32334  1.0000
  C   C410      1.0  0.67379  0.85395  0.40993  1.0000
  C   C411      1.0  0.88239  0.49782  0.27654  1.0000
  H   H647      1.0  0.91446  0.73499  0.43272  1.0000
  H   H648      1.0  0.81723  0.55052  0.29051  1.0000
  H   H649      1.0  0.67908  0.80974  0.30747  1.0000
  N   N39       1.0  0.92950  0.71336  0.47241  1.0000
  S   S168      1.0  0.90952  0.52769  0.35654  1.0000
  H   H650      1.0  0.84308  0.96431  0.49640  1.0000
  C   C412      1.0  0.93221  0.73967  0.45043  1.0000
  C   C413      1.0  0.84046  0.53690  0.29348  1.0000
  C   C414      1.0  0.89261  0.97877  0.39817  1.0000
  H   H651      1.0  0.93333  0.95049  0.29281  1.0000
  H   H652      1.0  0.93116  0.90694  0.30214  1.0000
  N   N40       1.0  0.67767  0.75608  0.31463  1.0000
  C   C415      1.0  0.89514  0.71324  0.48408  1.0000
  H   H653      1.0  0.97994  0.71902  0.48777  1.0000
  H   H654      1.0  0.91978  0.67372  0.44228  1.0000
  C   C416      1.0  0.91584  0.93011  0.29909  1.0000
  H   H655      1.0  0.88424  0.98079  0.49258  1.0000
  H   H656      1.0  0.97563  0.49996  0.48627  1.0000
  H   H657      1.0  0.90832  0.97106  0.41560  1.0000
  C   C417      1.0  0.90073  0.50170  0.30191  1.0000
  H   H658      1.0  0.93321  0.94717  0.50929  1.0000
  H   H659      1.0  0.96589  0.52404  0.51746  1.0000
  N   N41       1.0  0.88207  0.93042  0.50943  1.0000
  H   H660      1.0  0.93460  0.98982  0.37056  1.0000
  H   H661      1.0  0.66168  0.64026  0.31790  1.0000
  C   C418      1.0  0.66356  0.73245  0.33563  1.0000
  H   H662      1.0  0.67255  0.73826  0.35740  1.0000
  H   H663      1.0  0.67048  0.70590  0.33074  1.0000
  C   C419      1.0  0.66307  0.87941  0.39162  1.0000
  C   C420      1.0  0.90762  0.98940  0.37260  1.0000
  H   H664      1.0  0.81066  0.98884  0.38088  1.0000
  H   H665      1.0  0.67029  0.72288  0.27913  1.0000
  H   H666      1.0  0.93762  0.59295  0.52213  1.0000
  C   C421      1.0  0.91560  0.93224  0.52255  1.0000
  C   C422      1.0  0.97780  0.50034  0.50975  1.0000
  C   C423      1.0  0.97206  0.63472  0.52411  1.0000
  Fe  Fe82      1.0  0.94638  0.70468  0.57191  1.0000
  S   S169      1.0  0.89540  0.72402  0.56011  1.0000
  Fe  Fe83      1.0  0.95976  0.76839  0.60979  1.0000
  S   S170      1.0  0.91017  0.79132  0.59894  1.0000
  Fe  Fe84      1.0  0.89004  0.73911  0.60550  1.0000
  S   S171      1.0  0.84472  0.73150  0.63310  1.0000
  Fe  Fe85      1.0  0.92097  0.77380  0.55472  1.0000
  H   H667      1.0  0.69063  0.86683  0.52847  1.0000
  S   S172      1.0  0.93891  0.71649  0.61827  1.0000
  H   H668      1.0  0.68329  0.54884  0.60886  1.0000
  Fe  Fe86      1.0  0.71475  0.53395  0.70253  1.0000
  S   S173      1.0  0.72870  0.58805  0.69450  1.0000
  Fe  Fe87      1.0  0.76858  0.52711  0.75055  1.0000
  S   S174      1.0  0.78670  0.57973  0.74419  1.0000
  Fe  Fe88      1.0  0.73186  0.59232  0.74195  1.0000
  C   C424      1.0  0.96257  0.88883  0.66246  1.0000
  Fe  Fe89      1.0  0.78164  0.56953  0.69787  1.0000
  S   S175      1.0  0.82202  0.57855  0.66575  1.0000
  S   S176      1.0  0.71354  0.53975  0.75013  1.0000
  S   S177      1.0  0.76812  0.51534  0.70405  1.0000
  H   H669      1.0  0.77280  0.52722  0.62207  1.0000
  H   H670      1.0  0.86768  0.56877  0.71900  1.0000
  C   C425      1.0  0.90428  0.53831  0.75980  1.0000
  H   H671      1.0  0.92873  0.78249  0.73590  1.0000
  C   C426      1.0  0.86914  0.77298  0.71056  1.0000
  C   C427      1.0  0.98690  0.83245  0.66081  1.0000
  H   H672      1.0  0.91009  0.56314  0.70718  1.0000
  N   N42       1.0  0.90148  0.78033  0.69667  1.0000
  C   C428      1.0  0.71097  0.92096  0.55765  1.0000
  H   H673      1.0  0.85428  0.79481  0.55295  1.0000
  H   H674      1.0  0.70735  0.94585  0.56823  1.0000
  C   C429      1.0  0.83838  0.68897  0.64205  1.0000
  C   C430      1.0  0.81338  0.68033  0.66157  1.0000
  C   C431      1.0  0.80831  0.64646  0.66913  1.0000
  C   C432      1.0  0.82819  0.62116  0.65706  1.0000
  C   C433      1.0  0.85306  0.62977  0.63746  1.0000
  C   C434      1.0  0.85821  0.66362  0.63000  1.0000
  H   H675      1.0  0.79795  0.69987  0.67090  1.0000
  H   H676      1.0  0.78907  0.64002  0.68430  1.0000
  H   H677      1.0  0.86845  0.61029  0.62800  1.0000
  H   H678      1.0  0.87741  0.67002  0.61478  1.0000
  H   H679      1.0  0.73052  0.51094  0.62155  1.0000
  H   H680      1.0  0.88515  0.82703  0.67803  1.0000
  S   S178      1.0  0.97271  0.75431  0.56443  1.0000
  C   C435      1.0  0.96597  0.85709  0.64917  1.0000
  H   H681      1.0  0.94665  0.90780  0.65303  1.0000
  H   H682      1.0  0.67220  0.84467  0.55773  1.0000
  H   H683      1.0  0.87253  0.75658  0.72941  1.0000
  H   H684      1.0  0.90093  0.73450  0.67226  1.0000
  N   N43       1.0  0.73539  0.56254  0.60794  1.0000
  C   C436      1.0  0.84582  0.80803  0.53429  1.0000
  C   C437      1.0  0.89562  0.80206  0.67183  1.0000
  C   C438      1.0  0.91549  0.49779  0.72279  1.0000
  H   H685      1.0  0.78350  0.58693  0.61032  1.0000
  H   H686      1.0  0.69602  0.57657  0.63677  1.0000
  H   H687      1.0  0.73107  0.57451  0.56377  1.0000
  C   C439      1.0  0.81242  0.81880  0.53243  1.0000
  C   C440      1.0  0.69993  0.57057  0.61398  1.0000
  H   H688      1.0  0.85644  0.92153  0.54881  1.0000
  C   C441      1.0  0.88635  0.54960  0.71193  1.0000
  N   N44       1.0  0.89126  0.52303  0.73344  1.0000
  H   H689      1.0  0.66788  0.87313  0.60480  1.0000
  H   H690      1.0  0.95274  0.85189  0.62970  1.0000
  H   H691      1.0  0.92219  0.73136  0.70559  1.0000
  H   H692      1.0  0.69105  0.59256  0.60148  1.0000
  S   S179      1.0  0.97475  0.93747  0.70280  1.0000
  H   H693      1.0  0.74321  0.53970  0.64851  1.0000
  H   H694      1.0  0.73670  0.91188  0.56246  1.0000
  H   H695      1.0  0.71638  0.85336  0.55726  1.0000
  H   H696      1.0  0.94021  0.50952  0.71810  1.0000
  H   H697      1.0  0.91931  0.80678  0.66016  1.0000
  N   N45       1.0  0.68525  0.89634  0.56645  1.0000
  H   H698      1.0  0.65758  0.60375  0.74855  1.0000
  C   C442      1.0  0.68702  0.89151  0.59741  1.0000
  H   H699      1.0  0.75441  0.59980  0.63695  1.0000
  S   S180      1.0  0.68187  0.50268  0.67270  1.0000
  H   H700      1.0  0.71206  0.88195  0.60392  1.0000
  H   H701      1.0  0.87780  0.79016  0.65672  1.0000
  C   C443      1.0  0.92399  0.79788  0.71668  1.0000
  H   H702      1.0  0.74931  0.61447  0.60137  1.0000
  S   S181      1.0  0.95464  0.65047  0.55617  1.0000
  H   H703      1.0  0.70994  0.92568  0.53449  1.0000
  S   S182      1.0  0.71797  0.63514  0.77080  1.0000
  H   H704      1.0  0.85179  0.75964  0.69580  1.0000
  C   C444      1.0  0.91723  0.74839  0.68742  1.0000
  H   H705      1.0  0.85646  0.79656  0.71761  1.0000
  H   H706      1.0  0.68248  0.91570  0.60888  1.0000
  H   H707      1.0  0.91447  0.94426  0.54385  1.0000
  H   H708      1.0  0.79527  0.81366  0.54962  1.0000
  H   H709      1.0  0.87685  0.53892  0.69164  1.0000
  H   H710      1.0  0.94873  0.80318  0.70674  1.0000
  C   C445      1.0  0.69129  0.86384  0.55192  1.0000
  H   H711      1.0  0.91340  0.82257  0.72357  1.0000
  C   C446      1.0  0.97973  0.89644  0.68771  1.0000
  H   H712      1.0  0.94161  0.75303  0.67662  1.0000
  C   C447      1.0  0.75650  0.59223  0.61434  1.0000
  C   C448      1.0  0.73906  0.55343  0.57775  1.0000
  Fe  Fe90      1.0  0.98581  0.96861  0.74289  1.0000
  C   C449      1.0  0.85890  0.50635  0.73926  1.0000
  H   H713      1.0  0.72347  0.53105  0.57229  1.0000
  H   H714      1.0  0.84015  0.52455  0.74768  1.0000
  H   H715      1.0  0.76553  0.54722  0.57248  1.0000
  H   H716      1.0  0.92901  0.55060  0.75633  1.0000
  C   C450      1.0  0.74602  0.53380  0.62566  1.0000
  H   H717      1.0  0.86970  0.88406  0.53055  1.0000
  C   C451      1.0  0.85967  0.91001  0.52750  1.0000
  H   H718      1.0  0.84802  0.49491  0.71980  1.0000
  H   H719      1.0  0.88690  0.55789  0.76820  1.0000
  H   H720      1.0  0.86562  0.97770  0.52726  1.0000
  H   H721      1.0  0.92662  0.90660  0.52529  1.0000
  Fe  Fe91      1.0  0.76964  0.96805  0.95124  1.0000
  S   S183      1.0  0.75167  0.91542  0.94096  1.0000
  H   H722      1.0  0.66355  0.84244  0.96097  1.0000
  S   S184      1.0  0.69401  0.92664  0.99086  1.0000
  Fe  Fe92      1.0  0.74740  0.90940  0.98817  1.0000
  H   H723      1.0  0.72374  0.51960  0.81191  1.0000
  Fe  Fe93      1.0  0.69991  0.93765  0.94470  1.0000
  H   H724      1.0  0.92644  0.75097  0.00389  1.0000
  S   S185      1.0  0.76862  0.96028  0.99864  1.0000
  H   H725      1.0  0.70534  0.78456  0.93785  1.0000
  H   H726      1.0  0.69612  0.81672  0.89132  1.0000
  S   S186      1.0  0.91907  0.96579  0.83244  1.0000
  H   H727      1.0  0.74072  0.60048  0.87011  1.0000
  H   H728      1.0  0.75418  0.57044  0.79673  1.0000
  H   H729      1.0  0.68481  0.68491  0.80438  1.0000
  H   H730      1.0  0.70858  0.51645  0.84759  1.0000
  C   C452      1.0  0.79919  0.84848  0.01598  1.0000
  H   H731      1.0  0.89107  0.53084  0.83771  1.0000
  C   C453      1.0  0.67791  0.86584  0.90352  1.0000
  C   C454      1.0  0.67418  0.83230  0.89457  1.0000
  C   C455      1.0  0.86999  0.94944  0.87114  1.0000
  H   H732      1.0  0.70264  0.87607  0.90696  1.0000
  H   H733      1.0  0.76251  0.56112  0.87435  1.0000
  H   H734      1.0  0.83257  0.93507  0.90214  1.0000
  S   S187      1.0  0.75766  0.86274  0.01387  1.0000
  H   H735      1.0  0.75278  0.51424  0.84024  1.0000
  H   H736      1.0  0.97009  0.79404  0.99401  1.0000
  H   H737      1.0  0.65499  0.76257  0.00157  1.0000
  C   C456      1.0  0.73856  0.57268  0.86715  1.0000
  C   C457      1.0  0.69962  0.57995  0.82854  1.0000
  H   H738      1.0  0.70850  0.84131  0.95961  1.0000
  H   H739      1.0  0.81673  0.87771  0.98061  1.0000
  H   H740      1.0  0.67822  0.57122  0.84168  1.0000
  H   H741      1.0  0.87446  0.92377  0.86429  1.0000
  H   H742      1.0  0.69362  0.57413  0.80604  1.0000
  C   C458      1.0  0.96511  0.65486  0.01960  1.0000
  H   H743      1.0  0.78339  0.56505  0.82503  1.0000
  H   H744      1.0  0.71761  0.76081  0.99858  1.0000
  H   H745      1.0  0.93289  0.63094  0.98883  1.0000
  C   C459      1.0  0.75893  0.57662  0.81925  1.0000
  C   C460      1.0  0.84613  0.95576  0.89264  1.0000
  Fe  Fe94      1.0  0.71497  0.97798  0.99810  1.0000
  C   C461      1.0  0.71660  0.78835  0.99424  1.0000
  C   C462      1.0  0.94915  0.75412  0.95106  1.0000
  H   H746      1.0  0.93466  0.73243  0.94243  1.0000
  C   C463      1.0  0.98442  0.61748  0.98132  1.0000
  C   C464      1.0  0.82351  0.86015  0.99716  1.0000
  H   H747      1.0  0.93198  0.70873  0.99126  1.0000
  H   H748      1.0  0.84415  0.53947  0.80302  1.0000
  C   C465      1.0  0.72895  0.52700  0.83423  1.0000
  H   H749      1.0  0.93095  0.77453  0.95638  1.0000
  S   S188      1.0  0.96515  0.50086  0.93757  1.0000
  H   H750      1.0  0.76137  0.60457  0.82061  1.0000
  H   H751      1.0  0.71834  0.56358  0.88143  1.0000
  C   C466      1.0  0.87301  0.51102  0.83392  1.0000
  H   H752      1.0  0.68780  0.84952  0.99251  1.0000
  H   H753      1.0  0.90771  0.51901  0.77668  1.0000
  N   N46       1.0  0.73148  0.56405  0.83731  1.0000
  C   C467      1.0  0.97130  0.97667  0.90445  1.0000
  H   H754      1.0  0.87553  0.85803  0.98504  1.0000
  H   H755      1.0  0.73948  0.79522  0.98203  1.0000
  N   N47       1.0  0.96868  0.74407  0.97620  1.0000
  H   H756      1.0  0.95936  0.72553  0.01804  1.0000
  C   C468      1.0  0.95843  0.63406  0.99597  1.0000
  C   C469      1.0  0.85672  0.84892  0.99964  1.0000
  C   C470      1.0  0.88800  0.97592  0.85840  1.0000
  C   C471      1.0  0.86575  0.82632  0.02112  1.0000
  C   C472      1.0  0.84650  0.51586  0.81419  1.0000
  H   H757      1.0  0.98378  0.95340  0.91227  1.0000
  H   H758      1.0  0.71832  0.80172  0.01495  1.0000
  C   C473      1.0  0.94559  0.73174  0.99829  1.0000
  C   C474      1.0  0.68635  0.83434  0.97269  1.0000
  S   S189      1.0  0.78915  0.49261  0.78486  1.0000
  H   H759      1.0  0.70085  0.60798  0.83022  1.0000
  C   C475      1.0  0.67517  0.64352  0.77588  1.0000
  C   C476      1.0  0.66579  0.66987  0.79404  1.0000
  H   H760      1.0  0.96571  0.76360  0.93389  1.0000
  C   C477      1.0  0.84036  0.98873  0.90213  1.0000
  N   N48       1.0  0.68578  0.79780  0.97885  1.0000
  S   S190      1.0  0.97484  0.59626  0.94895  1.0000
  Fe  Fe95      1.0  0.95578  0.49527  0.89070  1.0000
  C   C478      1.0  0.68390  0.77860  0.95204  1.0000
  H   H761      1.0  0.97924  0.69382  0.96101  1.0000
  H   H762      1.0  0.94955  0.96860  0.89127  1.0000
  H   H763      1.0  0.84063  0.92514  0.01583  1.0000
  S   S191      1.0  0.98115  0.54365  0.87921  1.0000
  Fe  Fe96      1.0  0.95448  0.99015  0.79977  1.0000
  H   H764      1.0  0.68402  0.75091  0.95577  1.0000
  C   C479      1.0  0.98739  0.77346  0.98719  1.0000
  H   H765      1.0  0.65677  0.80413  0.01683  1.0000
  C   C480      1.0  0.65621  0.78995  0.99646  1.0000
  H   H766      1.0  0.96100  0.99050  0.92304  1.0000
  H   H767      1.0  0.66052  0.78453  0.94024  1.0000
  H   H768      1.0  0.98637  0.96961  0.84987  1.0000
  S   S192      1.0  0.71768  0.99063  0.95175  1.0000
