data_image0
_chemical_formula_structural       H2C2H3CH2CSH2CHCH5SH3SFe3SCSC6H5NH6FeCH2SH5NCSC2SH4SFeSFeHFeSHSC5H2SHCHSCH2S2CH2CH2C2FeHC3HSCHS2HCHC3SCH3FeH2FeH6CH3FeHFeSHCFeS3NCHCSFeCSH2C2SH2C3H2NHCHSH2NCH2CHC3H3CSCSCH3SHCSCH2CHFe2NSHC3HC2HNH7CFeH5S3CHC2HC2HFeHC2HCHCHC2HSHCHCHCH3C2H11CSCH2CNC6HCH3C3H3CSHC3H2NH6SH2C6H2NHCH2FeHC2H2CHC2HCH4S2FeSFeSH2C3FeC2H5CH2CS2HNHCH2C2H2CHNCHCH9CH3CS2HFeSCHC2H5C2H2C4NHFeH2SCH2FeH3CHCFeH2SCHCH5FeSHC3NCHCHSH2S2HFeHSH4CHC4H4NHC3HCH4C2HSNSH2C3H2CHC2H4CH3C2HCH2C2H9C2HCH2SNC4SHSHSHCSFeSHFeH3FeC8H2CH3C2H2SH2FeH2CFeHCH2SH2CH2SH2NSC2SC2HCN2H6SCSCHC2H2C3FeSHFeSFeH5FeCSHCHCHC2FeSFeSHCSFeSHSNSC3H4CHCH2CSH2CH6CHCH3FeHSFe2H2SFeSHCSH2SNHCSHCHCH4SFeS2FeS2FeCFeHS2HC6H2SHCHCH2NCH2SHC2HCH2C2HCH7NH2CHCHCH2
_chemical_formula_sum              "H384 C240 S96 Fe48 N24"
_cell_length_a       28.4136
_cell_length_b       28.6375
_cell_length_c       34.1415
_cell_angle_alpha    90.6437
_cell_angle_beta     90.415
_cell_angle_gamma    90.0319

_space_group_name_H-M_alt    "P 1"
_space_group_IT_number       1

loop_
  _space_group_symop_operation_xyz
  'x, y, z'

loop_
  _atom_site_type_symbol
  _atom_site_label
  _atom_site_symmetry_multiplicity
  _atom_site_fract_x
  _atom_site_fract_y
  _atom_site_fract_z
  _atom_site_occupancy
  H   H1        1.0  0.51183  0.38376  0.32852  1.0000
  H   H2        1.0  0.52720  0.27879  0.33783  1.0000
  C   C1        1.0  0.43057  0.33314  0.19123  1.0000
  C   C2        1.0  0.55183  0.07262  0.21917  1.0000
  H   H3        1.0  0.46664  0.10652  0.23566  1.0000
  H   H4        1.0  0.49447  0.33933  0.29358  1.0000
  H   H5        1.0  0.55282  0.28308  0.26846  1.0000
  C   C3        1.0  0.46834  0.08419  0.20882  1.0000
  H   H6        1.0  0.43330  0.06747  0.20434  1.0000
  H   H7        1.0  0.43069  0.40560  0.20901  1.0000
  C   C4        1.0  0.52405  0.36254  0.30303  1.0000
  S   S1        1.0  0.49030  0.32397  0.20223  1.0000
  H   H8        1.0  0.31233  0.15074  0.42079  1.0000
  H   H9        1.0  0.53069  0.38673  0.27834  1.0000
  C   C5        1.0  0.55609  0.30353  0.34558  1.0000
  H   H10       1.0  0.54530  0.32323  0.37237  1.0000
  C   C6        1.0  0.41058  0.37759  0.19549  1.0000
  H   H11       1.0  0.55217  0.09155  0.24782  1.0000
  H   H12       1.0  0.56008  0.09834  0.19602  1.0000
  H   H13       1.0  0.47374  0.10750  0.18347  1.0000
  H   H14       1.0  0.06829  0.51776  0.18720  1.0000
  H   H15       1.0  0.09216  0.45982  0.18518  1.0000
  S   S2        1.0  0.36946  0.31261  0.58238  1.0000
  H   H16       1.0  0.31605  0.35389  0.51876  1.0000
  H   H17       1.0  0.17036  0.47612  0.56912  1.0000
  H   H18       1.0  0.29547  0.44164  0.55555  1.0000
  S   S3        1.0  0.18225  0.15093  0.56290  1.0000
  Fe  Fe1       1.0  0.11908  0.13167  0.59814  1.0000
  Fe  Fe2       1.0  0.15281  0.10221  0.51724  1.0000
  Fe  Fe3       1.0  0.13546  0.20477  0.53600  1.0000
  S   S4        1.0  0.16206  0.27684  0.52155  1.0000
  C   C7        1.0  0.31234  0.13665  0.45103  1.0000
  S   S5        1.0  0.11010  0.15745  0.48745  1.0000
  C   C8        1.0  0.31159  0.30455  0.56573  1.0000
  C   C9        1.0  0.28316  0.27177  0.58434  1.0000
  C   C10       1.0  0.23690  0.26395  0.57139  1.0000
  C   C11       1.0  0.21922  0.28796  0.53910  1.0000
  C   C12       1.0  0.24777  0.32052  0.52017  1.0000
  C   C13       1.0  0.29388  0.32913  0.53366  1.0000
  H   H19       1.0  0.29675  0.25281  0.60924  1.0000
  H   H20       1.0  0.21472  0.23986  0.58689  1.0000
  H   H21       1.0  0.23434  0.33872  0.49482  1.0000
  H   H22       1.0  0.28393  0.17721  0.54177  1.0000
  H   H23       1.0  0.55701  0.46819  0.61672  1.0000
  N   N1        1.0  0.29612  0.17200  0.47979  1.0000
  H   H24       1.0  0.23397  0.21264  0.49094  1.0000
  H   H25       1.0  0.16907  0.41348  0.56516  1.0000
  H   H26       1.0  0.22297  0.15708  0.46856  1.0000
  H   H27       1.0  0.36470  0.20293  0.48747  1.0000
  H   H28       1.0  0.49510  0.55172  0.64381  1.0000
  H   H29       1.0  0.50682  0.35481  0.50568  1.0000
  Fe  Fe4       1.0  0.40142  0.38388  0.57558  1.0000
  C   C14       1.0  0.55539  0.39804  0.47423  1.0000
  H   H30       1.0  0.23901  0.51581  0.60121  1.0000
  H   H31       1.0  0.22965  0.48140  0.64432  1.0000
  S   S6        1.0  0.09372  0.07747  0.55495  1.0000
  H   H32       1.0  0.33203  0.13992  0.52823  1.0000
  H   H33       1.0  0.28898  0.10533  0.45076  1.0000
  H   H34       1.0  0.31662  0.23990  0.50105  1.0000
  H   H35       1.0  0.24656  0.20364  0.44006  1.0000
  H   H36       1.0  0.28596  0.48164  0.62074  1.0000
  N   N2        1.0  0.23264  0.44190  0.59033  1.0000
  C   C15       1.0  0.53689  0.35542  0.48649  1.0000
  S   S7        1.0  0.53135  0.45121  0.49059  1.0000
  C   C16       1.0  0.32800  0.21281  0.47952  1.0000
  C   C17       1.0  0.29620  0.15153  0.51934  1.0000
  S   S8        1.0  0.47910  0.39281  0.58483  1.0000
  H   H37       1.0  0.23025  0.39571  0.63964  1.0000
  H   H38       1.0  0.28438  0.39392  0.61278  1.0000
  H   H39       1.0  0.23239  0.36694  0.59294  1.0000
  H   H40       1.0  0.16185  0.44136  0.61213  1.0000
  S   S9        1.0  0.39769  0.42959  0.52265  1.0000
  Fe  Fe5       1.0  0.46000  0.45372  0.62334  1.0000
  S   S10       1.0  0.46112  0.50554  0.57470  1.0000
  Fe  Fe6       1.0  0.38506  0.48723  0.56648  1.0000
  H   H41       1.0  0.27256  0.12054  0.52063  1.0000
  Fe  Fe7       1.0  0.47419  0.44355  0.53548  1.0000
  S   S11       1.0  0.38252  0.44034  0.61857  1.0000
  H   H42       1.0  0.54300  0.28039  0.48349  1.0000
  S   S12       1.0  0.12595  0.12250  0.66327  1.0000
  C   C18       1.0  0.25660  0.44468  0.55213  1.0000
  C   C19       1.0  0.55730  0.31330  0.47379  1.0000
  C   C20       1.0  0.24549  0.39778  0.60980  1.0000
  C   C21       1.0  0.18115  0.44334  0.58396  1.0000
  C   C22       1.0  0.24790  0.18703  0.46933  1.0000
  H   H43       1.0  0.24474  0.41657  0.53170  1.0000
  H   H44       1.0  0.24965  0.47863  0.53756  1.0000
  S   S13       1.0  0.32852  0.54136  0.55978  1.0000
  H   H45       1.0  0.40270  0.54192  0.50249  1.0000
  C   C23       1.0  0.24726  0.48187  0.61536  1.0000
  H   H46       1.0  0.55908  0.54823  0.59140  1.0000
  S   S14       1.0  0.07423  0.18977  0.57505  1.0000
  C   C24       1.0  0.51901  0.55361  0.66845  1.0000
  H   H47       1.0  0.34858  0.12443  0.45797  1.0000
  H   H48       1.0  0.32871  0.22946  0.45024  1.0000
  S   S15       1.0  0.20445  0.06214  0.48021  1.0000
  S   S16       1.0  0.49697  0.46151  0.68179  1.0000
  C   C25       1.0  0.07972  0.09213  0.68512  1.0000
  H   H49       1.0  0.07307  0.31457  0.93191  1.0000
  H   H50       1.0  0.10568  0.23388  0.92609  1.0000
  C   C26       1.0  0.52509  0.51486  0.69252  1.0000
  H   H51       1.0  0.55958  0.48841  0.74411  1.0000
  H   H52       1.0  0.09823  0.11559  0.74340  1.0000
  C   C27       1.0  0.55494  0.51825  0.72530  1.0000
  C   C28       1.0  0.07458  0.09415  0.72587  1.0000
  Fe  Fe8       1.0  0.48873  0.18296  0.11198  1.0000
  H   H53       1.0  0.15732  0.40631  0.06207  1.0000
  C   C29       1.0  0.47635  0.40018  0.11065  1.0000
  C   C30       1.0  0.40419  0.29698  0.17419  1.0000
  C   C31       1.0  0.11291  0.44628  0.02358  1.0000
  H   H54       1.0  0.33921  0.27773  0.14544  1.0000
  S   S17       1.0  0.28614  0.36142  0.13752  1.0000
  C   C32       1.0  0.44471  0.07496  0.08872  1.0000
  H   H55       1.0  0.42751  0.46202  0.03630  1.0000
  S   S18       1.0  0.43058  0.12956  0.10919  1.0000
  S   S19       1.0  0.47708  0.25949  0.10187  1.0000
  H   H56       1.0  0.08098  0.31161  0.98413  1.0000
  C   C33       1.0  0.12277  0.40943  0.04889  1.0000
  H   H57       1.0  0.07898  0.18695  0.95251  1.0000
  C   C34       1.0  0.08783  0.37656  0.05735  1.0000
  C   C35       1.0  0.35893  0.30567  0.15951  1.0000
  C   C36       1.0  0.33997  0.35069  0.16141  1.0000
  S   S20       1.0  0.55734  0.18099  0.07980  1.0000
  C   C37       1.0  0.48472  0.06882  0.06568  1.0000
  H   H58       1.0  0.41886  0.26224  0.17180  1.0000
  H   H59       1.0  0.51352  0.41167  0.10744  1.0000
  H   H60       1.0  0.38196  0.41064  0.10219  1.0000
  Fe  Fe9       1.0  0.27157  0.43508  0.11904  1.0000
  H   H61       1.0  0.45257  0.38278  0.01387  1.0000
  H   H62       1.0  0.32833  0.10493  0.01632  1.0000
  Fe  Fe10      1.0  0.54925  0.25859  0.07612  1.0000
  H   H63       1.0  0.50848  0.09755  0.06104  1.0000
  H   H64       1.0  0.31924  0.10244  0.96419  1.0000
  H   H65       1.0  0.09130  0.46174  0.11314  1.0000
  H   H66       1.0  0.48460  0.46973  0.05854  1.0000
  H   H67       1.0  0.37925  0.39202  0.05207  1.0000
  H   H68       1.0  0.46071  0.42080  0.13511  1.0000
  C   C38       1.0  0.40046  0.38951  0.07948  1.0000
  H   H69       1.0  0.39952  0.35244  0.08903  1.0000
  H   H70       1.0  0.47699  0.36304  0.11986  1.0000
  H   H71       1.0  0.47209  0.34068  0.04891  1.0000
  Fe  Fe11      1.0  0.21152  0.48950  0.06187  1.0000
  H   H72       1.0  0.43232  0.47771  0.08703  1.0000
  Fe  Fe12      1.0  0.31196  0.51920  0.07895  1.0000
  S   S21       1.0  0.30894  0.49871  0.14198  1.0000
  H   H73       1.0  0.50887  0.38936  0.03778  1.0000
  C   C39       1.0  0.47163  0.37862  0.04219  1.0000
  Fe  Fe13      1.0  0.23735  0.53183  0.14053  1.0000
  S   S22       1.0  0.19922  0.46624  0.12342  1.0000
  S   S23       1.0  0.28067  0.45272  0.05557  1.0000
  S   S24       1.0  0.15515  0.48972  0.01544  1.0000
  N   N3        1.0  0.44925  0.40604  0.07392  1.0000
  C   C40       1.0  0.44852  0.45597  0.06344  1.0000
  H   H74       1.0  0.09551  0.34839  0.07728  1.0000
  C   C41       1.0  0.06845  0.44928  0.00576  1.0000
  S   S25       1.0  0.52088  0.19345  0.17161  1.0000
  Fe  Fe14      1.0  0.51517  0.26959  0.15915  1.0000
  C   C42       1.0  0.30994  0.08541  0.99224  1.0000
  S   S26       1.0  0.24365  0.55808  0.07940  1.0000
  H   H75       1.0  0.27140  0.08975  0.99668  1.0000
  H   H76       1.0  0.11212  0.23112  0.97849  1.0000
  C   C43       1.0  0.08716  0.22505  0.95365  1.0000
  C   C44       1.0  0.36539  0.38648  0.18024  1.0000
  S   S27       1.0  0.37529  0.55265  0.05231  1.0000
  H   H77       1.0  0.06752  0.51951  0.11426  1.0000
  H   H78       1.0  0.35046  0.42101  0.18276  1.0000
  C   C45       1.0  0.31408  0.71216  0.22094  1.0000
  C   C46       1.0  0.12820  0.61424  0.21355  1.0000
  C   C47       1.0  0.49589  0.01714  0.24424  1.0000
  H   H79       1.0  0.09738  0.72727  0.27583  1.0000
  H   H80       1.0  0.14391  0.61536  0.24254  1.0000
  N   N4        1.0  0.26208  0.71406  0.22068  1.0000
  H   H81       1.0  0.46410  0.67782  0.36905  1.0000
  C   C48       1.0  0.13967  0.71127  0.32653  1.0000
  H   H82       1.0  0.52087  0.78954  0.33844  1.0000
  S   S28       1.0  0.18348  0.75153  0.31414  1.0000
  H   H83       1.0  0.17422  0.68644  0.37857  1.0000
  H   H84       1.0  0.32876  0.72320  0.24992  1.0000
  N   N5        1.0  0.49331  0.74530  0.38323  1.0000
  C   C49       1.0  0.24673  0.76213  0.23019  1.0000
  H   H85       1.0  0.42313  0.75206  0.35995  1.0000
  H   H86       1.0  0.10809  0.63490  0.39758  1.0000
  C   C50       1.0  0.14295  0.68469  0.36056  1.0000
  H   H87       1.0  0.52254  0.67640  0.38974  1.0000
  C   C51       1.0  0.09992  0.70713  0.30240  1.0000
  C   C52       1.0  0.12979  0.81398  0.40544  1.0000
  C   C53       1.0  0.10566  0.65529  0.37116  1.0000
  H   H88       1.0  0.25994  0.78755  0.20843  1.0000
  H   H89       1.0  0.46217  0.99805  0.23948  1.0000
  H   H90       1.0  0.25629  0.69053  0.28014  1.0000
  C   C54       1.0  0.08129  0.62796  0.20839  1.0000
  S   S29       1.0  0.53579  0.79806  0.24164  1.0000
  C   C55       1.0  0.44639  0.76758  0.38301  1.0000
  S   S30       1.0  0.21188  0.57794  0.18935  1.0000
  C   C56       1.0  0.52271  0.76707  0.41431  1.0000
  H   H91       1.0  0.14461  0.78742  0.38503  1.0000
  H   H92       1.0  0.44871  0.80577  0.37754  1.0000
  H   H93       1.0  0.15983  0.83082  0.42113  1.0000
  S   S31       1.0  0.24728  0.84162  0.37807  1.0000
  H   H94       1.0  0.42827  0.76294  0.41150  1.0000
  C   C57       1.0  0.24359  0.68142  0.25010  1.0000
  S   S32       1.0  0.37326  0.88251  0.34534  1.0000
  C   C58       1.0  0.48885  0.82364  0.26710  1.0000
  H   H95       1.0  0.44063  0.76747  0.25388  1.0000
  H   H96       1.0  0.37629  0.80059  0.29429  1.0000
  C   C59       1.0  0.51592  0.75185  0.34483  1.0000
  H   H97       1.0  0.46425  0.91710  0.32599  1.0000
  Fe  Fe15      1.0  0.32456  0.82930  0.37108  1.0000
  Fe  Fe16      1.0  0.23902  0.76685  0.35954  1.0000
  N   N6        1.0  0.09661  0.79274  0.43319  1.0000
  S   S33       1.0  0.31547  0.75703  0.34683  1.0000
  H   H98       1.0  0.32927  0.73555  0.19839  1.0000
  C   C60       1.0  0.41628  0.86054  0.31347  1.0000
  C   C61       1.0  0.45885  0.88466  0.30998  1.0000
  C   C62       1.0  0.49517  0.86613  0.28705  1.0000
  H   H99       1.0  0.25977  0.77352  0.25963  1.0000
  C   C63       1.0  0.44574  0.80018  0.26951  1.0000
  C   C64       1.0  0.40951  0.81861  0.29273  1.0000
  H   H100      1.0  0.20762  0.76472  0.23074  1.0000
  N   N7        1.0  0.50624  0.04906  0.21166  1.0000
  H   H101      1.0  0.20440  0.68193  0.25075  1.0000
  H   H102      1.0  0.25437  0.64476  0.24368  1.0000
  H   H103      1.0  0.11260  0.84129  0.38739  1.0000
  H   H104      1.0  0.49430  0.73654  0.32057  1.0000
  H   H105      1.0  0.32689  0.67608  0.21483  1.0000
  H   H106      1.0  0.52410  0.99078  0.24795  1.0000
  H   H107      1.0  0.52845  0.88424  0.28583  1.0000
  C   C65       1.0  0.48813  0.69484  0.39085  1.0000
  Fe  Fe17      1.0  0.32128  0.73504  0.40946  1.0000
  H   H108      1.0  0.55121  0.73510  0.34360  1.0000
  H   H109      1.0  0.47266  0.68865  0.42024  1.0000
  H   H110      1.0  0.52712  0.80521  0.40936  1.0000
  H   H111      1.0  0.49358  0.03638  0.27270  1.0000
  H   H112      1.0  0.55839  0.75111  0.41538  1.0000
  S   S34       1.0  0.24346  0.73794  0.42015  1.0000
  S   S35       1.0  0.37261  0.67684  0.41984  1.0000
  S   S36       1.0  0.33556  0.80700  0.43327  1.0000
  C   C66       1.0  0.06556  0.65171  0.34721  1.0000
  H   H113      1.0  0.06746  0.74663  0.38918  1.0000
  C   C67       1.0  0.34068  0.57912  0.52098  1.0000
  C   C68       1.0  0.24109  0.92777  0.46113  1.0000
  H   H114      1.0  0.15184  0.76846  0.47129  1.0000
  C   C69       1.0  0.31103  0.61720  0.51371  1.0000
  C   C70       1.0  0.32057  0.64754  0.48270  1.0000
  H   H115      1.0  0.29778  0.67702  0.47735  1.0000
  Fe  Fe18      1.0  0.25704  0.81245  0.43823  1.0000
  H   H116      1.0  0.28081  0.62337  0.53214  1.0000
  C   C71       1.0  0.18235  0.92767  0.51214  1.0000
  C   C72       1.0  0.35966  0.63965  0.45885  1.0000
  H   H117      1.0  0.41945  0.59528  0.44773  1.0000
  C   C73       1.0  0.37982  0.57136  0.49719  1.0000
  H   H118      1.0  0.26555  0.90932  0.44246  1.0000
  C   C74       1.0  0.21324  0.90324  0.48746  1.0000
  H   H119      1.0  0.25963  0.99525  0.43879  1.0000
  C   C75       1.0  0.17911  0.97661  0.51019  1.0000
  C   C76       1.0  0.38927  0.60159  0.46618  1.0000
  H   H120      1.0  0.10752  0.91044  0.67759  1.0000
  S   S37       1.0  0.21632  0.84202  0.48920  1.0000
  H   H121      1.0  0.15530  0.99538  0.52922  1.0000
  C   C77       1.0  0.23793  0.97652  0.45926  1.0000
  H   H122      1.0  0.16093  0.90881  0.53268  1.0000
  C   C78       1.0  0.20692  0.00103  0.48365  1.0000
  H   H123      1.0  0.11053  0.84394  0.47832  1.0000
  C   C79       1.0  0.12057  0.75504  0.45484  1.0000
  H   H124      1.0  0.09673  0.73846  0.47631  1.0000
  H   H125      1.0  0.53895  0.62498  0.65775  1.0000
  H   H126      1.0  0.50641  0.76289  0.44365  1.0000
  C   C80       1.0  0.54356  0.59518  0.67659  1.0000
  C   C81       1.0  0.08038  0.82890  0.46122  1.0000
  H   H127      1.0  0.13322  0.72708  0.43468  1.0000
  H   H128      1.0  0.19116  0.93169  0.76088  1.0000
  H   H129      1.0  0.10950  0.99476  0.69474  1.0000
  H   H130      1.0  0.42672  0.74297  0.78508  1.0000
  H   H131      1.0  0.06486  0.96399  0.76986  1.0000
  H   H132      1.0  0.45041  0.68384  0.89397  1.0000
  H   H133      1.0  0.14673  0.95370  0.79352  1.0000
  H   H134      1.0  0.51895  0.70885  0.71272  1.0000
  H   H135      1.0  0.46410  0.79356  0.78195  1.0000
  H   H136      1.0  0.53668  0.83220  0.91771  1.0000
  H   H137      1.0  0.49559  0.76679  0.71779  1.0000
  C   C82       1.0  0.46915  0.71629  0.89885  1.0000
  S   S38       1.0  0.10675  0.89274  0.85682  1.0000
  C   C83       1.0  0.54616  0.74636  0.78175  1.0000
  H   H138      1.0  0.16750  0.90403  0.69367  1.0000
  H   H139      1.0  0.52265  0.65670  0.76988  1.0000
  C   C84       1.0  0.15334  0.92897  0.76871  1.0000
  N   N8        1.0  0.12226  0.93882  0.73490  1.0000
  C   C85       1.0  0.54203  0.76082  0.89772  1.0000
  C   C86       1.0  0.49218  0.73037  0.72843  1.0000
  C   C87       1.0  0.46276  0.75648  0.79127  1.0000
  C   C88       1.0  0.14373  0.90080  0.89790  1.0000
  C   C89       1.0  0.18548  0.87494  0.90107  1.0000
  C   C90       1.0  0.46979  0.79701  0.92063  1.0000
  H   H140      1.0  0.53632  0.68832  0.88126  1.0000
  C   C91       1.0  0.07261  0.93675  0.74739  1.0000
  H   H141      1.0  0.16976  0.98877  0.70975  1.0000
  H   H142      1.0  0.19470  0.85015  0.87825  1.0000
  H   H143      1.0  0.26979  0.67453  0.91878  1.0000
  C   C92       1.0  0.13200  0.93286  0.92743  1.0000
  C   C93       1.0  0.44519  0.75545  0.91347  1.0000
  C   C94       1.0  0.13276  0.98589  0.71993  1.0000
  H   H144      1.0  0.45690  0.71701  0.71943  1.0000
  H   H145      1.0  0.10002  0.95312  0.92511  1.0000
  H   H146      1.0  0.30670  0.02590  0.93071  1.0000
  C   C95       1.0  0.13028  0.90369  0.70363  1.0000
  S   S39       1.0  0.38469  0.75263  0.92321  1.0000
  H   H147      1.0  0.46794  0.75648  0.82364  1.0000
  C   C96       1.0  0.51799  0.79973  0.91257  1.0000
  C   C97       1.0  0.51769  0.71886  0.89141  1.0000
  C   C98       1.0  0.49517  0.67893  0.78383  1.0000
  H   H148      1.0  0.45158  0.82739  0.93193  1.0000
  H   H149      1.0  0.46038  0.66364  0.77579  1.0000
  N   N9        1.0  0.49902  0.72804  0.77133  1.0000
  H   H150      1.0  0.54998  0.78380  0.77404  1.0000
  H   H151      1.0  0.12221  0.86781  0.71393  1.0000
  H   H152      1.0  0.49961  0.67580  0.81607  1.0000
  H   H153      1.0  0.14727  0.89318  0.78011  1.0000
  H   H154      1.0  0.12751  0.01319  0.74296  1.0000
  H   H155      1.0  0.55342  0.74349  0.81367  1.0000
  S   S40       1.0  0.36266  0.88362  0.96504  1.0000
  H   H156      1.0  0.32937  0.67503  0.14411  1.0000
  H   H157      1.0  0.33542  0.59336  0.12174  1.0000
  C   C99       1.0  0.36985  0.70262  0.09697  1.0000
  C   C100      1.0  0.39648  0.69153  0.06378  1.0000
  C   C101      1.0  0.40146  0.64478  0.05165  1.0000
  C   C102      1.0  0.37839  0.60936  0.07192  1.0000
  C   C103      1.0  0.35313  0.62041  0.10573  1.0000
  C   C104      1.0  0.34952  0.66681  0.11847  1.0000
  H   H158      1.0  0.41295  0.71876  0.04721  1.0000
  H   H159      1.0  0.42144  0.63639  0.02564  1.0000
  N   N10       1.0  0.52631  0.84348  0.11074  1.0000
  H   H160      1.0  0.45299  0.82576  0.10383  1.0000
  C   C105      1.0  0.48518  0.81373  0.11949  1.0000
  H   H161      1.0  0.35884  0.66882  0.97152  1.0000
  H   H162      1.0  0.54571  0.91600  0.11468  1.0000
  Fe  Fe19      1.0  0.36981  0.80580  0.97033  1.0000
  H   H163      1.0  0.29076  0.71773  0.95282  1.0000
  C   C106      1.0  0.31034  0.01459  0.02972  1.0000
  C   C107      1.0  0.28324  0.66455  0.01735  1.0000
  H   H164      1.0  0.38639  0.99418  0.98726  1.0000
  H   H165      1.0  0.25493  0.66456  0.17328  1.0000
  C   C108      1.0  0.37471  0.03132  0.98622  1.0000
  H   H166      1.0  0.50752  0.89626  0.15301  1.0000
  C   C109      1.0  0.13335  0.59594  0.14434  1.0000
  C   C110      1.0  0.16156  0.93857  0.96025  1.0000
  H   H167      1.0  0.30620  0.69539  0.02304  1.0000
  C   C111      1.0  0.50876  0.02239  0.17439  1.0000
  H   H168      1.0  0.32139  0.97739  0.03107  1.0000
  H   H169      1.0  0.27154  0.01518  0.03421  1.0000
  H   H170      1.0  0.49126  0.77671  0.11063  1.0000
  H   H171      1.0  0.15319  0.58311  0.11958  1.0000
  S   S41       1.0  0.30679  0.79718  0.00878  1.0000
  S   S42       1.0  0.34960  0.88415  0.06157  1.0000
  Fe  Fe20      1.0  0.40864  0.88720  0.01874  1.0000
  S   S43       1.0  0.46949  0.93727  0.02375  1.0000
  Fe  Fe21      1.0  0.35879  0.80671  0.05785  1.0000
  S   S44       1.0  0.23900  0.92010  0.00531  1.0000
  H   H172      1.0  0.24668  0.67442  0.02543  1.0000
  H   H173      1.0  0.47716  0.81406  0.15142  1.0000
  C   C112      1.0  0.46126  0.98877  0.05122  1.0000
  C   C113      1.0  0.49304  0.02572  0.04705  1.0000
  C   C114      1.0  0.51555  0.89252  0.12129  1.0000
  Fe  Fe22      1.0  0.30393  0.87541  0.00805  1.0000
  C   C115      1.0  0.41421  0.03730  0.09449  1.0000
  C   C116      1.0  0.42246  0.99427  0.07578  1.0000
  H   H174      1.0  0.52341  0.02152  0.02836  1.0000
  H   H175      1.0  0.21969  0.61245  0.97845  1.0000
  H   H176      1.0  0.30783  0.97318  0.95866  1.0000
  H   H177      1.0  0.39835  0.96578  0.07993  1.0000
  H   H178      1.0  0.25684  0.72454  0.15846  1.0000
  C   C117      1.0  0.33566  0.63786  0.96644  1.0000
  H   H179      1.0  0.15205  0.96310  0.98320  1.0000
  H   H180      1.0  0.39467  0.05075  0.00938  1.0000
  C   C118      1.0  0.26870  0.68567  0.95009  1.0000
  S   S45       1.0  0.35876  0.76084  0.11062  1.0000
  S   S46       1.0  0.42195  0.81022  0.01956  1.0000
  H   H181      1.0  0.25938  0.01238  0.96355  1.0000
  N   N11       1.0  0.28616  0.64851  0.97614  1.0000
  H   H182      1.0  0.50745  0.85225  0.05024  1.0000
  C   C119      1.0  0.08664  0.61090  0.13904  1.0000
  H   H183      1.0  0.25816  0.59288  0.93999  1.0000
  H   H184      1.0  0.29471  0.63677  0.03776  1.0000
  C   C120      1.0  0.25718  0.60595  0.97078  1.0000
  C   C121      1.0  0.53740  0.84025  0.06856  1.0000
  H   H185      1.0  0.48462  0.90555  0.10448  1.0000
  H   H186      1.0  0.38363  0.04172  0.11289  1.0000
  C   C122      1.0  0.20293  0.91227  0.96371  1.0000
  H   H187      1.0  0.34962  0.60892  0.98463  1.0000
  N   N12       1.0  0.32333  0.03554  0.99194  1.0000
  C   C123      1.0  0.24387  0.70059  0.18149  1.0000
  H   H188      1.0  0.47525  0.00364  0.16790  1.0000
  C   C124      1.0  0.29829  0.01087  0.95971  1.0000
  H   H189      1.0  0.23181  0.69561  0.95708  1.0000
  H   H190      1.0  0.32703  0.03339  0.05485  1.0000
  H   H191      1.0  0.26993  0.57715  0.98985  1.0000
  H   H192      1.0  0.20467  0.70089  0.18067  1.0000
  H   H193      1.0  0.07053  0.60931  0.11025  1.0000
  H   H194      1.0  0.56051  0.82997  0.16568  1.0000
  H   H195      1.0  0.51564  0.04593  0.14930  1.0000
  H   H196      1.0  0.53776  0.99633  0.17495  1.0000
  H   H197      1.0  0.38569  0.04545  0.95749  1.0000
  C   C125      1.0  0.15406  0.59741  0.18170  1.0000
  H   H198      1.0  0.54568  0.80379  0.05938  1.0000
  H   H199      1.0  0.33950  0.62730  0.93519  1.0000
  H   H200      1.0  0.24703  0.86031  0.93642  1.0000
  C   C126      1.0  0.21508  0.88062  0.93396  1.0000
  S   S47       1.0  0.90800  0.55539  0.31165  1.0000
  S   S48       1.0  0.69181  0.25702  0.33777  1.0000
  H   H201      1.0  0.58888  0.33055  0.25292  1.0000
  Fe  Fe23      1.0  0.74335  0.31568  0.33977  1.0000
  S   S49       1.0  0.76520  0.15132  0.30698  1.0000
  C   C127      1.0  0.86901  0.37469  0.26036  1.0000
  H   H202      1.0  0.84101  0.40210  0.35231  1.0000
  C   C128      1.0  0.68120  0.11732  0.33361  1.0000
  C   C129      1.0  0.71398  0.11769  0.30321  1.0000
  H   H203      1.0  0.84247  0.43676  0.39639  1.0000
  H   H204      1.0  0.73314  0.08851  0.24732  1.0000
  H   H205      1.0  0.91594  0.47658  0.37476  1.0000
  H   H206      1.0  0.69984  0.29703  0.23171  1.0000
  H   H207      1.0  0.68556  0.14060  0.35857  1.0000
  C   C130      1.0  0.92346  0.35863  0.36343  1.0000
  C   C131      1.0  0.60506  0.36739  0.32478  1.0000
  H   H208      1.0  0.63754  0.34796  0.33295  1.0000
  H   H209      1.0  0.84079  0.37416  0.39904  1.0000
  C   C132      1.0  0.69310  0.28477  0.20107  1.0000
  C   C133      1.0  0.92602  0.44287  0.36063  1.0000
  C   C134      1.0  0.85574  0.40400  0.38260  1.0000
  C   C135      1.0  0.92587  0.40456  0.42314  1.0000
  N   N13       1.0  0.90777  0.40251  0.38246  1.0000
  H   H210      1.0  0.96509  0.44208  0.35849  1.0000
  Fe  Fe24      1.0  0.69095  0.26482  0.40303  1.0000
  H   H211      1.0  0.77353  0.06323  0.35164  1.0000
  H   H212      1.0  0.76172  0.34834  0.20575  1.0000
  S   S50       1.0  0.80701  0.27028  0.34451  1.0000
  C   C136      1.0  0.70813  0.08773  0.27101  1.0000
  H   H213      1.0  0.91061  0.35608  0.33264  1.0000
  H   H214      1.0  0.96252  0.35608  0.36286  1.0000
  Fe  Fe25      1.0  0.75478  0.21202  0.34750  1.0000
  H   H215      1.0  0.76889  0.46415  0.27898  1.0000
  H   H216      1.0  0.81799  0.32236  0.27514  1.0000
  H   H217      1.0  0.61319  0.28662  0.28443  1.0000
  C   C137      1.0  0.58114  0.30761  0.27821  1.0000
  H   H218      1.0  0.96502  0.40359  0.42397  1.0000
  C   C138      1.0  0.78846  0.39148  0.27914  1.0000
  Fe  Fe26      1.0  0.79682  0.27575  0.40940  1.0000
  H   H219      1.0  0.89697  0.34974  0.25528  1.0000
  H   H220      1.0  0.91186  0.44332  0.33025  1.0000
  S   S51       1.0  0.73368  0.37280  0.29621  1.0000
  C   C139      1.0  0.77207  0.25465  0.19650  1.0000
  H   H221      1.0  0.75899  0.21800  0.19847  1.0000
  C   C140      1.0  0.82448  0.35923  0.27200  1.0000
  H   H222      1.0  0.59508  0.38914  0.35066  1.0000
  H   H223      1.0  0.61471  0.39139  0.30068  1.0000
  H   H224      1.0  0.58740  0.28231  0.35382  1.0000
  H   H225      1.0  0.84789  0.49159  0.25995  1.0000
  H   H226      1.0  0.90998  0.32746  0.37910  1.0000
  Fe  Fe27      1.0  0.93639  0.51957  0.25809  1.0000
  S   S52       1.0  0.93519  0.44217  0.24811  1.0000
  H   H227      1.0  0.62033  0.08275  0.35725  1.0000
  C   C141      1.0  0.87784  0.42248  0.25670  1.0000
  C   C142      1.0  0.79671  0.43907  0.27372  1.0000
  C   C143      1.0  0.84151  0.45461  0.26296  1.0000
  N   N14       1.0  0.56661  0.33527  0.31290  1.0000
  C   C144      1.0  0.64426  0.08472  0.33280  1.0000
  H   H228      1.0  0.67796  0.24889  0.20242  1.0000
  C   C145      1.0  0.05871  0.48005  0.18504  1.0000
  H   H229      1.0  0.78049  0.26671  0.22687  1.0000
  S   S53       1.0  0.73791  0.32774  0.40452  1.0000
  H   H230      1.0  0.03905  0.47102  0.21206  1.0000
  H   H231      1.0  0.64378  0.35689  0.41650  1.0000
  S   S54       1.0  0.74937  0.21310  0.41305  1.0000
  S   S55       1.0  0.00429  0.55877  0.25851  1.0000
  H   H232      1.0  0.66590  0.30800  0.18814  1.0000
  Fe  Fe28      1.0  0.05309  0.13713  0.52898  1.0000
  H   H233      1.0  0.97662  0.16763  0.59156  1.0000
  S   S56       1.0  0.62127  0.26033  0.43364  1.0000
  H   H234      1.0  0.84247  0.19322  0.44607  1.0000
  H   H235      1.0  0.60808  0.43131  0.43904  1.0000
  H   H236      1.0  0.92532  0.18648  0.66896  1.0000
  H   H237      1.0  0.60511  0.42896  0.60854  1.0000
  C   C146      1.0  0.89280  0.24537  0.46440  1.0000
  H   H238      1.0  0.88924  0.12690  0.47138  1.0000
  C   C147      1.0  0.90256  0.16214  0.47448  1.0000
  C   C148      1.0  0.94638  0.17003  0.49246  1.0000
  C   C149      1.0  0.96346  0.21566  0.49645  1.0000
  C   C150      1.0  0.93651  0.25330  0.48268  1.0000
  H   H239      1.0  0.93388  0.10079  0.67710  1.0000
  H   H240      1.0  0.67218  0.51191  0.54636  1.0000
  H   H241      1.0  0.91430  0.43699  0.43851  1.0000
  H   H242      1.0  0.94968  0.28857  0.48604  1.0000
  N   N15       1.0  0.92004  0.13540  0.62254  1.0000
  H   H243      1.0  0.85396  0.12383  0.59260  1.0000
  C   C151      1.0  0.61435  0.35627  0.43622  1.0000
  C   C152      1.0  0.59639  0.31363  0.44902  1.0000
  C   C153      1.0  0.58443  0.45781  0.59529  1.0000
  H   H244      1.0  0.99282  0.14540  0.63891  1.0000
  C   C154      1.0  0.91292  0.09612  0.64960  1.0000
  H   H245      1.0  0.91007  0.20976  0.62187  1.0000
  H   H246      1.0  0.66285  0.48691  0.63288  1.0000
  H   H247      1.0  0.91309  0.37446  0.44046  1.0000
  H   H248      1.0  0.86691  0.17828  0.64938  1.0000
  C   C155      1.0  0.97040  0.13881  0.61252  1.0000
  C   C156      1.0  0.90486  0.17944  0.64156  1.0000
  H   H249      1.0  0.67101  0.45354  0.56540  1.0000
  S   S57       1.0  0.97784  0.12246  0.51147  1.0000
  N   N16       1.0  0.61457  0.49780  0.58501  1.0000
  S   S58       1.0  0.85952  0.29314  0.44774  1.0000
  H   H250      1.0  0.98325  0.10615  0.59815  1.0000
  H   H251      1.0  0.99725  0.22201  0.51031  1.0000
  C   C157      1.0  0.64861  0.48276  0.55485  1.0000
  C   C158      1.0  0.87603  0.19967  0.46013  1.0000
  C   C159      1.0  0.63992  0.51461  0.62044  1.0000
  H   H252      1.0  0.61493  0.52538  0.64388  1.0000
  H   H253      1.0  0.63011  0.47013  0.52776  1.0000
  C   C160      1.0  0.59390  0.39840  0.44882  1.0000
  H   H254      1.0  0.66243  0.54537  0.61405  1.0000
  C   C161      1.0  0.58503  0.53587  0.56937  1.0000
  C   C162      1.0  0.89214  0.12742  0.58634  1.0000
  H   H255      1.0  0.87535  0.09262  0.65807  1.0000
  H   H256      1.0  0.89634  0.15679  0.56549  1.0000
  H   H257      1.0  0.90379  0.09522  0.57054  1.0000
  H   H258      1.0  0.92387  0.06236  0.63600  1.0000
  C   C163      1.0  0.04907  0.06454  0.66254  1.0000
  H   H259      1.0  0.05332  0.06226  0.63119  1.0000
  H   H260      1.0  0.56612  0.44322  0.56899  1.0000
  H   H261      1.0  0.56477  0.52415  0.54297  1.0000
  C   C164      1.0  0.88908  0.19506  0.92666  1.0000
  C   C165      1.0  0.57910  0.56000  0.73373  1.0000
  H   H262      1.0  0.85284  0.06799  0.91059  1.0000
  C   C166      1.0  0.03895  0.06850  0.74406  1.0000
  H   H263      1.0  0.75372  0.54554  0.84386  1.0000
  H   H264      1.0  0.97761  0.26262  0.92854  1.0000
  C   C167      1.0  0.92964  0.12827  0.89807  1.0000
  C   C168      1.0  0.89840  0.16593  0.89441  1.0000
  H   H265      1.0  0.62635  0.34784  0.85892  1.0000
  H   H266      1.0  0.60716  0.42862  0.88197  1.0000
  H   H267      1.0  0.93767  0.10668  0.87281  1.0000
  H   H268      1.0  0.83345  0.51336  0.85561  1.0000
  H   H269      1.0  0.88206  0.17302  0.86636  1.0000
  H   H270      1.0  0.66869  0.44203  0.88087  1.0000
  H   H271      1.0  0.03469  0.07078  0.77543  1.0000
  H   H272      1.0  0.72530  0.39542  0.91938  1.0000
  H   H273      1.0  0.57863  0.36180  0.91961  1.0000
  C   C169      1.0  0.64028  0.42755  0.89950  1.0000
  C   C170      1.0  0.72629  0.52234  0.89894  1.0000
  H   H274      1.0  0.66734  0.31290  0.88632  1.0000
  C   C171      1.0  0.76144  0.52793  0.87095  1.0000
  H   H275      1.0  0.63602  0.45195  0.92486  1.0000
  H   H276      1.0  0.02709  0.25430  0.89683  1.0000
  S   S59       1.0  0.87441  0.46799  0.92197  1.0000
  N   N17       1.0  0.65164  0.37975  0.91238  1.0000
  C   C172      1.0  0.01155  0.24360  0.92515  1.0000
  C   C173      1.0  0.65857  0.34928  0.87766  1.0000
  C   C174      1.0  0.81682  0.48666  0.91255  1.0000
  C   C175      1.0  0.80654  0.50975  0.87762  1.0000
  S   S60       1.0  0.66948  0.54397  0.89059  1.0000
  H   H277      1.0  0.00293  0.20577  0.92265  1.0000
  S   S61       1.0  0.85075  0.24247  0.92119  1.0000
  H   H278      1.0  0.68799  0.36213  0.85925  1.0000
  S   S62       1.0  0.87342  0.29739  0.02851  1.0000
  H   H279      1.0  0.01383  0.20236  0.99685  1.0000
  C   C176      1.0  0.04307  0.38022  0.04030  1.0000
  S   S63       1.0  0.99991  0.33902  0.05178  1.0000
  Fe  Fe29      1.0  0.82701  0.36061  0.03106  1.0000
  S   S64       1.0  0.77120  0.37106  0.07648  1.0000
  H   H280      1.0  0.74240  0.30671  0.01516  1.0000
  Fe  Fe30      1.0  0.87446  0.40732  0.96301  1.0000
  H   H281      1.0  0.69831  0.28857  0.12339  1.0000
  H   H282      1.0  0.05004  0.39744  0.14711  1.0000
  H   H283      1.0  0.70937  0.49475  0.95559  1.0000
  Fe  Fe31      1.0  0.93138  0.34950  0.01989  1.0000
  C   C177      1.0  0.72665  0.26790  0.13761  1.0000
  C   C178      1.0  0.75514  0.33345  0.17599  1.0000
  C   C179      1.0  0.62630  0.32175  0.03610  1.0000
  C   C180      1.0  0.63073  0.35427  0.06675  1.0000
  C   C181      1.0  0.67538  0.36996  0.07858  1.0000
  C   C182      1.0  0.71565  0.35318  0.05975  1.0000
  C   C183      1.0  0.71127  0.32076  0.02899  1.0000
  C   C184      1.0  0.66656  0.30493  0.01724  1.0000
  H   H284      1.0  0.69131  0.40247  0.96316  1.0000
  H   H285      1.0  0.67876  0.39489  0.10249  1.0000
  C   C185      1.0  0.98683  0.49813  0.15030  1.0000
  H   H286      1.0  0.66336  0.27850  0.99448  1.0000
  H   H287      1.0  0.73000  0.35704  0.16076  1.0000
  H   H288      1.0  0.99706  0.40962  0.17402  1.0000
  C   C186      1.0  0.01802  0.41980  0.14798  1.0000
  C   C187      1.0  0.02079  0.24046  0.99547  1.0000
  H   H289      1.0  0.95622  0.13990  0.99493  1.0000
  H   H290      1.0  0.90265  0.20785  0.98797  1.0000
  S   S65       1.0  0.88589  0.41267  0.02794  1.0000
  H   H291      1.0  0.96513  0.48974  0.17632  1.0000
  H   H292      1.0  0.70568  0.34504  0.94550  1.0000
  Fe  Fe32      1.0  0.58864  0.19620  0.13890  1.0000
  H   H293      1.0  0.99485  0.53618  0.15164  1.0000
  H   H294      1.0  0.60766  0.38251  0.96343  1.0000
  C   C188      1.0  0.94062  0.14758  0.96672  1.0000
  Fe  Fe33      1.0  0.86364  0.30197  0.96343  1.0000
  H   H295      1.0  0.99667  0.41097  0.12138  1.0000
  C   C189      1.0  0.03346  0.41631  0.01417  1.0000
  H   H296      1.0  0.99896  0.41919  0.00078  1.0000
  H   H297      1.0  0.85265  0.09419  0.95856  1.0000
  S   S66       1.0  0.58681  0.27394  0.13272  1.0000
  H   H298      1.0  0.78963  0.46387  0.96791  1.0000
  H   H299      1.0  0.96467  0.49152  0.12380  1.0000
  C   C190      1.0  0.61427  0.07873  0.12742  1.0000
  H   H300      1.0  0.59973  0.36689  0.08172  1.0000
  H   H301      1.0  0.78880  0.33500  0.15952  1.0000
  S   S67       1.0  0.57071  0.29953  0.02361  1.0000
  H   H302      1.0  0.75824  0.27029  0.11861  1.0000
  H   H303      1.0  0.58563  0.10022  0.11742  1.0000
  N   N18       1.0  0.03038  0.46997  0.14943  1.0000
  S   S68       1.0  0.65200  0.15835  0.16147  1.0000
  C   C191      1.0  0.91027  0.18589  0.96285  1.0000
  C   C192      1.0  0.05625  0.30331  0.95956  1.0000
  S   S69       1.0  0.81159  0.36059  0.96661  1.0000
  C   C193      1.0  0.65126  0.09844  0.14939  1.0000
  C   C194      1.0  0.68774  0.06981  0.16266  1.0000
  H   H304      1.0  0.98649  0.25883  0.99895  1.0000
  C   C195      1.0  0.05792  0.48191  0.11440  1.0000
  N   N19       1.0  0.04391  0.25314  0.95843  1.0000
  N   N20       1.0  0.73675  0.28520  0.17778  1.0000
  H   H305      1.0  0.71490  0.23082  0.13755  1.0000
  H   H306      1.0  0.03788  0.47429  0.08695  1.0000
  H   H307      1.0  0.06079  0.47766  0.98604  1.0000
  H   H308      1.0  0.61907  0.32482  0.94510  1.0000
  H   H309      1.0  0.02457  0.32543  0.96413  1.0000
  H   H310      1.0  0.04289  0.25013  0.02141  1.0000
  S   S70       1.0  0.92569  0.34874  0.95441  1.0000
  C   C196      1.0  0.83417  0.06852  0.93915  1.0000
  S   S71       1.0  0.99016  0.07265  0.93971  1.0000
  C   C197      1.0  0.78162  0.48088  0.94052  1.0000
  H   H311      1.0  0.80549  0.25395  0.17970  1.0000
  C   C198      1.0  0.61253  0.36150  0.93610  1.0000
  C   C199      1.0  0.69533  0.38071  0.93613  1.0000
  H   H312      1.0  0.71666  0.08489  0.17920  1.0000
  H   H313      1.0  0.79806  0.08210  0.93370  1.0000
  C   C200      1.0  0.95071  0.11907  0.93427  1.0000
  C   C201      1.0  0.73632  0.49857  0.93363  1.0000
  C   C202      1.0  0.05597  0.77313  0.41125  1.0000
  Fe  Fe34      1.0  0.97307  0.59964  0.30822  1.0000
  S   S72       1.0  0.94025  0.65433  0.27014  1.0000
  H   H314      1.0  0.06126  0.63991  0.23330  1.0000
  Fe  Fe35      1.0  0.96625  0.60983  0.22057  1.0000
  S   S73       1.0  0.80214  0.62956  0.27029  1.0000
  Fe  Fe36      1.0  0.87767  0.60662  0.26910  1.0000
  H   H315      1.0  0.82102  0.75453  0.20669  1.0000
  H   H316      1.0  0.71195  0.94847  0.35507  1.0000
  H   H317      1.0  0.79228  0.95090  0.29758  1.0000
  H   H318      1.0  0.58140  0.04710  0.21994  1.0000
  H   H319      1.0  0.71533  0.98536  0.31329  1.0000
  Fe  Fe37      1.0  0.64980  0.91147  0.18698  1.0000
  C   C203      1.0  0.67078  0.05594  0.26986  1.0000
  S   S74       1.0  0.01826  0.61614  0.36083  1.0000
  H   H320      1.0  0.86162  0.70506  0.29895  1.0000
  C   C204      1.0  0.64015  0.05289  0.30152  1.0000
  H   H321      1.0  0.82565  0.98914  0.39881  1.0000
  C   C205      1.0  0.79269  0.68980  0.27562  1.0000
  H   H322      1.0  0.72120  0.68565  0.25446  1.0000
  C   C206      1.0  0.78719  0.98528  0.39317  1.0000
  C   C207      1.0  0.79158  0.03395  0.33613  1.0000
  Fe  Fe38      1.0  0.59687  0.84761  0.24113  1.0000
  S   S75       1.0  0.66136  0.83710  0.20436  1.0000
  Fe  Fe39      1.0  0.62591  0.94420  0.26906  1.0000
  S   S76       1.0  0.69333  0.94214  0.23559  1.0000
  H   H323      1.0  0.03657  0.80070  0.39509  1.0000
  C   C208      1.0  0.06304  0.67737  0.31270  1.0000
  S   S77       1.0  0.60079  0.00594  0.30439  1.0000
  Fe  Fe40      1.0  0.69909  0.86859  0.25650  1.0000
  S   S78       1.0  0.76996  0.84731  0.27969  1.0000
  H   H324      1.0  0.70484  0.01065  0.36056  1.0000
  S   S79       1.0  0.63535  0.87308  0.29486  1.0000
  N   N21       1.0  0.77616  0.98815  0.35090  1.0000
  S   S80       1.0  0.58203  0.91894  0.21879  1.0000
  C   C209      1.0  0.82106  0.76784  0.29112  1.0000
  C   C210      1.0  0.77775  0.78662  0.27945  1.0000
  C   C211      1.0  0.74160  0.75691  0.26666  1.0000
  H   H325      1.0  0.83979  0.95373  0.33256  1.0000
  H   H326      1.0  0.66624  0.03339  0.24466  1.0000
  H   H327      1.0  0.84890  0.79072  0.30149  1.0000
  H   H328      1.0  0.70787  0.77109  0.25815  1.0000
  C   C212      1.0  0.72487  0.98290  0.34482  1.0000
  H   H329      1.0  0.03073  0.75556  0.43104  1.0000
  C   C213      1.0  0.74909  0.70855  0.26476  1.0000
  H   H330      1.0  0.90157  0.74237  0.23333  1.0000
  H   H331      1.0  0.79072  0.91541  0.34035  1.0000
  C   C214      1.0  0.82849  0.71943  0.28929  1.0000
  S   S81       1.0  0.90078  0.56685  0.21567  1.0000
  H   H332      1.0  0.03240  0.67482  0.29409  1.0000
  H   H333      1.0  0.94819  0.72393  0.20134  1.0000
  C   C215      1.0  0.80093  0.95049  0.32948  1.0000
  H   H334      1.0  0.83009  0.03934  0.34014  1.0000
  H   H335      1.0  0.76897  0.01339  0.41003  1.0000
  H   H336      1.0  0.77590  0.95117  0.40531  1.0000
  H   H337      1.0  0.78366  0.03757  0.30432  1.0000
  H   H338      1.0  0.85494  0.67486  0.20992  1.0000
  H   H339      1.0  0.92579  0.78254  0.19897  1.0000
  C   C216      1.0  0.91552  0.74544  0.20308  1.0000
  H   H340      1.0  0.99064  0.01654  0.66328  1.0000
  C   C217      1.0  0.01365  0.03870  0.68073  1.0000
  H   H341      1.0  0.06295  0.85838  0.44588  1.0000
  H   H342      1.0  0.60663  0.56646  0.56086  1.0000
  H   H343      1.0  0.05500  0.81436  0.48253  1.0000
  Fe  Fe41      1.0  0.64168  0.65406  0.77697  1.0000
  H   H344      1.0  0.78158  0.84189  0.89225  1.0000
  S   S82       1.0  0.70202  0.67288  0.87818  1.0000
  Fe  Fe42      1.0  0.73246  0.68224  0.81847  1.0000
  Fe  Fe43      1.0  0.67044  0.60754  0.85265  1.0000
  H   H345      1.0  0.86198  0.71246  0.89705  1.0000
  H   H346      1.0  0.57428  0.72679  0.76620  1.0000
  S   S83       1.0  0.70598  0.61361  0.79439  1.0000
  Fe  Fe44      1.0  0.63784  0.70792  0.85380  1.0000
  S   S84       1.0  0.60408  0.65067  0.71861  1.0000
  H   H347      1.0  0.81981  0.62126  0.85960  1.0000
  C   C218      1.0  0.00853  0.04069  0.72147  1.0000
  S   S85       1.0  0.96399  0.00789  0.74326  1.0000
  H   H348      1.0  0.78176  0.61371  0.92221  1.0000
  H   H349      1.0  0.86936  0.58628  0.87409  1.0000
  S   S86       1.0  0.80795  0.70336  0.80953  1.0000
  N   N22       1.0  0.85158  0.64133  0.91468  1.0000
  H   H350      1.0  0.75679  0.76831  0.85910  1.0000
  C   C219      1.0  0.85492  0.62236  0.87435  1.0000
  S   S87       1.0  0.60334  0.64173  0.83308  1.0000
  H   H351      1.0  0.06394  0.90239  0.76052  1.0000
  C   C220      1.0  0.80873  0.98880  0.92969  1.0000
  H   H352      1.0  0.77178  0.99971  0.92395  1.0000
  C   C221      1.0  0.57370  0.59836  0.70917  1.0000
  H   H353      1.0  0.82686  0.98638  0.90090  1.0000
  H   H354      1.0  0.87811  0.64425  0.85583  1.0000
  H   H355      1.0  0.92516  0.65838  0.91772  1.0000
  H   H356      1.0  0.80187  0.69408  0.89804  1.0000
  S   S88       1.0  0.67128  0.72339  0.79608  1.0000
  Fe  Fe45      1.0  0.93294  0.92999  0.87055  1.0000
  S   S89       1.0  0.99297  0.94368  0.91205  1.0000
  S   S90       1.0  0.86811  0.89333  0.89228  1.0000
  Fe  Fe46      1.0  0.97586  0.98950  0.80659  1.0000
  S   S91       1.0  0.03899  0.00930  0.84318  1.0000
  S   S92       1.0  0.60196  0.76652  0.88625  1.0000
  Fe  Fe47      1.0  0.03929  0.93378  0.85975  1.0000
  C   C222      1.0  0.82333  0.75771  0.83046  1.0000
  Fe  Fe48      1.0  0.98710  0.01776  0.89204  1.0000
  H   H357      1.0  0.91763  0.83110  0.83886  1.0000
  S   S93       1.0  0.97963  0.91304  0.81973  1.0000
  S   S94       1.0  0.92369  0.00504  0.85394  1.0000
  H   H358      1.0  0.89321  0.75689  0.80635  1.0000
  C   C223      1.0  0.86869  0.77561  0.82484  1.0000
  C   C224      1.0  0.79186  0.78188  0.85459  1.0000
  C   C225      1.0  0.80596  0.82352  0.87339  1.0000
  C   C226      1.0  0.85123  0.84160  0.86761  1.0000
  C   C227      1.0  0.88253  0.81765  0.84318  1.0000
  C   C228      1.0  0.83639  0.69064  0.91332  1.0000
  H   H359      1.0  0.60226  0.56229  0.75899  1.0000
  H   H360      1.0  0.04784  0.94262  0.72249  1.0000
  S   S95       1.0  0.64626  0.94114  0.12684  1.0000
  H   H361      1.0  0.81214  0.62819  0.96704  1.0000
  C   C229      1.0  0.64972  0.00195  0.13317  1.0000
  H   H362      1.0  0.90171  0.02920  0.98364  1.0000
  C   C230      1.0  0.61384  0.03065  0.11882  1.0000
  H   H363      1.0  0.84495  0.79663  0.17386  1.0000
  H   H364      1.0  0.87481  0.72353  0.11091  1.0000
  N   N23       1.0  0.88031  0.73009  0.17355  1.0000
  C   C231      1.0  0.80800  0.02370  0.99440  1.0000
  H   H365      1.0  0.82560  0.04817  0.01545  1.0000
  H   H366      1.0  0.88270  0.96956  0.97602  1.0000
  S   S96       1.0  0.99987  0.63734  0.16629  1.0000
  H   H367      1.0  0.81017  0.74861  0.15522  1.0000
  C   C232      1.0  0.88195  0.00529  0.96349  1.0000
  C   C233      1.0  0.90017  0.73535  0.13395  1.0000
  H   H368      1.0  0.89980  0.65776  0.17600  1.0000
  C   C234      1.0  0.06026  0.62583  0.17130  1.0000
  H   H369      1.0  0.83264  0.70614  0.94313  1.0000
  H   H370      1.0  0.59909  0.84914  0.12765  1.0000
  C   C235      1.0  0.86843  0.68052  0.17985  1.0000
  C   C236      1.0  0.83730  0.75879  0.17738  1.0000
  H   H371      1.0  0.58513  0.01559  0.10193  1.0000
  C   C237      1.0  0.68667  0.02160  0.15505  1.0000
  H   H372      1.0  0.90945  0.77237  0.12806  1.0000
  H   H373      1.0  0.89707  0.65256  0.96448  1.0000
  H   H374      1.0  0.57621  0.79053  0.12688  1.0000
  H   H375      1.0  0.77108  0.03588  0.99040  1.0000
  H   H376      1.0  0.80659  0.98876  0.00834  1.0000
  H   H377      1.0  0.93288  0.71415  0.13048  1.0000
  H   H378      1.0  0.84080  0.66795  0.15903  1.0000
  N   N24       1.0  0.83321  0.02158  0.95670  1.0000
  H   H379      1.0  0.80781  0.95277  0.94167  1.0000
  H   H380      1.0  0.56809  0.86267  0.06113  1.0000
  C   C238      1.0  0.56738  0.82756  0.13372  1.0000
  H   H381      1.0  0.71475  0.99967  0.16586  1.0000
  C   C239      1.0  0.81692  0.61390  0.93692  1.0000
  H   H382      1.0  0.82827  0.57692  0.93975  1.0000
  C   C240      1.0  0.89816  0.63835  0.93404  1.0000
  H   H383      1.0  0.91047  0.60143  0.93565  1.0000
  H   H384      1.0  0.90209  0.00360  0.93577  1.0000
