data_image0
_chemical_formula_structural       FeS2FeSCFeSFeNS2HC2HSCS2FeSHFeSH2SH2SH2CH2C6H4C6H4NSH2FeNHCSHNH4CHCSHC2H7CH5CHNCH7CH2CHCH2CNCHCSFeH2CHC10H7C2SCHCHNC3SH9FeSHC2NH2CH4CH5CSH2SCHSH6FeSFeHC2HFeHSH2SCHFeCH2CH4SFeCHSC8HCH2C2NHCHCHCH3C2H4FeHCH6S2CS2FeSHC2H2C3H3C4H4SHCH3CFeHFeCH3S2NSH4CHCH3SHCHC2FeSHFeS2HFeSHSHSC2H2FeC4H2C4H2CHCHCSH2C2HS2C2HCHC3H2C2HNCNCH3SH4SH8SC2HC2H3CH4FeCNFeS2FeHFeS3HC3HFeHC6HSNH2C2H5CH2C2HSCHSH3CH2C2SH6CNCHCS2HCH2SCH3CSCHCHFeCHFeCFeHCH3SH5CHCH3FeS2FeSCFeSFeHS2HCH4S2HSCFeSH2C3HCSHCHC6H4C6H5SCHFeH3NHCH2CH4FeCHCH10C4HCH2CNH2CH3SFeC2SH5FeCHN2C3H2C6H6CH4SCH3CNHSHC2H2CH2CH2CHSHCHSH2CSH3CHCH3FeHSCHSH2SHNHSHFe2H3CHCH2C2H2SHSCH4NH2FeHCH3C7HFeH8NH4SC2HNC2H2CHCSC4HCHCH2SCSHSH4CHSH2CNH2CH2C2H5C3H2NS2FeSH3C4H3FeCHC4NH3CH2CHFeCFeC3HCHCH2S2H3S2H8CH7C3HNCH2NHSHFeSHFeS2HFeS3HSC2H2SC2HCH2C4H3CH4C2FeH8CNC4H3FeHSC4HC3H2NFeHCHCSHSHFeHCHC2H3SFe2H3SFeS2Fe3S4C2NC2HC3HCH2CH2SHCHCH3SHCH4CH2FeCH4CHCH3SH3CHS2HFeC3HC2H2C3NCHFeSH2CSC3HCHCSH3FeSFeSHFe2SCH2CH2SH3CHSH2CH5C3HNCSC2SHCH3C2HC2H3CH2SHFeHC3NFeCSCSH3CHNSHCSHFeSFeSH6SFeC6H4C6H5CH5CHCHC3HCNH4SH5SCNCH2CHCH4NCHFeH4SH3FeSH2SH2C2H8CHCNHCH3CH2CSCNH6CH2CHCHSHSH6SH3C2HC2HFeS2FeS2FeSHS3C3HCHC2SCH2CHCH2FeHNH2CH2C7H3CHC4HSH3C3SNHNH2CSH5CFeH3SHCHCFeHCHCHC2FeH3NH4C2FeH2FeS2HFeS3C2H3C3H2C2HCH2CFeSCHCFeS3C5NH5CFeCH3C2HCH3CHCSHSHCH3CH3FeHCNCH3CSHC2H3CHSHCHFeSFe3S3C2H2CH2SH3CH2S2H3C5HCHC2NHC7H2FeSH2CH2C2FeCFeH4CHCH2SH2SNCSH3CSHCSFeSFeSFe2SCH2C2SHCHFeHCSH2CSHNH2CH2C2H3CNH6CHCH5CH4CH2CHCH3FeHSH2CH2SH2SHS2HFeSFeS2H3C3HC6H4C6H4NHC3SH2CHC2HC2H2CHN2H3CHC2HCH4CHCSHNH2CH3NFeH9CHCSHSHCH4FeSFeHSNH2SHSHCH2CFeCH3CHCH2CHSCHNHCFeHC2H2SHNH4CHCNFeS2FeS2FeSHCS2HCSFeH3C4H3CH3C2HCSC2HC2HC3H4C7H3C2H3C3H4SCHCNH4FeC2HSH3CH11CNH2CSH2CHSH2CH2SH2SH2FeS2FeS2CFeS3C2H3C3H2CH2C2SC2H4C2HCH5CFeH2CHSC3SC2FeHC3HNFeHSH5CHCFeHSHFeS2Fe3S3C3H2CH4SH2CH2SH2SFeC2S2HCH2CH5C5HSFeHCHFeSCNCH2CHC2HC2HCH2CH
_chemical_formula_sum              "Fe128 S256 C640 N64 H1024"
_cell_length_a       46.1225
_cell_length_b       45.4666
_cell_length_c       41.9123
_cell_angle_alpha    82.6721
_cell_angle_beta     88.0836
_cell_angle_gamma    124.346

_space_group_name_H-M_alt    "P 1"
_space_group_IT_number       1

loop_
  _space_group_symop_operation_xyz
  'x, y, z'

loop_
  _atom_site_type_symbol
  _atom_site_label
  _atom_site_symmetry_multiplicity
  _atom_site_fract_x
  _atom_site_fract_y
  _atom_site_fract_z
  _atom_site_occupancy
  Fe  Fe1       1.0  0.12472  0.25542  0.10710  1.0000
  S   S1        1.0  0.09358  0.21409  0.07529  1.0000
  S   S2        1.0  0.15961  0.31548  0.08605  1.0000
  Fe  Fe2       1.0  0.09601  0.19742  0.16630  1.0000
  S   S3        1.0  0.06201  0.15190  0.13938  1.0000
  C   C1        1.0  0.46587  0.40614  0.99092  1.0000
  Fe  Fe3       1.0  0.11093  0.18151  0.10318  1.0000
  S   S4        1.0  0.12808  0.14838  0.08301  1.0000
  Fe  Fe4       1.0  0.04761  0.18790  0.11523  1.0000
  N   N1        1.0  0.39413  0.07565  0.22645  1.0000
  S   S5        1.0  0.14546  0.22499  0.13150  1.0000
  S   S6        1.0  0.07826  0.23154  0.14489  1.0000
  H   H1        1.0  0.32604  0.19687  0.18140  1.0000
  C   C2        1.0  0.28778  0.14198  0.08890  1.0000
  C   C3        1.0  0.12304  0.04743  0.19600  1.0000
  H   H2        1.0  0.38271  0.03216  0.20194  1.0000
  S   S7        1.0  0.21488  0.01996  0.19853  1.0000
  C   C4        1.0  0.30292  0.12291  0.04377  1.0000
  S   S8        1.0  0.23726  0.03632  0.11988  1.0000
  S   S9        1.0  0.16289  0.43334  0.15610  1.0000
  Fe  Fe5       1.0  0.27033  0.03844  0.20444  1.0000
  S   S10       1.0  0.29382  0.08837  0.16628  1.0000
  H   H3        1.0  0.01561  0.27734  0.13286  1.0000
  Fe  Fe6       1.0  0.23791  0.06734  0.15774  1.0000
  S   S11       1.0  0.22368  0.10819  0.15712  1.0000
  H   H4        1.0  0.28736  0.09422  0.05643  1.0000
  H   H5        1.0  0.15202  0.18071  0.01733  1.0000
  S   S12       1.0  0.50324  0.17532  0.06517  1.0000
  H   H6        1.0  0.05357  0.27861  0.03772  1.0000
  H   H7        1.0  0.04943  0.24742  0.07156  1.0000
  S   S13       1.0  0.39373  0.17037  0.18825  1.0000
  H   H8        1.0  0.12481  0.01243  0.14963  1.0000
  H   H9        1.0  0.30357  0.12269  0.01722  1.0000
  C   C5        1.0  0.30878  0.17959  0.03600  1.0000
  H   H10       1.0  0.10087  0.11636  0.02804  1.0000
  H   H11       1.0  0.05862  0.14817  0.00911  1.0000
  C   C6        1.0  0.15377  0.13630  0.10424  1.0000
  C   C7        1.0  0.15878  0.11095  0.09397  1.0000
  C   C8        1.0  0.17967  0.10149  0.10999  1.0000
  C   C9        1.0  0.19634  0.11791  0.13606  1.0000
  C   C10       1.0  0.19129  0.14316  0.14627  1.0000
  C   C11       1.0  0.16999  0.15211  0.13067  1.0000
  H   H12       1.0  0.14630  0.09847  0.07359  1.0000
  H   H13       1.0  0.18297  0.08174  0.10201  1.0000
  H   H14       1.0  0.20376  0.15587  0.16656  1.0000
  H   H15       1.0  0.16647  0.17161  0.13893  1.0000
  C   C12       1.0  0.16331  0.34822  0.10788  1.0000
  C   C13       1.0  0.14124  0.33807  0.13675  1.0000
  C   C14       1.0  0.14199  0.36453  0.15159  1.0000
  C   C15       1.0  0.16582  0.40151  0.13856  1.0000
  C   C16       1.0  0.18904  0.41183  0.11049  1.0000
  C   C17       1.0  0.18744  0.38524  0.09501  1.0000
  H   H16       1.0  0.12296  0.30981  0.14729  1.0000
  H   H17       1.0  0.12396  0.35632  0.17329  1.0000
  H   H18       1.0  0.20731  0.44020  0.10007  1.0000
  H   H19       1.0  0.20468  0.39340  0.07274  1.0000
  N   N2        1.0  0.03821  0.28468  0.08416  1.0000
  S   S14       1.0  0.03721  0.01919  0.22587  1.0000
  H   H20       1.0  0.44408  0.12742  0.21242  1.0000
  H   H21       1.0  0.41255  0.27920  0.12308  1.0000
  Fe  Fe7       1.0  0.29209  0.05436  0.13131  1.0000
  N   N3        1.0  0.28753  0.14190  0.05367  1.0000
  H   H22       1.0  0.48178  0.21994  0.03887  1.0000
  C   C18       1.0  0.09058  0.12687  0.19746  1.0000
  S   S15       1.0  0.33412  0.07855  0.08749  1.0000
  H   H23       1.0  0.08402  0.08264  0.17721  1.0000
  N   N4        1.0  0.28933  0.15991  0.22344  1.0000
  H   H24       1.0  0.27660  0.15635  0.09721  1.0000
  H   H25       1.0  0.44838  0.37871  0.05467  1.0000
  H   H26       1.0  0.23820  0.13673  0.05318  1.0000
  H   H27       1.0  0.46331  0.23476  0.10391  1.0000
  C   C19       1.0  0.41302  0.34823  0.98640  1.0000
  H   H28       1.0  0.03859  0.32171  0.04639  1.0000
  C   C20       1.0  0.01688  0.26144  0.11540  1.0000
  S   S16       1.0  0.27262  0.00542  0.16985  1.0000
  H   H29       1.0  0.09208  0.32968  0.06679  1.0000
  C   C21       1.0  0.25074  0.12323  0.04592  1.0000
  C   C22       1.0  0.48221  0.24449  0.03965  1.0000
  H   H30       1.0  0.02281  0.32110  0.08643  1.0000
  H   H31       1.0  0.23401  0.09461  0.05877  1.0000
  H   H32       1.0  0.15088  0.07165  0.19158  1.0000
  H   H33       1.0  0.49220  0.26056  0.01461  1.0000
  H   H34       1.0  0.38673  0.32429  0.99840  1.0000
  H   H35       1.0  0.33652  0.19467  0.04183  1.0000
  H   H36       1.0  0.27171  0.11402  0.10299  1.0000
  C   C23       1.0  0.07551  0.09027  0.19699  1.0000
  H   H37       1.0  0.29752  0.19455  0.04233  1.0000
  H   H38       1.0  0.30968  0.18037  0.00933  1.0000
  H   H39       1.0  0.47979  0.42778  0.00576  1.0000
  H   H40       1.0  0.24974  0.12293  0.01941  1.0000
  H   H41       1.0  0.33053  0.13589  0.04965  1.0000
  C   C24       1.0  0.02306  0.30384  0.06996  1.0000
  H   H42       1.0  0.40538  0.40175  0.99211  1.0000
  N   N5        1.0  0.10753  0.15729  0.99031  1.0000
  C   C25       1.0  0.05046  0.06397  0.22259  1.0000
  H   H43       1.0  0.11054  0.14722  0.17793  1.0000
  H   H44       1.0  0.31508  0.15530  0.09567  1.0000
  H   H45       1.0  0.09626  0.19463  0.00271  1.0000
  H   H46       1.0  0.42326  0.07523  0.18562  1.0000
  H   H47       1.0  0.34042  0.17012  0.22696  1.0000
  H   H48       1.0  0.16630  0.03530  0.16541  1.0000
  H   H49       1.0  0.07649  0.32847  0.10718  1.0000
  C   C26       1.0  0.08756  0.16618  0.01048  1.0000
  H   H50       1.0  0.42110  0.04987  0.22309  1.0000
  H   H51       1.0  0.08734  0.29756  0.09967  1.0000
  C   C27       1.0  0.07973  0.13719  0.22283  1.0000
  H   H52       1.0  0.10952  0.04920  0.17509  1.0000
  C   C28       1.0  0.43485  0.35887  0.03812  1.0000
  H   H53       1.0  0.38215  0.15579  0.12404  1.0000
  H   H54       1.0  0.36366  0.09769  0.21974  1.0000
  C   C29       1.0  0.40884  0.38888  0.01476  1.0000
  N   N6        1.0  0.12110  0.01356  0.20066  1.0000
  C   C30       1.0  0.13816  0.01190  0.17111  1.0000
  H   H55       1.0  0.40875  0.33569  0.05135  1.0000
  C   C31       1.0  0.29802  0.17305  0.18802  1.0000
  S   S17       1.0  0.09377  0.18218  0.21955  1.0000
  Fe  Fe8       1.0  0.40469  0.24963  0.00915  1.0000
  H   H56       1.0  0.45070  0.34799  0.03338  1.0000
  H   H57       1.0  0.28057  0.18090  0.17865  1.0000
  C   C32       1.0  0.49054  0.24290  0.09635  1.0000
  H   H58       1.0  0.38195  0.36642  0.02706  1.0000
  C   C33       1.0  0.40569  0.05730  0.20847  1.0000
  C   C34       1.0  0.40386  0.23167  0.15241  1.0000
  C   C35       1.0  0.40591  0.25224  0.12322  1.0000
  C   C36       1.0  0.03790  0.26202  0.06162  1.0000
  C   C37       1.0  0.45625  0.14712  0.07368  1.0000
  C   C38       1.0  0.43686  0.14390  0.04778  1.0000
  C   C39       1.0  0.39976  0.12297  0.05274  1.0000
  C   C40       1.0  0.38115  0.10476  0.08375  1.0000
  C   C41       1.0  0.40031  0.10751  0.10989  1.0000
  C   C42       1.0  0.43788  0.12880  0.10494  1.0000
  H   H59       1.0  0.45064  0.15771  0.02360  1.0000
  H   H60       1.0  0.38538  0.12081  0.03228  1.0000
  H   H61       1.0  0.38604  0.09282  0.13363  1.0000
  H   H62       1.0  0.45252  0.13097  0.12519  1.0000
  H   H63       1.0  0.09138  0.16285  0.03643  1.0000
  H   H64       1.0  0.02807  0.24734  0.12716  1.0000
  H   H65       1.0  0.38676  0.19240  0.07251  1.0000
  C   C43       1.0  0.39136  0.20348  0.09462  1.0000
  C   C44       1.0  0.39551  0.19692  0.15273  1.0000
  S   S18       1.0  0.40427  0.26562  0.05797  1.0000
  C   C45       1.0  0.07505  0.31132  0.08968  1.0000
  H   H66       1.0  0.39162  0.10603  0.18437  1.0000
  C   C46       1.0  0.39999  0.23835  0.09423  1.0000
  H   H67       1.0  0.02153  0.21401  0.19651  1.0000
  N   N7        1.0  0.43066  0.37556  0.00757  1.0000
  C   C47       1.0  0.09595  0.11977  0.00247  1.0000
  C   C48       1.0  0.38886  0.18279  0.12386  1.0000
  C   C49       1.0  0.37433  0.08556  0.20616  1.0000
  S   S19       1.0  0.49982  0.10866  0.21332  1.0000
  H   H68       1.0  0.35135  0.06161  0.19814  1.0000
  H   H69       1.0  0.03714  0.17019  0.19220  1.0000
  H   H70       1.0  0.47772  0.29067  0.06981  1.0000
  H   H71       1.0  0.40901  0.24277  0.17456  1.0000
  H   H72       1.0  0.42123  0.40945  0.03084  1.0000
  H   H73       1.0  0.45437  0.23547  0.04554  1.0000
  H   H74       1.0  0.06717  0.09998  0.00161  1.0000
  H   H75       1.0  0.48908  0.21753  0.09736  1.0000
  H   H76       1.0  0.29460  0.15179  0.17486  1.0000
  Fe  Fe9       1.0  0.20927  0.49069  0.15796  1.0000
  S   S20       1.0  0.39537  0.19887  0.99567  1.0000
  H   H77       1.0  0.48324  0.39715  0.98564  1.0000
  C   C50       1.0  0.50887  0.07603  0.22014  1.0000
  C   C51       1.0  0.13950  0.01283  0.22864  1.0000
  N   N8        1.0  0.50473  0.26539  0.06356  1.0000
  H   H78       1.0  0.24636  0.10546  0.22066  1.0000
  H   H79       1.0  0.30646  0.12448  0.22383  1.0000
  C   C52       1.0  0.14585  0.18251  0.99202  1.0000
  H   H80       1.0  0.11052  0.11206  0.98798  1.0000
  H   H81       1.0  0.16762  0.03664  0.22499  1.0000
  H   H82       1.0  0.23379  0.13620  0.22211  1.0000
  H   H83       1.0  0.15553  0.21108  0.98309  1.0000
  C   C53       1.0  0.50493  0.29804  0.06326  1.0000
  H   H84       1.0  0.50731  0.25749  0.11492  1.0000
  H   H85       1.0  0.11036  0.04951  0.21786  1.0000
  H   H86       1.0  0.49616  0.10830  0.99346  1.0000
  H   H87       1.0  0.49869  0.11717  0.03419  1.0000
  H   H88       1.0  0.35828  0.05558  0.39065  1.0000
  C   C54       1.0  0.26649  0.00427  0.34890  1.0000
  S   S21       1.0  0.15634  0.03172  0.31417  1.0000
  H   H89       1.0  0.14838  0.49081  0.40985  1.0000
  H   H90       1.0  0.09038  0.46542  0.38986  1.0000
  S   S22       1.0  0.08820  0.05923  0.29459  1.0000
  C   C55       1.0  0.16583  0.19953  0.47251  1.0000
  H   H91       1.0  0.13647  0.01419  0.38238  1.0000
  S   S23       1.0  0.31270  0.16398  0.32812  1.0000
  H   H92       1.0  0.24513  0.15299  0.33854  1.0000
  H   H93       1.0  0.12740  0.46156  0.32975  1.0000
  H   H94       1.0  0.07234  0.42788  0.36872  1.0000
  H   H95       1.0  0.16941  0.19869  0.44634  1.0000
  H   H96       1.0  0.34639  0.02651  0.25136  1.0000
  H   H97       1.0  0.33800  0.49225  0.23445  1.0000
  Fe  Fe10      1.0  0.03008  0.46683  0.34850  1.0000
  S   S24       1.0  0.51026  0.49137  0.32685  1.0000
  Fe  Fe11      1.0  0.22981  0.46473  0.44357  1.0000
  H   H98       1.0  0.14780  0.41943  0.37456  1.0000
  C   C56       1.0  0.34638  0.06089  0.41080  1.0000
  C   C57       1.0  0.22771  0.47667  0.35738  1.0000
  H   H99       1.0  0.30812  0.49366  0.28400  1.0000
  Fe  Fe12      1.0  0.40262  0.18478  0.23848  1.0000
  H   H100      1.0  0.03182  0.05679  0.42358  1.0000
  S   S25       1.0  0.25592  0.44386  0.47413  1.0000
  H   H101      1.0  0.17426  0.22744  0.47460  1.0000
  H   H102      1.0  0.30964  0.05266  0.31762  1.0000
  S   S26       1.0  0.29241  0.04737  0.25265  1.0000
  C   C58       1.0  0.08893  0.44040  0.38816  1.0000
  H   H103      1.0  0.17296  0.47226  0.40301  1.0000
  Fe  Fe13      1.0  0.04684  0.03865  0.33737  1.0000
  C   C59       1.0  0.29580  0.18947  0.24013  1.0000
  H   H104      1.0  0.18382  0.10225  0.33300  1.0000
  H   H105      1.0  0.10819  0.39484  0.40296  1.0000
  C   C60       1.0  0.22262  0.48368  0.29939  1.0000
  H   H106      1.0  0.50303  0.05709  0.44294  1.0000
  H   H107      1.0  0.17673  0.14874  0.46320  1.0000
  H   H108      1.0  0.20457  0.43303  0.33008  1.0000
  H   H109      1.0  0.22342  0.04194  0.30595  1.0000
  S   S27       1.0  0.03824  0.07924  0.35457  1.0000
  Fe  Fe14      1.0  0.10296  0.02403  0.31996  1.0000
  C   C61       1.0  0.21736  0.46179  0.32901  1.0000
  H   H110      1.0  0.23428  0.24224  0.48108  1.0000
  S   S28       1.0  0.21854  0.44770  0.39430  1.0000
  C   C62       1.0  0.14243  0.47346  0.35015  1.0000
  C   C63       1.0  0.19931  0.06858  0.31906  1.0000
  C   C64       1.0  0.22802  0.06616  0.31309  1.0000
  C   C65       1.0  0.26281  0.09499  0.31590  1.0000
  C   C66       1.0  0.26926  0.12656  0.32491  1.0000
  C   C67       1.0  0.24046  0.12875  0.33140  1.0000
  C   C68       1.0  0.20565  0.10001  0.32831  1.0000
  C   C69       1.0  0.26901  0.01764  0.28998  1.0000
  H   H111      1.0  0.28456  0.09269  0.31103  1.0000
  C   C70       1.0  0.28412  0.02728  0.31875  1.0000
  H   H112      1.0  0.36263  0.06474  0.27104  1.0000
  H   H113      1.0  0.22910  0.21293  0.45337  1.0000
  C   C71       1.0  0.05457  0.11093  0.24843  1.0000
  C   C72       1.0  0.03998  0.07431  0.24830  1.0000
  N   N9        1.0  0.12460  0.44838  0.38144  1.0000
  H   H114      1.0  0.02098  0.05409  0.26841  1.0000
  C   C73       1.0  0.12135  0.41438  0.37971  1.0000
  H   H115      1.0  0.13335  0.44690  0.43153  1.0000
  C   C74       1.0  0.50142  0.04677  0.46890  1.0000
  H   H116      1.0  0.21382  0.47181  0.27786  1.0000
  C   C75       1.0  0.42553  0.10876  0.23455  1.0000
  H   H117      1.0  0.04621  0.11879  0.26816  1.0000
  H   H118      1.0  0.07439  0.42120  0.41138  1.0000
  H   H119      1.0  0.31745  0.03939  0.41493  1.0000
  C   C76       1.0  0.14569  0.46528  0.40765  1.0000
  C   C77       1.0  0.49363  0.05027  0.24860  1.0000
  H   H120      1.0  0.03437  0.14090  0.35061  1.0000
  H   H121      1.0  0.31018  0.07963  0.37527  1.0000
  H   H122      1.0  0.50131  0.00463  0.43025  1.0000
  H   H123      1.0  0.30770  0.14019  0.26106  1.0000
  Fe  Fe15      1.0  0.04553  0.00959  0.27708  1.0000
  H   H124      1.0  0.03533  0.18904  0.24412  1.0000
  C   C78       1.0  0.49501  0.10866  0.36343  1.0000
  H   H125      1.0  0.24406  0.11961  0.25801  1.0000
  H   H126      1.0  0.30812  0.08225  0.43500  1.0000
  H   H127      1.0  0.43844  0.48972  0.46390  1.0000
  H   H128      1.0  0.34110  0.13005  0.42452  1.0000
  H   H129      1.0  0.34350  0.12729  0.36692  1.0000
  H   H130      1.0  0.35184  0.09697  0.35208  1.0000
  S   S29       1.0  0.24377  0.00944  0.45127  1.0000
  S   S30       1.0  0.49484  0.39977  0.37348  1.0000
  C   C79       1.0  0.49225  0.07767  0.35668  1.0000
  S   S31       1.0  0.45234  0.19995  0.25967  1.0000
  S   S32       1.0  0.41617  0.10463  0.31794  1.0000
  Fe  Fe16      1.0  0.44296  0.23486  0.28613  1.0000
  S   S33       1.0  0.48960  0.29339  0.28446  1.0000
  H   H131      1.0  0.40422  0.12202  0.42114  1.0000
  C   C80       1.0  0.33711  0.10331  0.43010  1.0000
  C   C81       1.0  0.49199  0.37035  0.34769  1.0000
  H   H132      1.0  0.03988  0.09713  0.46188  1.0000
  H   H133      1.0  0.28937  0.18043  0.26693  1.0000
  C   C82       1.0  0.48881  0.32224  0.30873  1.0000
  C   C83       1.0  0.46598  0.30870  0.33776  1.0000
  C   C84       1.0  0.46785  0.33268  0.35730  1.0000
  H   H134      1.0  0.44729  0.27977  0.34542  1.0000
  H   H135      1.0  0.45042  0.32197  0.37990  1.0000
  H   H136      1.0  0.16944  0.48029  0.34443  1.0000
  C   C85       1.0  0.46821  0.05720  0.33603  1.0000
  C   C86       1.0  0.44604  0.06669  0.32347  1.0000
  C   C87       1.0  0.44839  0.09737  0.33047  1.0000
  C   C88       1.0  0.47354  0.11878  0.35003  1.0000
  H   H137      1.0  0.10550  0.40088  0.36021  1.0000
  H   H138      1.0  0.46564  0.03319  0.33077  1.0000
  H   H139      1.0  0.42646  0.04962  0.30875  1.0000
  H   H140      1.0  0.47530  0.14212  0.35610  1.0000
  S   S34       1.0  0.36774  0.13760  0.27869  1.0000
  H   H141      1.0  0.40593  0.12211  0.37834  1.0000
  C   C89       1.0  0.37100  0.05119  0.25661  1.0000
  H   H142      1.0  0.41781  0.12385  0.24714  1.0000
  H   H143      1.0  0.39910  0.15270  0.39483  1.0000
  H   H144      1.0  0.35742  0.05773  0.43319  1.0000
  C   C90       1.0  0.39247  0.12480  0.39914  1.0000
  Fe  Fe17      1.0  0.36400  0.17605  0.30350  1.0000
  H   H145      1.0  0.02001  0.10355  0.40901  1.0000
  Fe  Fe18      1.0  0.41714  0.15518  0.30175  1.0000
  C   C91       1.0  0.33926  0.10046  0.37305  1.0000
  H   H146      1.0  0.44050  0.10226  0.25083  1.0000
  H   H147      1.0  0.47445  0.04897  0.26540  1.0000
  H   H148      1.0  0.38478  0.04265  0.27239  1.0000
  S   S35       1.0  0.06524  0.00699  0.36523  1.0000
  S   S36       1.0  0.41111  0.19103  0.32998  1.0000
  N   N10       1.0  0.35377  0.09735  0.40325  1.0000
  S   S37       1.0  0.39553  0.22256  0.26160  1.0000
  H   H149      1.0  0.34838  0.10253  0.45301  1.0000
  H   H150      1.0  0.49319  0.00793  0.27838  1.0000
  H   H151      1.0  0.27847  0.01185  0.37080  1.0000
  H   H152      1.0  0.47285  0.02850  0.47878  1.0000
  C   C92       1.0  0.31195  0.14819  0.23430  1.0000
  H   H153      1.0  0.14750  0.00591  0.42144  1.0000
  C   C93       1.0  0.50447  0.02725  0.25605  1.0000
  H   H154      1.0  0.32408  0.21298  0.23521  1.0000
  H   H155      1.0  0.47079  0.47955  0.46791  1.0000
  H   H156      1.0  0.12714  0.01395  0.25127  1.0000
  S   S38       1.0  0.08381  0.49493  0.31986  1.0000
  H   H157      1.0  0.27925  0.19910  0.23235  1.0000
  C   C94       1.0  0.22398  0.21376  0.47929  1.0000
  H   H158      1.0  0.13695  0.18133  0.48127  1.0000
  C   C95       1.0  0.25173  0.12899  0.23138  1.0000
  C   C96       1.0  0.50104  0.99628  0.45650  1.0000
  Fe  Fe19      1.0  0.05607  0.11748  0.62390  1.0000
  S   S39       1.0  0.04388  0.06873  0.60398  1.0000
  H   H159      1.0  0.19365  0.08237  0.56311  1.0000
  Fe  Fe20      1.0  0.08761  0.16662  0.55714  1.0000
  S   S40       1.0  0.07553  0.12021  0.53239  1.0000
  S   S41       1.0  0.11787  0.22057  0.52227  1.0000
  H   H160      1.0  0.45572  0.09075  0.63244  1.0000
  Fe  Fe21      1.0  0.09721  0.10567  0.57389  1.0000
  S   S42       1.0  0.14208  0.09854  0.56788  1.0000
  H   H161      1.0  0.39791  0.04701  0.66744  1.0000
  S   S43       1.0  0.11141  0.15338  0.59751  1.0000
  H   H162      1.0  0.39012  0.09828  0.51298  1.0000
  S   S44       1.0  0.18335  0.37910  0.55363  1.0000
  C   C97       1.0  0.05392  0.10040  0.70835  1.0000
  C   C98       1.0  0.08517  0.10255  0.70272  1.0000
  H   H163      1.0  0.19962  0.04220  0.53263  1.0000
  H   H164      1.0  0.09794  0.10959  0.67816  1.0000
  Fe  Fe22      1.0  0.21424  0.42962  0.51438  1.0000
  C   C99       1.0  0.14449  0.06864  0.54629  1.0000
  C   C100      1.0  0.15154  0.02308  0.51132  1.0000
  C   C101      1.0  0.12251  0.02549  0.50927  1.0000
  C   C102      1.0  0.11890  0.04805  0.52672  1.0000
  H   H165      1.0  0.15245  0.41907  0.55420  1.0000
  H   H166      1.0  0.09635  0.04945  0.52505  1.0000
  C   C103      1.0  0.13587  0.26428  0.53185  1.0000
  C   C104      1.0  0.13262  0.26963  0.56357  1.0000
  C   C105      1.0  0.14733  0.30489  0.56991  1.0000
  C   C106      1.0  0.16549  0.33515  0.54467  1.0000
  H   H167      1.0  0.11874  0.24663  0.58319  1.0000
  H   H168      1.0  0.14465  0.30874  0.59449  1.0000
  C   C107      1.0  0.17367  0.06650  0.54810  1.0000
  H   H169      1.0  0.18777  0.14250  0.50310  1.0000
  C   C108      1.0  0.41594  0.00563  0.61603  1.0000
  H   H170      1.0  0.18265  0.35274  0.49332  1.0000
  C   C109      1.0  0.44420  0.02908  0.66289  1.0000
  S   S45       1.0  0.03304  0.13493  0.58537  1.0000
  H   H171      1.0  0.12886  0.38823  0.61054  1.0000
  H   H172      1.0  0.12179  0.43151  0.55253  1.0000
  C   C110      1.0  0.16882  0.32978  0.51300  1.0000
  C   C111      1.0  0.17714  0.04373  0.53084  1.0000
  H   H173      1.0  0.23981  0.20649  0.49335  1.0000
  S   S46       1.0  0.18571  0.44667  0.48296  1.0000
  S   S47       1.0  0.32303  0.03987  0.49888  1.0000
  C   C112      1.0  0.12438  0.40926  0.61455  1.0000
  C   C113      1.0  0.18679  0.45655  0.60092  1.0000
  H   H174      1.0  0.15668  0.29077  0.48204  1.0000
  C   C114      1.0  0.14432  0.47169  0.59927  1.0000
  H   H175      1.0  0.19318  0.43724  0.59555  1.0000
  C   C115      1.0  0.39290  0.01427  0.52130  1.0000
  C   C116      1.0  0.36205  0.01132  0.51305  1.0000
  C   C117      1.0  0.14823  0.43994  0.55929  1.0000
  H   H176      1.0  0.12479  0.09841  0.72441  1.0000
  H   H177      1.0  0.40193  0.00808  0.59581  1.0000
  C   C118      1.0  0.10031  0.09616  0.72898  1.0000
  C   C119      1.0  0.15407  0.29455  0.50667  1.0000
  H   H178      1.0  0.14468  0.13183  0.49840  1.0000
  N   N11       1.0  0.15090  0.44436  0.59358  1.0000
  C   C120      1.0  0.39196  0.02677  0.65168  1.0000
  N   N12       1.0  0.42482  0.03269  0.63701  1.0000
  C   C121      1.0  0.18041  0.19080  0.52603  1.0000
  H   H179      1.0  0.44027  0.00936  0.60471  1.0000
  H   H180      1.0  0.13632  0.48468  0.50928  1.0000
  H   H181      1.0  0.09702  0.39920  0.60941  1.0000
  S   S48       1.0  0.24840  0.48356  0.53071  1.0000
  H   H182      1.0  0.15198  0.17234  0.53592  1.0000
  H   H183      1.0  0.16850  0.46570  0.54288  1.0000
  H   H184      1.0  0.08170  0.48067  0.52557  1.0000
  H   H185      1.0  0.48913  0.99733  0.51978  1.0000
  S   S49       1.0  0.03508  0.11016  0.67623  1.0000
  H   H186      1.0  0.18955  0.45910  0.62687  1.0000
  H   H187      1.0  0.20732  0.48354  0.58611  1.0000
  H   H188      1.0  0.37438  0.99936  0.66685  1.0000
  H   H189      1.0  0.19472  0.18251  0.54143  1.0000
  H   H190      1.0  0.14562  0.47547  0.62501  1.0000
  H   H191      1.0  0.12557  0.41144  0.64068  1.0000
  H   H192      1.0  0.46947  0.03398  0.65259  1.0000
  H   H193      1.0  0.37676  0.02925  0.63268  1.0000
  S   S50       1.0  0.46071  0.04896  0.53716  1.0000
  C   C122      1.0  0.36081  0.04158  0.50995  1.0000
  C   C123      1.0  0.44731  0.06942  0.61732  1.0000
  H   H194      1.0  0.11785  0.46395  0.59309  1.0000
  C   C124      1.0  0.42284  0.04737  0.52664  1.0000
  C   C125      1.0  0.42157  0.07759  0.52372  1.0000
  H   H195      1.0  0.47181  0.07430  0.60540  1.0000
  H   H196      1.0  0.44437  0.10326  0.52766  1.0000
  H   H197      1.0  0.43354  0.07341  0.59767  1.0000
  C   C126      1.0  0.39076  0.07468  0.51532  1.0000
  H   H198      1.0  0.45151  0.04921  0.67915  1.0000
  H   H199      1.0  0.42831  0.00165  0.67817  1.0000
  H   H200      1.0  0.18920  0.21853  0.52920  1.0000
  H   H201      1.0  0.10256  0.00962  0.49423  1.0000
  Fe  Fe23      1.0  0.02308  0.08756  0.56430  1.0000
  C   C127      1.0  0.17325  0.15143  0.48882  1.0000
  N   N13       1.0  0.18587  0.18887  0.49163  1.0000
  Fe  Fe24      1.0  0.11672  0.09482  0.91140  1.0000
  S   S51       1.0  0.09646  0.04684  0.88607  1.0000
  S   S52       1.0  0.16354  0.12886  0.93884  1.0000
  Fe  Fe25      1.0  0.05845  0.10502  0.89225  1.0000
  H   H202      1.0  0.09262  0.21226  0.83051  1.0000
  Fe  Fe26      1.0  0.08867  0.07870  0.84571  1.0000
  S   S53       1.0  0.10536  0.08173  0.79331  1.0000
  S   S54       1.0  0.06242  0.07382  0.93590  1.0000
  S   S55       1.0  0.11336  0.12776  0.86905  1.0000
  H   H203      1.0  0.34038  0.08064  0.88996  1.0000
  C   C128      1.0  0.08436  0.08753  0.76102  1.0000
  C   C129      1.0  0.05262  0.08446  0.76662  1.0000
  C   C130      1.0  0.03759  0.09110  0.74037  1.0000
  H   H204      1.0  0.43697  0.10320  0.95672  1.0000
  Fe  Fe27      1.0  0.04205  0.02847  0.90720  1.0000
  H   H205      1.0  0.16160  0.17630  0.97719  1.0000
  C   C131      1.0  0.20578  0.13636  0.93887  1.0000
  C   C132      1.0  0.21276  0.11261  0.92857  1.0000
  C   C133      1.0  0.27306  0.14881  0.94318  1.0000
  C   C134      1.0  0.26628  0.17292  0.95290  1.0000
  C   C135      1.0  0.23271  0.16643  0.95114  1.0000
  C   C136      1.0  0.49475  0.44676  0.89784  1.0000
  H   H206      1.0  0.04711  0.46022  0.91155  1.0000
  S   S56       1.0  0.03359  0.05829  0.86524  1.0000
  N   N14       1.0  0.09149  0.18460  0.79203  1.0000
  H   H207      1.0  0.38377  0.09066  0.89295  1.0000
  H   H208      1.0  0.19223  0.08920  0.91937  1.0000
  C   C137      1.0  0.45955  0.16025  0.95273  1.0000
  C   C138      1.0  0.04063  0.48230  0.83633  1.0000
  H   H209      1.0  0.22761  0.18496  0.95920  1.0000
  H   H210      1.0  0.07326  0.19221  0.74721  1.0000
  H   H211      1.0  0.40877  0.35959  0.96330  1.0000
  H   H212      1.0  0.42920  0.33828  0.97975  1.0000
  H   H213      1.0  0.38123  0.15210  0.94120  1.0000
  C   C139      1.0  0.05662  0.15130  0.80598  1.0000
  H   H214      1.0  0.07206  0.14182  0.95402  1.0000
  H   H215      1.0  0.36762  0.17468  0.89019  1.0000
  C   C140      1.0  0.01536  0.40161  0.92089  1.0000
  C   C141      1.0  0.10070  0.16064  0.95629  1.0000
  H   H216      1.0  0.06968  0.21467  0.77789  1.0000
  S   S57       1.0  0.45460  0.28705  0.97458  1.0000
  C   C142      1.0  0.48925  0.13544  0.92972  1.0000
  H   H217      1.0  0.03971  0.15751  0.81893  1.0000
  S   S58       1.0  0.05025  0.15034  0.88952  1.0000
  H   H218      1.0  0.03980  0.07723  0.79114  1.0000
  H   H219      1.0  0.25094  0.09968  0.92364  1.0000
  H   H220      1.0  0.11562  0.15441  0.94031  1.0000
  C   C143      1.0  0.24611  0.11863  0.93106  1.0000
  H   H221      1.0  0.37474  0.10711  0.85605  1.0000
  H   H222      1.0  0.10871  0.18848  0.94643  1.0000
  C   C144      1.0  0.49550  0.38679  0.92248  1.0000
  C   C145      1.0  0.08646  0.20701  0.76723  1.0000
  S   S59       1.0  0.31406  0.15432  0.94720  1.0000
  H   H223      1.0  0.03533  0.40015  0.90844  1.0000
  H   H224      1.0  0.05948  0.13316  0.82401  1.0000
  H   H225      1.0  0.34324  0.10789  0.93913  1.0000
  H   H226      1.0  0.03997  0.46046  0.85248  1.0000
  H   H227      1.0  0.03885  0.20622  0.88960  1.0000
  H   H228      1.0  0.42817  0.18765  0.89616  1.0000
  C   C146      1.0  0.02207  0.43569  0.92251  1.0000
  N   N15       1.0  0.38001  0.13541  0.89522  1.0000
  C   C147      1.0  0.10906  0.20519  0.81805  1.0000
  H   H229      1.0  0.04193  0.13577  0.78694  1.0000
  C   C148      1.0  0.36920  0.10196  0.88297  1.0000
  S   S60       1.0  0.41118  0.23941  0.91937  1.0000
  S   S61       1.0  0.42779  0.33701  0.90896  1.0000
  H   H230      1.0  0.11336  0.18908  0.83708  1.0000
  C   C149      1.0  0.46559  0.38117  0.90948  1.0000
  H   H231      1.0  0.11224  0.23240  0.75617  1.0000
  H   H232      1.0  0.06475  0.00334  0.78897  1.0000
  S   S62       1.0  0.48797  0.09685  0.92348  1.0000
  C   C150      1.0  0.46537  0.41127  0.89709  1.0000
  H   H233      1.0  0.28673  0.19642  0.96202  1.0000
  H   H234      1.0  0.44236  0.40715  0.88688  1.0000
  H   H235      1.0  0.49620  0.36392  0.93172  1.0000
  C   C151      1.0  0.45970  0.13039  0.94715  1.0000
  S   S63       1.0  0.48973  0.23390  0.94665  1.0000
  C   C152      1.0  0.48884  0.19548  0.94067  1.0000
  H   H236      1.0  0.08608  0.00846  0.82474  1.0000
  C   C153      1.0  0.01592  0.15036  0.91008  1.0000
  H   H237      1.0  0.33102  0.12966  0.88877  1.0000
  Fe  Fe28      1.0  0.36416  0.20505  0.95813  1.0000
  C   C154      1.0  0.37221  0.12722  0.93099  1.0000
  H   H238      1.0  0.43412  0.15230  0.89356  1.0000
  Fe  Fe29      1.0  0.44267  0.23644  0.95791  1.0000
  C   C155      1.0  0.41842  0.16287  0.88548  1.0000
  Fe  Fe30      1.0  0.41947  0.28707  0.93909  1.0000
  H   H239      1.0  0.42497  0.17136  0.85867  1.0000
  C   C156      1.0  0.36009  0.14945  0.88146  1.0000
  H   H240      1.0  0.36499  0.15571  0.85450  1.0000
  H   H241      1.0  0.13531  0.23073  0.80851  1.0000
  H   H242      1.0  0.49431  0.46974  0.88829  1.0000
  S   S64       1.0  0.36986  0.25282  0.97476  1.0000
  H   H243      1.0  0.43701  0.15608  0.96670  1.0000
  H   H244      1.0  0.38544  0.11500  0.94220  1.0000
  H   H245      1.0  0.11675  0.15654  0.79447  1.0000
  H   H246      1.0  0.50344  0.09446  0.73261  1.0000
  H   H247      1.0  0.46378  0.41871  0.96727  1.0000
  C   C157      1.0  0.11373  0.17491  0.77685  1.0000
  H   H248      1.0  0.10202  0.16073  0.75617  1.0000
  C   C158      1.0  0.01707  0.18225  0.90536  1.0000
  H   H249      1.0  0.14076  0.19927  0.76726  1.0000
  H   H250      1.0  0.06007  0.49162  0.81446  1.0000
  H   H251      1.0  0.01323  0.08905  0.74488  1.0000
  Fe  Fe31      1.0  0.11541  0.75543  0.10368  1.0000
  S   S65       1.0  0.09139  0.71564  0.06930  1.0000
  S   S66       1.0  0.15340  0.81574  0.08483  1.0000
  Fe  Fe32      1.0  0.07734  0.69637  0.16176  1.0000
  S   S67       1.0  0.04919  0.65191  0.13286  1.0000
  C   C159      1.0  0.19831  0.56319  0.00416  1.0000
  Fe  Fe33      1.0  0.10246  0.68093  0.10297  1.0000
  S   S68       1.0  0.11431  0.64178  0.08771  1.0000
  Fe  Fe34      1.0  0.04035  0.68933  0.10229  1.0000
  H   H252      1.0  0.01773  0.78678  0.08043  1.0000
  S   S69       1.0  0.13121  0.72336  0.13416  1.0000
  S   S70       1.0  0.06367  0.73153  0.13415  1.0000
  H   H253      1.0  0.31300  0.50202  0.20876  1.0000
  C   C160      1.0  0.07093  0.64416  0.22303  1.0000
  H   H254      1.0  0.04027  0.82983  0.02874  1.0000
  H   H255      1.0  0.05603  0.64193  0.05941  1.0000
  H   H256      1.0  0.34899  0.65170  0.13861  1.0000
  H   H257      1.0  0.09991  0.75869  0.21206  1.0000
  S   S71       1.0  0.24739  0.53625  0.11712  1.0000
  S   S72       1.0  0.16769  0.93356  0.16356  1.0000
  H   H258      1.0  0.18935  0.53456  0.00590  1.0000
  S   S73       1.0  0.28176  0.58560  0.17345  1.0000
  C   C161      1.0  0.20103  0.60814  0.03146  1.0000
  Fe  Fe35      1.0  0.23682  0.57038  0.14393  1.0000
  S   S74       1.0  0.23388  0.61795  0.12396  1.0000
  H   H259      1.0  0.13756  0.98683  0.17392  1.0000
  H   H260      1.0  0.43488  0.87610  0.99124  1.0000
  C   C162      1.0  0.02664  0.60003  0.99458  1.0000
  C   C163      1.0  0.20431  0.56114  0.06116  1.0000
  C   C164      1.0  0.17515  0.59437  0.20021  1.0000
  H   H261      1.0  0.30880  0.55356  0.21551  1.0000
  C   C165      1.0  0.03668  0.80788  0.01646  1.0000
  S   S75       1.0  0.37644  0.74285  0.99250  1.0000
  H   H262      1.0  0.08766  0.61615  0.01624  1.0000
  C   C166      1.0  0.33454  0.56567  0.22506  1.0000
  H   H263      1.0  0.18921  0.61545  0.01195  1.0000
  C   C167      1.0  0.14601  0.63504  0.10337  1.0000
  C   C168      1.0  0.13752  0.59972  0.11103  1.0000
  C   C169      1.0  0.16351  0.59375  0.11923  1.0000
  C   C170      1.0  0.19873  0.62318  0.11851  1.0000
  C   C171      1.0  0.20702  0.65839  0.11141  1.0000
  C   C172      1.0  0.18083  0.66431  0.10430  1.0000
  H   H264      1.0  0.11070  0.57684  0.11036  1.0000
  H   H265      1.0  0.15645  0.56643  0.12509  1.0000
  H   H266      1.0  0.23411  0.68138  0.11075  1.0000
  H   H267      1.0  0.18798  0.69164  0.09799  1.0000
  C   C173      1.0  0.15749  0.84799  0.10750  1.0000
  C   C174      1.0  0.12956  0.83965  0.12984  1.0000
  C   C175      1.0  0.13310  0.86620  0.14669  1.0000
  C   C176      1.0  0.16468  0.90121  0.14168  1.0000
  C   C177      1.0  0.19259  0.90959  0.11929  1.0000
  C   C178      1.0  0.18885  0.88317  0.10208  1.0000
  H   H268      1.0  0.10503  0.81299  0.13362  1.0000
  H   H269      1.0  0.11124  0.85974  0.16356  1.0000
  H   H270      1.0  0.21696  0.93648  0.11506  1.0000
  H   H271      1.0  0.21047  0.88997  0.08462  1.0000
  H   H272      1.0  0.10332  0.60472  0.18469  1.0000
  S   S76       1.0  0.19634  0.52417  0.18246  1.0000
  C   C179      1.0  0.05102  0.66237  0.99727  1.0000
  H   H273      1.0  0.06871  0.98267  0.18675  1.0000
  Fe  Fe36      1.0  0.28927  0.54818  0.15022  1.0000
  H   H274      1.0  0.49591  0.71612  0.20682  1.0000
  H   H275      1.0  0.19403  0.61419  0.05417  1.0000
  H   H276      1.0  0.08279  0.82519  0.06051  1.0000
  N   N16       1.0  0.18821  0.56973  0.03493  1.0000
  H   H277      1.0  0.45773  0.82669  0.01440  1.0000
  C   C180      1.0  0.03662  0.74839  0.21102  1.0000
  H   H278      1.0  0.18832  0.62198  0.18561  1.0000
  H   H279      1.0  0.18636  0.56912  0.98390  1.0000
  C   C181      1.0  0.49057  0.60155  0.02075  1.0000
  H   H280      1.0  0.40934  0.82800  0.99344  1.0000
  H   H281      1.0  0.09959  0.65690  0.17592  1.0000
  H   H282      1.0  0.18090  0.57877  0.18607  1.0000
  H   H283      1.0  0.05563  0.82092  0.99372  1.0000
  Fe  Fe37      1.0  0.24161  0.53710  0.21046  1.0000
  C   C182      1.0  0.49682  0.69212  0.20749  1.0000
  H   H284      1.0  0.35520  0.58164  0.20375  1.0000
  C   C183      1.0  0.09002  0.60876  0.20364  1.0000
  H   H285      1.0  0.02649  0.57578  0.00342  1.0000
  H   H286      1.0  0.13862  0.51728  0.04594  1.0000
  H   H287      1.0  0.45940  0.90275  0.03970  1.0000
  H   H288      1.0  0.02398  0.65640  0.99992  1.0000
  H   H289      1.0  0.23037  0.62651  0.02554  1.0000
  H   H290      1.0  0.23270  0.59726  0.21478  1.0000
  H   H291      1.0  0.01969  0.74820  0.08437  1.0000
  H   H292      1.0  0.19614  0.56434  0.08497  1.0000
  H   H293      1.0  0.22760  0.58063  0.99738  1.0000
  H   H294      1.0  0.39114  0.84787  0.01339  1.0000
  C   C184      1.0  0.01575  0.76611  0.06723  1.0000
  C   C185      1.0  0.03789  0.62010  0.04611  1.0000
  C   C186      1.0  0.14923  0.54650  0.04283  1.0000
  C   C187      1.0  0.08780  0.63841  0.19867  1.0000
  H   H295      1.0  0.13633  0.55220  0.02332  1.0000
  C   C188      1.0  0.47263  0.68091  0.15657  1.0000
  H   H296      1.0  0.14074  0.55113  0.06575  1.0000
  H   H297      1.0  0.49693  0.64171  0.17994  1.0000
  C   C189      1.0  0.40477  0.81083  0.05826  1.0000
  N   N17       1.0  0.05061  0.63050  0.01100  1.0000
  H   H298      1.0  0.10608  0.79999  0.19368  1.0000
  H   H299      1.0  0.49584  0.68569  0.14198  1.0000
  C   C190      1.0  0.03697  0.75461  0.02020  1.0000
  H   H300      1.0  0.47532  0.70703  0.15451  1.0000
  H   H301      1.0  0.43075  0.67520  0.20445  1.0000
  H   H302      1.0  0.09864  0.81678  0.02547  1.0000
  S   S77       1.0  0.06689  0.68050  0.21562  1.0000
  Fe  Fe38      1.0  0.21804  0.98999  0.16112  1.0000
  C   C191      1.0  0.43370  0.65248  0.20656  1.0000
  C   C192      1.0  0.47116  0.63361  0.19248  1.0000
  S   S78       1.0  0.34178  0.55351  0.14372  1.0000
  H   H303      1.0  0.05567  0.76641  0.99739  1.0000
  H   H304      1.0  0.46929  0.62182  0.21813  1.0000
  H   H305      1.0  0.04137  0.73585  0.03535  1.0000
  H   H306      1.0  0.06839  0.68576  0.00936  1.0000
  H   H307      1.0  0.50763  0.55364  0.02989  1.0000
  Fe  Fe39      1.0  0.41940  0.74133  0.01524  1.0000
  C   C193      1.0  0.38982  0.69853  0.10454  1.0000
  H   H308      1.0  0.48395  0.87480  0.01276  1.0000
  N   N18       1.0  0.43091  0.84612  0.03727  1.0000
  N   N19       1.0  0.46869  0.66480  0.19074  1.0000
  C   C194      1.0  0.38844  0.69245  0.16352  1.0000
  C   C195      1.0  0.42039  0.72678  0.15958  1.0000
  C   C196      1.0  0.43673  0.74702  0.12822  1.0000
  H   H309      1.0  0.43209  0.73800  0.18068  1.0000
  H   H310      1.0  0.46111  0.77379  0.12537  1.0000
  C   C197      1.0  0.45559  0.63816  0.09243  1.0000
  C   C198      1.0  0.44739  0.60802  0.11466  1.0000
  C   C199      1.0  0.41233  0.58237  0.12966  1.0000
  C   C200      1.0  0.38514  0.58683  0.12329  1.0000
  C   C201      1.0  0.39333  0.61704  0.10113  1.0000
  C   C202      1.0  0.42827  0.64226  0.08540  1.0000
  H   H311      1.0  0.46795  0.60423  0.12009  1.0000
  H   H312      1.0  0.40621  0.55882  0.14636  1.0000
  H   H313      1.0  0.37270  0.62079  0.09582  1.0000
  H   H314      1.0  0.43406  0.66533  0.06821  1.0000
  H   H315      1.0  0.37777  0.68737  0.08352  1.0000
  H   H316      1.0  0.08290  0.78563  0.06303  1.0000
  C   C203      1.0  0.42131  0.73310  0.10062  1.0000
  H   H317      1.0  0.41201  0.63168  0.19460  1.0000
  H   H318      1.0  0.45120  0.87392  0.07743  1.0000
  H   H319      1.0  0.37991  0.80815  0.06579  1.0000
  H   H320      1.0  0.44889  0.66294  0.14490  1.0000
  S   S79       1.0  0.44188  0.76014  0.06179  1.0000
  C   C204      1.0  0.07807  0.80359  0.04703  1.0000
  H   H321      1.0  0.48756  0.72412  0.04383  1.0000
  H   H322      1.0  0.41545  0.80690  0.08064  1.0000
  H   H323      1.0  0.44971  0.61185  0.18113  1.0000
  C   C205      1.0  0.37352  0.67832  0.13587  1.0000
  N   N20       1.0  0.04188  0.78307  0.03771  1.0000
  H   H324      1.0  0.36021  0.53056  0.20189  1.0000
  S   S80       1.0  0.36621  0.66641  0.20239  1.0000
  H   H325      1.0  0.48986  0.62462  0.02581  1.0000
  C   C206      1.0  0.08682  0.63944  0.00588  1.0000
  C   C207      1.0  0.08366  0.98213  0.20688  1.0000
  H   H326      1.0  0.41579  0.87497  0.06212  1.0000
  H   H327      1.0  0.03667  0.59571  0.05703  1.0000
  C   C208      1.0  0.09876  0.78151  0.21715  1.0000
  H   H328      1.0  0.39755  0.78790  0.04561  1.0000
  H   H329      1.0  0.23379  0.57940  0.05672  1.0000
  C   C209      1.0  0.46340  0.84831  0.02822  1.0000
  H   H330      1.0  0.08120  0.95611  0.20995  1.0000
  H   H331      1.0  0.48529  0.73953  0.00321  1.0000
  C   C210      1.0  0.43970  0.87574  0.05494  1.0000
  H   H332      1.0  0.14611  0.58134  0.20217  1.0000
  S   S81       1.0  0.49974  0.67158  0.07387  1.0000
  H   H333      1.0  0.04258  0.76574  0.18708  1.0000
  C   C211      1.0  0.50203  0.73535  0.01880  1.0000
  H   H334      1.0  0.10567  0.66247  0.01788  1.0000
  S   S82       1.0  0.40720  0.69208  0.99575  1.0000
  H   H335      1.0  0.19634  0.53276  0.06365  1.0000
  H   H336      1.0  0.47071  0.57739  0.03905  1.0000
  C   C212      1.0  0.22606  0.61272  0.22826  1.0000
  S   S83       1.0  0.25112  0.50005  0.18929  1.0000
  H   H337      1.0  0.47499  0.84477  0.05003  1.0000
  H   H338      1.0  0.06999  0.98203  0.22922  1.0000
  H   H339      1.0  0.06886  0.81827  0.21599  1.0000
  C   C213      1.0  0.41588  0.84968  0.00760  1.0000
  H   H340      1.0  0.03562  0.72427  0.20643  1.0000
  C   C214      1.0  0.33715  0.51454  0.22128  1.0000
  H   H341      1.0  0.24097  0.64078  0.21421  1.0000
  H   H342      1.0  0.50380  0.71424  0.00998  1.0000
  H   H343      1.0  0.48148  0.59602  0.99664  1.0000
  Fe  Fe40      1.0  0.10342  0.53529  0.35345  1.0000
  H   H344      1.0  0.39412  0.57201  0.23916  1.0000
  S   S84       1.0  0.14885  0.55231  0.38333  1.0000
  C   C215      1.0  0.10127  0.54941  0.45436  1.0000
  H   H345      1.0  0.02886  0.73450  0.27680  1.0000
  S   S85       1.0  0.09303  0.57203  0.32388  1.0000
  H   H346      1.0  0.10154  0.58241  0.39597  1.0000
  H   H347      1.0  0.49933  0.58589  0.47306  1.0000
  S   S86       1.0  0.31731  0.63948  0.36431  1.0000
  H   H348      1.0  0.26445  0.59937  0.41818  1.0000
  N   N21       1.0  0.15012  0.83105  0.43563  1.0000
  H   H349      1.0  0.08637  0.91861  0.37008  1.0000
  S   S87       1.0  0.02188  0.57347  0.37017  1.0000
  H   H350      1.0  0.01573  0.63346  0.36423  1.0000
  Fe  Fe41      1.0  0.06814  0.52899  0.29312  1.0000
  Fe  Fe42      1.0  0.03838  0.53939  0.35146  1.0000
  H   H351      1.0  0.07506  0.75792  0.28031  1.0000
  H   H352      1.0  0.37182  0.57270  0.27456  1.0000
  H   H353      1.0  0.17284  0.97565  0.40109  1.0000
  C   C216      1.0  0.12936  0.84667  0.43521  1.0000
  H   H354      1.0  0.20091  0.59220  0.32314  1.0000
  C   C217      1.0  0.16894  0.55860  0.25119  1.0000
  H   H355      1.0  0.25185  0.52560  0.37746  1.0000
  H   H356      1.0  0.16403  0.98548  0.36130  1.0000
  C   C218      1.0  0.25003  0.53571  0.32605  1.0000
  C   C219      1.0  0.11600  0.60019  0.41382  1.0000
  H   H357      1.0  0.40468  0.79905  0.38897  1.0000
  H   H358      1.0  0.11809  0.62991  0.46630  1.0000
  S   S88       1.0  0.05050  0.50543  0.38395  1.0000
  H   H359      1.0  0.32086  0.51055  0.42475  1.0000
  S   S89       1.0  0.06361  0.97585  0.29808  1.0000
  C   C220      1.0  0.18387  0.85514  0.44827  1.0000
  H   H360      1.0  0.19970  0.56594  0.42552  1.0000
  H   H361      1.0  0.04608  0.57126  0.28007  1.0000
  H   H362      1.0  0.50675  0.91124  0.31885  1.0000
  H   H363      1.0  0.08262  0.81517  0.25513  1.0000
  N   N22       1.0  0.48886  0.53324  0.47455  1.0000
  H   H364      1.0  0.04287  0.62408  0.27147  1.0000
  H   H365      1.0  0.13285  0.80961  0.39188  1.0000
  Fe  Fe43      1.0  0.02547  0.96061  0.34144  1.0000
  H   H366      1.0  0.18862  0.61892  0.27437  1.0000
  C   C221      1.0  0.05817  0.59015  0.25746  1.0000
  H   H367      1.0  0.31567  0.57141  0.39240  1.0000
  H   H368      1.0  0.04172  0.90150  0.32579  1.0000
  H   H369      1.0  0.08012  0.92758  0.44028  1.0000
  C   C222      1.0  0.19562  0.57672  0.37489  1.0000
  C   C223      1.0  0.21484  0.59392  0.34377  1.0000
  C   C224      1.0  0.25237  0.61352  0.33954  1.0000
  C   C225      1.0  0.27050  0.61545  0.36644  1.0000
  C   C226      1.0  0.25098  0.59814  0.39720  1.0000
  C   C227      1.0  0.21404  0.57902  0.40137  1.0000
  C   C228      1.0  0.07541  0.58470  0.23312  1.0000
  H   H370      1.0  0.26713  0.62666  0.31559  1.0000
  Fe  Fe44      1.0  0.22372  0.95577  0.43724  1.0000
  H   H371      1.0  0.37127  0.80108  0.37005  1.0000
  H   H372      1.0  0.26326  0.56445  0.32484  1.0000
  H   H373      1.0  0.10242  0.96385  0.35197  1.0000
  H   H374      1.0  0.23635  0.61366  0.25204  1.0000
  H   H375      1.0  0.35770  0.73882  0.42223  1.0000
  H   H376      1.0  0.34180  0.57466  0.42440  1.0000
  H   H377      1.0  0.22425  0.97688  0.26963  1.0000
  H   H378      1.0  0.20084  0.88190  0.43202  1.0000
  N   N23       1.0  0.11924  0.95919  0.39840  1.0000
  H   H379      1.0  0.14748  0.61567  0.46788  1.0000
  H   H380      1.0  0.42348  0.58621  0.47856  1.0000
  H   H381      1.0  0.08926  0.53139  0.43626  1.0000
  H   H382      1.0  0.10382  0.82937  0.42554  1.0000
  S   S90       1.0  0.24598  0.54968  0.26159  1.0000
  C   C229      1.0  0.35023  0.55951  0.34845  1.0000
  C   C230      1.0  0.23387  0.97101  0.35043  1.0000
  H   H383      1.0  0.12908  0.55761  0.45396  1.0000
  N   N24       1.0  0.09966  0.58112  0.44743  1.0000
  C   C231      1.0  0.49761  0.58081  0.35391  1.0000
  C   C232      1.0  0.38824  0.79096  0.36868  1.0000
  H   H384      1.0  0.15073  0.60498  0.25335  1.0000
  H   H385      1.0  0.14395  0.60887  0.40976  1.0000
  C   C233      1.0  0.21880  0.96132  0.32167  1.0000
  H   H386      1.0  0.32479  0.55440  0.34170  1.0000
  C   C234      1.0  0.23613  0.98463  0.29159  1.0000
  S   S91       1.0  0.17365  0.92756  0.47145  1.0000
  C   C235      1.0  0.17970  0.61723  0.24995  1.0000
  C   C236      1.0  0.34197  0.57771  0.39758  1.0000
  C   C237      1.0  0.15769  0.82757  0.40230  1.0000
  C   C238      1.0  0.12966  0.79502  0.45676  1.0000
  H   H387      1.0  0.14790  0.93990  0.37841  1.0000
  C   C239      1.0  0.23891  0.52078  0.29786  1.0000
  H   H388      1.0  0.45519  0.55135  0.46618  1.0000
  C   C240      1.0  0.05612  0.62000  0.25253  1.0000
  H   H389      1.0  0.19300  0.64529  0.23631  1.0000
  H   H390      1.0  0.49171  0.57026  0.43509  1.0000
  S   S92       1.0  0.26405  0.52088  0.45450  1.0000
  C   C241      1.0  0.48351  0.56143  0.46170  1.0000
  S   S93       1.0  0.50460  0.97925  0.33589  1.0000
  H   H391      1.0  0.19363  0.93563  0.32256  1.0000
  S   S94       1.0  0.21187  0.94000  0.38746  1.0000
  H   H392      1.0  0.09981  0.90652  0.42515  1.0000
  H   H393      1.0  0.32699  0.49708  0.38826  1.0000
  H   H394      1.0  0.30562  0.53164  0.28560  1.0000
  H   H395      1.0  0.10430  0.77584  0.44766  1.0000
  C   C242      1.0  0.06279  0.79938  0.23892  1.0000
  H   H396      1.0  0.40813  0.75166  0.34449  1.0000
  S   S95       1.0  0.25115  0.94112  0.47298  1.0000
  H   H397      1.0  0.17352  0.81608  0.40176  1.0000
  H   H398      1.0  0.40774  0.74704  0.38779  1.0000
  C   C243      1.0  0.24410  0.51378  0.35580  1.0000
  N   N25       1.0  0.33735  0.53753  0.24336  1.0000
  H   H399      1.0  0.04016  0.85165  0.30576  1.0000
  H   H400      1.0  0.11560  0.62451  0.40789  1.0000
  C   C244      1.0  0.49898  0.88410  0.32815  1.0000
  H   H401      1.0  0.32435  0.74110  0.40346  1.0000
  H   H402      1.0  0.14485  0.78275  0.45856  1.0000
  C   C245      1.0  0.39057  0.73939  0.36806  1.0000
  C   C246      1.0  0.06227  0.56895  0.45136  1.0000
  H   H403      1.0  0.03635  0.79027  0.25089  1.0000
  H   H404      1.0  0.50257  0.61542  0.38724  1.0000
  H   H405      1.0  0.17447  0.54172  0.23885  1.0000
  H   H406      1.0  0.08659  0.53284  0.47848  1.0000
  H   H407      1.0  0.17924  0.86034  0.47248  1.0000
  C   C247      1.0  0.37067  0.55492  0.25802  1.0000
  C   C248      1.0  0.15237  0.96524  0.38422  1.0000
  C   C249      1.0  0.34270  0.73275  0.40094  1.0000
  H   H408      1.0  0.40684  0.80558  0.34569  1.0000
  H   H409      1.0  0.39177  0.54648  0.38131  1.0000
  N   N26       1.0  0.34970  0.55403  0.38398  1.0000
  S   S96       1.0  0.44381  0.70773  0.25894  1.0000
  S   S97       1.0  0.43964  0.62147  0.29576  1.0000
  Fe  Fe45      1.0  0.43227  0.73338  0.29540  1.0000
  S   S98       1.0  0.46923  0.79475  0.29010  1.0000
  H   H410      1.0  0.28149  0.50100  0.25854  1.0000
  H   H411      1.0  0.06737  0.94009  0.38528  1.0000
  H   H412      1.0  0.33626  0.58472  0.24039  1.0000
  C   C250      1.0  0.48888  0.85908  0.30709  1.0000
  C   C251      1.0  0.47872  0.82374  0.31858  1.0000
  C   C252      1.0  0.47843  0.81347  0.35161  1.0000
  C   C253      1.0  0.48838  0.83852  0.37280  1.0000
  H   H413      1.0  0.17312  0.85447  0.38586  1.0000
  H   H414      1.0  0.48886  0.86713  0.28169  1.0000
  H   H415      1.0  0.47178  0.78673  0.36059  1.0000
  Fe  Fe46      1.0  0.38748  0.68196  0.24989  1.0000
  C   C254      1.0  0.49905  0.87406  0.36108  1.0000
  H   H416      1.0  0.10271  0.99026  0.41688  1.0000
  C   C255      1.0  0.47521  0.61883  0.34764  1.0000
  C   C256      1.0  0.46244  0.60686  0.31879  1.0000
  C   C257      1.0  0.46729  0.58180  0.30772  1.0000
  C   C258      1.0  0.48475  0.56888  0.32510  1.0000
  N   N27       1.0  0.36679  0.75131  0.37009  1.0000
  H   H417      1.0  0.47201  0.63835  0.35636  1.0000
  H   H418      1.0  0.45776  0.57244  0.28537  1.0000
  H   H419      1.0  0.48823  0.54963  0.31617  1.0000
  C   C259      1.0  0.09269  0.94482  0.37546  1.0000
  H   H420      1.0  0.36200  0.60677  0.38718  1.0000
  H   H421      1.0  0.37527  0.70950  0.37027  1.0000
  C   C260      1.0  0.11915  0.60587  0.47030  1.0000
  H   H422      1.0  0.32992  0.71223  0.34252  1.0000
  Fe  Fe47      1.0  0.36116  0.66397  0.32239  1.0000
  C   C261      1.0  0.38467  0.56328  0.39173  1.0000
  Fe  Fe48      1.0  0.42286  0.65990  0.29901  1.0000
  C   C262      1.0  0.10519  0.93282  0.42905  1.0000
  C   C263      1.0  0.32204  0.51574  0.39795  1.0000
  C   C264      1.0  0.49254  0.60572  0.36515  1.0000
  H   H423      1.0  0.36305  0.75594  0.31892  1.0000
  C   C265      1.0  0.34572  0.74193  0.34260  1.0000
  H   H424      1.0  0.12422  0.94306  0.44712  1.0000
  C   C266      1.0  0.12671  0.99386  0.40504  1.0000
  H   H425      1.0  0.38513  0.55903  0.41840  1.0000
  H   H426      1.0  0.48866  0.83065  0.39821  1.0000
  S   S99       1.0  0.08029  0.54896  0.23994  1.0000
  S   S100      1.0  0.36673  0.63315  0.28829  1.0000
  H   H427      1.0  0.37190  0.58772  0.33724  1.0000
  H   H428      1.0  0.04676  0.55010  0.43450  1.0000
  H   H429      1.0  0.32686  0.74977  0.34370  1.0000
  S   S101      1.0  0.41618  0.68773  0.33659  1.0000
  S   S102      1.0  0.37695  0.71078  0.28332  1.0000
  H   H430      1.0  0.32613  0.70273  0.40246  1.0000
  H   H431      1.0  0.35490  0.54128  0.33748  1.0000
  H   H432      1.0  0.13972  0.54478  0.25434  1.0000
  H   H433      1.0  0.40600  0.59216  0.38191  1.0000
  H   H434      1.0  0.05997  0.59214  0.44613  1.0000
  H   H435      1.0  0.19940  0.84332  0.45076  1.0000
  H   H436      1.0  0.14428  0.87409  0.41980  1.0000
  H   H437      1.0  0.05397  0.71968  0.25993  1.0000
  C   C267      1.0  0.05488  0.74398  0.26378  1.0000
  H   H438      1.0  0.12312  0.84951  0.46009  1.0000
  H   H439      1.0  0.37361  0.53456  0.27228  1.0000
  H   H440      1.0  0.17758  0.55865  0.27566  1.0000
  H   H441      1.0  0.29532  0.50788  0.39260  1.0000
  H   H442      1.0  0.47282  0.97665  0.46714  1.0000
  H   H443      1.0  0.11961  0.79672  0.23275  1.0000
  H   H444      1.0  0.04916  0.55457  0.47656  1.0000
  C   C268      1.0  0.01763  0.87450  0.33055  1.0000
  C   C269      1.0  0.01670  0.84613  0.31925  1.0000
  C   C270      1.0  0.30691  0.51494  0.26913  1.0000
  H   H445      1.0  0.47446  0.50831  0.43218  1.0000
  N   N28       1.0  0.06326  0.76833  0.23272  1.0000
  C   C271      1.0  0.46712  0.50123  0.45902  1.0000
  H   H446      1.0  0.13899  0.98787  0.23300  1.0000
  H   H447      1.0  0.14546  0.49945  0.35057  1.0000
  N   N29       1.0  0.18747  0.59572  0.23243  1.0000
  H   H448      1.0  0.42950  0.64106  0.23265  1.0000
  S   S103      1.0  0.01274  0.49809  0.31882  1.0000
  H   H449      1.0  0.49422  0.68069  0.23346  1.0000
  Fe  Fe49      1.0  0.05034  0.60299  0.61958  1.0000
  S   S104      1.0  0.21128  0.54080  0.51268  1.0000
  H   H450      1.0  0.12394  0.70280  0.60250  1.0000
  Fe  Fe50      1.0  0.09398  0.65395  0.55576  1.0000
  S   S105      1.0  0.06137  0.61126  0.52581  1.0000
  S   S106      1.0  0.14242  0.70956  0.53209  1.0000
  H   H451      1.0  0.10927  0.71873  0.69853  1.0000
  Fe  Fe51      1.0  0.06427  0.57355  0.56382  1.0000
  S   S107      1.0  0.06963  0.53010  0.54852  1.0000
  S   S108      1.0  0.04647  0.64278  0.58528  1.0000
  S   S109      1.0  0.10053  0.61723  0.59166  1.0000
  H   H452      1.0  0.16929  0.76262  0.64232  1.0000
  S   S110      1.0  0.16576  0.86049  0.54044  1.0000
  C   C272      1.0  0.05818  0.59655  0.70714  1.0000
  C   C273      1.0  0.08110  0.58577  0.70497  1.0000
  H   H453      1.0  0.05941  0.67671  0.64993  1.0000
  H   H454      1.0  0.08847  0.58208  0.68180  1.0000
  S   S111      1.0  0.22026  0.96759  0.52765  1.0000
  C   C274      1.0  0.10932  0.53346  0.53910  1.0000
  C   C275      1.0  0.17150  0.53741  0.52159  1.0000
  H   H455      1.0  0.19906  0.59018  0.53514  1.0000
  C   C276      1.0  0.14258  0.56442  0.54142  1.0000
  H   H456      1.0  0.10777  0.59203  0.49588  1.0000
  H   H457      1.0  0.14454  0.58690  0.54994  1.0000
  C   C277      1.0  0.14821  0.75124  0.53411  1.0000
  C   C278      1.0  0.12134  0.75265  0.54851  1.0000
  C   C279      1.0  0.12728  0.78634  0.55041  1.0000
  C   C280      1.0  0.15982  0.81894  0.53728  1.0000
  H   H458      1.0  0.09594  0.72780  0.55804  1.0000
  H   H459      1.0  0.10638  0.78717  0.56176  1.0000
  H   H460      1.0  0.48099  0.60329  0.63781  1.0000
  C   C281      1.0  0.17345  0.56624  0.53289  1.0000
  H   H461      1.0  0.21199  0.84239  0.51296  1.0000
  H   H462      1.0  0.43800  0.56281  0.65127  1.0000
  H   H463      1.0  0.15123  0.70243  0.63182  1.0000
  H   H464      1.0  0.09540  0.67483  0.69131  1.0000
  C   C282      1.0  0.45025  0.54948  0.71223  1.0000
  C   C283      1.0  0.18658  0.81753  0.52256  1.0000
  Fe  Fe52      1.0  0.20170  0.91627  0.50824  1.0000
  H   H465      1.0  0.20176  0.78298  0.50994  1.0000
  H   H466      1.0  0.07910  0.71419  0.61692  1.0000
  H   H467      1.0  0.39355  0.99068  0.52348  1.0000
  H   H468      1.0  0.38209  0.50669  0.58606  1.0000
  H   H469      1.0  0.44225  0.56469  0.72439  1.0000
  H   H470      1.0  0.10523  0.66607  0.63620  1.0000
  H   H471      1.0  0.14326  0.76379  0.61205  1.0000
  H   H472      1.0  0.13618  0.77048  0.65208  1.0000
  C   C284      1.0  0.18076  0.78383  0.52100  1.0000
  N   N30       1.0  0.11562  0.71539  0.64827  1.0000
  C   C285      1.0  0.08014  0.70634  0.64288  1.0000
  C   C286      1.0  0.12443  0.69588  0.62884  1.0000
  C   C287      1.0  0.11558  0.70441  0.68305  1.0000
  C   C288      1.0  0.14226  0.75481  0.63831  1.0000
  H   H473      1.0  0.07245  0.72032  0.65736  1.0000
  H   H474      1.0  0.45358  0.60167  0.67038  1.0000
  H   H475      1.0  0.14168  0.71010  0.68802  1.0000
  Fe  Fe53      1.0  0.19525  0.98043  0.48809  1.0000
  H   H476      1.0  0.50687  0.56820  0.64662  1.0000
  S   S112      1.0  0.45770  0.55639  0.58173  1.0000
  C   C289      1.0  0.37801  0.54127  0.51056  1.0000
  C   C290      1.0  0.39125  0.52413  0.56258  1.0000
  C   C291      1.0  0.42761  0.55143  0.55392  1.0000
  C   C292      1.0  0.43905  0.57379  0.52352  1.0000
  H   H477      1.0  0.46683  0.59530  0.51678  1.0000
  C   C293      1.0  0.50858  0.60389  0.69360  1.0000
  C   C294      1.0  0.48685  0.55147  0.66832  1.0000
  C   C295      1.0  0.41437  0.56864  0.50196  1.0000
  H   H478      1.0  0.39873  0.97753  0.62992  1.0000
  H   H479      1.0  0.48223  0.50187  0.52067  1.0000
  N   N31       1.0  0.47684  0.57266  0.68349  1.0000
  Fe  Fe54      1.0  0.26810  0.99340  0.48987  1.0000
  H   H480      1.0  0.11188  0.57094  0.73112  1.0000
  C   C296      1.0  0.46167  0.58570  0.65983  1.0000
  H   H481      1.0  0.49868  0.54139  0.68533  1.0000
  C   C297      1.0  0.36654  0.51905  0.54105  1.0000
  S   S113      1.0  0.04082  0.60522  0.67284  1.0000
  H   H482      1.0  0.49384  0.54639  0.52248  1.0000
  S   S114      1.0  0.15474  0.99438  0.48857  1.0000
  H   H483      1.0  0.33931  0.98572  0.50894  1.0000
  Fe  Fe55      1.0  0.01360  0.59712  0.55803  1.0000
  H   H484      1.0  0.46366  0.52786  0.66006  1.0000
  C   C298      1.0  0.47818  0.52280  0.51003  1.0000
  H   H485      1.0  0.42592  0.52567  0.70548  1.0000
  C   C299      1.0  0.13825  0.50667  0.51872  1.0000
  C   C300      1.0  0.10734  0.50456  0.52784  1.0000
  H   H486      1.0  0.50232  0.62112  0.70441  1.0000
  H   H487      1.0  0.44978  0.51188  0.51633  1.0000
  H   H488      1.0  0.16436  0.49858  0.58400  1.0000
  S   S115      1.0  0.01394  0.55640  0.59438  1.0000
  Fe  Fe56      1.0  0.28783  0.49922  0.48786  1.0000
  Fe  Fe57      1.0  0.22231  0.50145  0.49667  1.0000
  H   H489      1.0  0.33868  0.49785  0.54798  1.0000
  H   H490      1.0  0.46085  0.53909  0.73050  1.0000
  H   H491      1.0  0.12296  0.79681  0.48189  1.0000
  S   S116      1.0  0.34845  0.53552  0.48190  1.0000
  Fe  Fe58      1.0  0.12586  0.60274  0.91184  1.0000
  S   S117      1.0  0.10173  0.55201  0.89002  1.0000
  S   S118      1.0  0.17248  0.63474  0.94023  1.0000
  Fe  Fe59      1.0  0.06640  0.61200  0.89634  1.0000
  Fe  Fe60      1.0  0.04913  0.53556  0.91402  1.0000
  Fe  Fe61      1.0  0.09133  0.58157  0.84933  1.0000
  S   S119      1.0  0.10141  0.57467  0.79801  1.0000
  S   S120      1.0  0.07377  0.58348  0.93953  1.0000
  S   S121      1.0  0.11956  0.63336  0.86933  1.0000
  S   S122      1.0  0.03763  0.56276  0.87256  1.0000
  C   C301      1.0  0.08508  0.58421  0.76331  1.0000
  C   C302      1.0  0.06232  0.59518  0.76542  1.0000
  N   N32       1.0  0.33257  0.75165  0.88072  1.0000
  C   C303      1.0  0.01616  0.97338  0.84170  1.0000
  C   C304      1.0  0.25336  0.62248  0.93188  1.0000
  H   H492      1.0  0.20261  0.59925  0.91385  1.0000
  C   C305      1.0  0.21393  0.64092  0.94099  1.0000
  C   C306      1.0  0.22164  0.61931  0.92714  1.0000
  C   C307      1.0  0.27789  0.64771  0.94989  1.0000
  H   H493      1.0  0.03491  0.60750  0.96793  1.0000
  C   C308      1.0  0.23893  0.66678  0.95826  1.0000
  H   H494      1.0  0.03211  0.99247  0.85811  1.0000
  H   H495      1.0  0.28196  0.74188  0.87419  1.0000
  C   C309      1.0  0.27077  0.67022  0.96268  1.0000
  H   H496      1.0  0.31084  0.75604  0.83724  1.0000
  H   H497      1.0  0.23306  0.68346  0.96923  1.0000
  S   S123      1.0  0.05635  0.65517  0.90075  1.0000
  H   H498      1.0  0.04905  0.95668  0.93457  1.0000
  C   C310      1.0  0.09434  0.57949  0.73298  1.0000
  H   H499      1.0  0.44100  0.65579  0.95527  1.0000
  C   C311      1.0  0.31015  0.75988  0.86289  1.0000
  H   H500      1.0  0.01859  0.52406  0.81657  1.0000
  H   H501      1.0  0.31912  0.78835  0.86271  1.0000
  H   H502      1.0  0.05494  0.59891  0.78857  1.0000
  S   S124      1.0  0.31604  0.64892  0.95725  1.0000
  H   H503      1.0  0.25868  0.60490  0.92194  1.0000
  C   C312      1.0  0.31967  0.71363  0.88049  1.0000
  H   H504      1.0  0.08334  0.97822  0.79937  1.0000
  H   H505      1.0  0.02587  0.50797  0.78261  1.0000
  H   H506      1.0  0.48498  0.85684  0.95193  1.0000
  H   H507      1.0  0.29134  0.69462  0.89104  1.0000
  C   C313      1.0  0.04099  0.93959  0.85578  1.0000
  H   H508      1.0  0.34166  0.78580  0.91576  1.0000
  H   H509      1.0  0.01576  0.91713  0.87091  1.0000
  Fe  Fe62      1.0  0.44681  0.73146  0.95298  1.0000
  C   C314      1.0  0.46490  0.65967  0.94471  1.0000
  H   H510      1.0  0.04485  0.89926  0.94683  1.0000
  H   H511      1.0  0.32188  0.70878  0.85546  1.0000
  H   H512      1.0  0.37220  0.77279  0.83942  1.0000
  H   H513      1.0  0.05788  0.95843  0.87210  1.0000
  C   C315      1.0  0.48341  0.87874  0.94131  1.0000
  H   H514      1.0  0.28920  0.68938  0.97696  1.0000
  C   C316      1.0  0.33074  0.75704  0.91458  1.0000
  H   H515      1.0  0.34637  0.74984  0.92905  1.0000
  H   H516      1.0  0.04433  0.70907  0.90908  1.0000
  H   H517      1.0  0.05127  0.50560  0.84927  1.0000
  S   S125      1.0  0.49420  0.73334  0.93260  1.0000
  H   H518      1.0  0.33496  0.70588  0.89498  1.0000
  H   H519      1.0  0.38035  0.80500  0.86502  1.0000
  H   H520      1.0  0.30301  0.74009  0.92683  1.0000
  C   C317      1.0  0.36965  0.77606  0.86500  1.0000
  H   H521      1.0  0.38732  0.77077  0.87801  1.0000
  S   S126      1.0  0.40715  0.73338  0.92474  1.0000
  S   S127      1.0  0.41880  0.82636  0.92403  1.0000
  H   H522      1.0  0.02510  0.92081  0.79729  1.0000
  Fe  Fe63      1.0  0.36783  0.69713  0.96887  1.0000
  C   C318      1.0  0.45443  0.87139  0.92543  1.0000
  C   C319      1.0  0.04893  0.60125  0.73748  1.0000
  C   C320      1.0  0.02073  0.68316  0.92028  1.0000
  H   H523      1.0  0.44320  0.60266  0.95348  1.0000
  C   C321      1.0  0.48062  0.93635  0.91301  1.0000
  C   C322      1.0  0.45315  0.90031  0.91127  1.0000
  H   H524      1.0  0.47941  0.95845  0.90207  1.0000
  H   H525      1.0  0.43083  0.89491  0.89894  1.0000
  C   C323      1.0  0.49438  0.69457  0.93185  1.0000
  C   C324      1.0  0.46622  0.62958  0.94363  1.0000
  C   C325      1.0  0.49698  0.63407  0.92980  1.0000
  N   N33       1.0  0.03447  0.95846  0.82864  1.0000
  C   C326      1.0  0.02359  0.93093  0.93705  1.0000
  H   H526      1.0  0.03122  0.60960  0.73942  1.0000
  Fe  Fe64      1.0  0.41804  0.77885  0.94977  1.0000
  S   S128      1.0  0.46125  0.78061  0.97367  1.0000
  H   H527      1.0  0.05459  0.92773  0.84698  1.0000
  H   H528      1.0  0.06119  0.67120  0.97090  1.0000
  C   C327      1.0  0.02111  0.89832  0.94410  1.0000
  S   S129      1.0  0.49802  0.59556  0.93049  1.0000
  C   C328      1.0  0.01890  0.65137  0.91911  1.0000
  C   C329      1.0  0.51065  0.91465  0.94332  1.0000
  C   C330      1.0  0.06861  0.98831  0.80959  1.0000
  H   H529      1.0  0.09716  0.64705  0.97959  1.0000
  C   C331      1.0  0.50947  0.94363  0.92915  1.0000
  H   H530      1.0  0.98928  0.23995  0.11203  1.0000
  C   C332      1.0  0.64385  0.12282  0.11739  1.0000
  S   S130      1.0  0.86091  0.17001  0.98792  1.0000
  H   H531      1.0  0.68959  0.34550  0.17841  1.0000
  H   H532      1.0  0.53519  0.09241  0.04325  1.0000
  H   H533      1.0  0.66335  0.05990  0.12258  1.0000
  Fe  Fe65      1.0  0.59799  0.22593  0.14209  1.0000
  S   S131      1.0  0.59876  0.21189  0.09240  1.0000
  Fe  Fe66      1.0  0.53726  0.14891  0.17027  1.0000
  S   S132      1.0  0.53315  0.12911  0.12358  1.0000
  H   H534      1.0  0.82921  0.16758  0.20989  1.0000
  Fe  Fe67      1.0  0.59266  0.16149  0.11829  1.0000
  Fe  Fe68      1.0  0.53904  0.17987  0.10258  1.0000
  S   S133      1.0  0.53888  0.19784  0.14996  1.0000
  C   C333      1.0  0.67431  0.35056  0.16247  1.0000
  H   H535      1.0  0.60620  0.30714  0.11816  1.0000
  H   H536      1.0  0.61781  0.06953  0.10519  1.0000
  C   C334      1.0  0.79753  0.21933  0.19880  1.0000
  H   H537      1.0  0.54618  0.09773  0.17678  1.0000
  H   H538      1.0  0.00705  0.12357  0.20947  1.0000
  S   S134      1.0  0.68675  0.00867  0.18756  1.0000
  H   H539      1.0  0.89901  0.06987  0.05744  1.0000
  H   H540      1.0  0.74474  0.12258  0.99529  1.0000
  H   H541      1.0  0.83650  0.05923  0.02642  1.0000
  C   C335      1.0  0.64034  0.09030  0.11522  1.0000
  H   H542      1.0  0.82276  0.24536  0.18770  1.0000
  S   S135      1.0  0.63765  0.27819  0.16004  1.0000
  H   H543      1.0  0.66233  0.41852  0.19944  1.0000
  H   H544      1.0  0.80415  0.16361  0.15717  1.0000
  C   C336      1.0  0.56916  0.16393  0.02842  1.0000
  H   H545      1.0  0.52178  0.31459  0.08091  1.0000
  H   H546      1.0  0.55653  0.15247  0.05400  1.0000
  H   H547      1.0  0.85411  0.21613  0.20106  1.0000
  H   H548      1.0  0.56413  0.05638  0.18930  1.0000
  H   H549      1.0  0.59947  0.34249  0.19734  1.0000
  C   C337      1.0  0.60509  0.41161  0.22686  1.0000
  C   C338      1.0  0.66321  0.39281  0.13430  1.0000
  C   C339      1.0  0.53377  0.07768  0.19855  1.0000
  H   H550      1.0  0.01043  0.24111  0.05733  1.0000
  N   N34       1.0  0.99053  0.15781  0.21877  1.0000
  C   C340      1.0  0.62740  0.32892  0.12848  1.0000
  S   S136      1.0  0.59607  0.17766  0.16710  1.0000
  C   C341      1.0  0.64681  0.32195  0.14925  1.0000
  C   C342      1.0  0.00882  0.14803  0.19770  1.0000
  S   S137      1.0  0.61401  0.13114  0.09954  1.0000
  H   H551      1.0  0.80006  0.17692  0.00304  1.0000
  C   C343      1.0  0.54405  0.05418  0.20565  1.0000
  H   H552      1.0  0.56539  0.35008  0.20202  1.0000
  H   H553      1.0  0.62051  0.36940  0.10501  1.0000
  H   H554      1.0  0.61739  0.43158  0.20378  1.0000
  C   C344      1.0  0.66613  0.08471  0.12517  1.0000
  C   C345      1.0  0.63561  0.36421  0.12107  1.0000
  H   H555      1.0  0.74215  0.15049  0.19826  1.0000
  C   C346      1.0  0.68259  0.38578  0.15495  1.0000
  C   C347      1.0  0.95297  0.12721  0.22620  1.0000
  H   H556      1.0  0.85861  0.10480  0.00487  1.0000
  H   H557      1.0  0.79317  0.22036  0.22481  1.0000
  H   H558      1.0  0.55262  0.29289  0.03019  1.0000
  C   C348      1.0  0.88115  0.07446  0.07101  1.0000
  H   H559      1.0  0.70527  0.10297  0.02328  1.0000
  H   H560      1.0  0.54195  0.25214  0.05505  1.0000
  S   S138      1.0  0.99222  0.17386  0.10834  1.0000
  H   H561      1.0  0.78027  0.20126  0.00364  1.0000
  Fe  Fe69      1.0  0.72179  0.01243  0.22485  1.0000
  H   H562      1.0  0.57418  0.11016  0.01553  1.0000
  C   C349      1.0  0.67340  0.14959  0.12998  1.0000
  C   C350      1.0  0.78529  0.18321  0.01911  1.0000
  C   C351      1.0  0.54725  0.10448  0.01748  1.0000
  N   N35       1.0  0.75191  0.14983  0.03580  1.0000
  Fe  Fe70      1.0  0.88494  0.21513  0.01623  1.0000
  C   C352      1.0  0.69645  0.11218  0.13639  1.0000
  S   S139      1.0  0.86053  0.19234  0.06904  1.0000
  C   C353      1.0  0.86239  0.08613  0.02096  1.0000
  S   S140      1.0  0.74080  0.47915  0.18876  1.0000
  H   H563      1.0  0.53110  0.08359  0.00247  1.0000
  H   H564      1.0  0.94001  0.12060  0.20381  1.0000
  H   H565      1.0  0.83120  0.21223  0.14882  1.0000
  C   C354      1.0  0.76015  0.12771  0.05724  1.0000
  H   H566      1.0  0.78433  0.18717  0.14700  1.0000
  N   N36       1.0  0.87622  0.10009  0.05090  1.0000
  S   S141      1.0  0.75157  0.03256  0.13190  1.0000
  H   H567      1.0  0.57050  0.18919  0.02156  1.0000
  C   C355      1.0  0.91064  0.13580  0.04260  1.0000
  S   S142      1.0  0.76850  0.06678  0.19935  1.0000
  H   H568      1.0  0.70616  0.13492  0.06715  1.0000
  Fe  Fe71      1.0  0.73394  0.06047  0.16014  1.0000
  S   S143      1.0  0.73332  0.10994  0.14239  1.0000
  Fe  Fe72      1.0  0.78285  0.03537  0.17343  1.0000
  S   S144      1.0  0.83605  0.04183  0.17175  1.0000
  H   H569      1.0  0.60592  0.38277  0.17560  1.0000
  H   H570      1.0  0.92883  0.16950  0.12454  1.0000
  H   H571      1.0  0.57642  0.40051  0.22994  1.0000
  H   H572      1.0  0.55910  0.29216  0.07237  1.0000
  H   H573      1.0  0.59670  0.17131  0.02773  1.0000
  H   H574      1.0  0.72228  0.14438  0.99575  1.0000
  S   S145      1.0  0.94962  0.23934  0.18820  1.0000
  Fe  Fe73      1.0  0.71078  0.48356  0.14986  1.0000
  C   C356      1.0  0.92379  0.22659  0.15570  1.0000
  C   C357      1.0  0.93683  0.25018  0.12564  1.0000
  C   C358      1.0  0.91819  0.23982  0.09864  1.0000
  C   C359      1.0  0.88580  0.20606  0.10174  1.0000
  C   C360      1.0  0.87228  0.18290  0.13198  1.0000
  C   C361      1.0  0.89124  0.19297  0.15881  1.0000
  H   H575      1.0  0.96143  0.27666  0.12329  1.0000
  H   H576      1.0  0.92844  0.25823  0.07564  1.0000
  H   H577      1.0  0.84734  0.15664  0.13447  1.0000
  H   H578      1.0  0.88112  0.17431  0.18162  1.0000
  C   C362      1.0  0.95015  0.13770  0.12970  1.0000
  C   C363      1.0  0.94221  0.10327  0.14110  1.0000
  C   C364      1.0  0.90749  0.07458  0.15519  1.0000
  C   C365      1.0  0.88022  0.07978  0.15775  1.0000
  C   C366      1.0  0.88848  0.11441  0.14752  1.0000
  C   C367      1.0  0.92311  0.14308  0.13331  1.0000
  H   H579      1.0  0.96247  0.09839  0.13810  1.0000
  H   H580      1.0  0.90148  0.04786  0.16301  1.0000
  H   H581      1.0  0.86785  0.11876  0.14980  1.0000
  H   H582      1.0  0.85552  0.04778  0.07951  1.0000
  H   H583      1.0  0.74711  0.17378  0.07492  1.0000
  C   C368      1.0  0.99344  0.19023  0.20205  1.0000
  H   H584      1.0  0.72657  0.17722  0.04016  1.0000
  H   H585      1.0  0.92187  0.14703  0.06466  1.0000
  H   H586      1.0  0.89344  0.08509  0.09276  1.0000
  H   H587      1.0  0.86103  0.11581  0.09102  1.0000
  H   H588      1.0  0.90799  0.15587  0.02739  1.0000
  C   C369      1.0  0.59457  0.36361  0.19919  1.0000
  H   H589      1.0  0.73562  0.10260  0.07082  1.0000
  C   C370      1.0  0.69971  0.14450  0.13893  1.0000
  H   H590      1.0  0.77563  0.21779  0.18681  1.0000
  C   C371      1.0  0.73215  0.15945  0.05536  1.0000
  C   C372      1.0  0.76484  0.15414  0.21029  1.0000
  C   C373      1.0  0.82789  0.19103  0.21173  1.0000
  H   H591      1.0  0.51518  0.31545  0.03879  1.0000
  C   C374      1.0  0.80496  0.18792  0.16055  1.0000
  N   N37       1.0  0.79877  0.18811  0.19531  1.0000
  H   H592      1.0  0.72310  0.16623  0.14707  1.0000
  H   H593      1.0  0.99530  0.28441  0.06537  1.0000
  H   H594      1.0  0.84580  0.12228  0.05404  1.0000
  H   H595      1.0  0.93053  0.13410  0.02875  1.0000
  S   S146      1.0  0.67175  0.43651  0.12544  1.0000
  H   H596      1.0  0.76507  0.13006  0.20846  1.0000
  H   H597      1.0  0.70415  0.40748  0.16502  1.0000
  H   H598      1.0  0.82491  0.07735  0.07696  1.0000
  H   H599      1.0  0.77697  0.14285  0.07565  1.0000
  H   H600      1.0  0.67682  0.17497  0.13129  1.0000
  S   S147      1.0  0.94015  0.23803  0.99381  1.0000
  C   C375      1.0  0.73011  0.12898  0.01150  1.0000
  N   N38       1.0  0.54883  0.13771  0.00697  1.0000
  C   C376      1.0  0.85079  0.10390  0.06903  1.0000
  H   H601      1.0  0.80311  0.19882  0.03675  1.0000
  H   H602      1.0  0.77484  0.11980  0.04320  1.0000
  C   C377      1.0  0.64890  0.39863  0.22247  1.0000
  H   H603      1.0  0.88113  0.08328  0.00651  1.0000
  C   C378      1.0  0.54124  0.27623  0.05494  1.0000
  H   H604      1.0  0.99802  0.14291  0.17429  1.0000
  H   H605      1.0  0.98188  0.18565  0.17878  1.0000
  H   H606      1.0  0.97927  0.19788  0.21722  1.0000
  H   H607      1.0  0.65415  0.37762  0.22179  1.0000
  N   N39       1.0  0.61054  0.38257  0.22649  1.0000
  C   C379      1.0  0.51249  0.12862  0.00889  1.0000
  H   H608      1.0  0.51258  0.15298  0.00068  1.0000
  Fe  Fe74      1.0  0.53435  0.03106  0.35598  1.0000
  H   H609      1.0  0.84672  0.08119  0.30135  1.0000
  H   H610      1.0  0.55903  0.06284  0.43230  1.0000
  H   H611      1.0  0.68345  0.02202  0.37163  1.0000
  H   H612      1.0  0.00668  0.14217  0.26142  1.0000
  S   S148      1.0  0.56108  0.01207  0.38801  1.0000
  H   H613      1.0  0.80012  0.03229  0.23547  1.0000
  H   H614      1.0  0.56763  0.41932  0.36426  1.0000
  H   H615      1.0  0.56462  0.34379  0.26112  1.0000
  Fe  Fe75      1.0  0.60523  0.03990  0.34669  1.0000
  S   S149      1.0  0.66028  0.07782  0.36009  1.0000
  H   H616      1.0  0.80590  0.04149  0.32188  1.0000
  H   H617      1.0  0.78318  0.12301  0.40153  1.0000
  S   S150      1.0  0.57984  0.06109  0.31606  1.0000
  H   H618      1.0  0.63174  0.20080  0.26389  1.0000
  H   H619      1.0  0.99305  0.37887  0.31306  1.0000
  C   C380      1.0  0.54191  0.14768  0.27987  1.0000
  C   C381      1.0  0.60779  0.39478  0.41712  1.0000
  H   H620      1.0  0.84006  0.48339  0.39804  1.0000
  H   H621      1.0  0.58216  0.16325  0.32833  1.0000
  H   H622      1.0  0.60498  0.37000  0.27850  1.0000
  H   H623      1.0  0.67027  0.05949  0.29848  1.0000
  H   H624      1.0  0.66702  0.45229  0.33548  1.0000
  H   H625      1.0  0.62460  0.01843  0.41297  1.0000
  H   H626      1.0  0.60298  0.21191  0.27973  1.0000
  H   H627      1.0  0.59727  0.33426  0.25789  1.0000
  C   C382      1.0  0.61487  0.45205  0.40515  1.0000
  H   H628      1.0  0.98872  0.02448  0.41376  1.0000
  C   C383      1.0  0.58043  0.40576  0.37330  1.0000
  N   N40       1.0  0.59032  0.41263  0.40610  1.0000
  H   H629      1.0  0.00087  0.01675  0.45276  1.0000
  C   C384      1.0  0.58419  0.14700  0.31180  1.0000
  H   H630      1.0  0.57459  0.13757  0.23310  1.0000
  H   H631      1.0  0.93840  0.13389  0.24167  1.0000
  H   H632      1.0  0.61086  0.15228  0.31191  1.0000
  C   C385      1.0  0.55660  0.05292  0.45864  1.0000
  H   H633      1.0  0.56445  0.11801  0.32254  1.0000
  H   H634      1.0  0.61539  0.39918  0.44196  1.0000
  C   C386      1.0  0.58016  0.13262  0.25805  1.0000
  S   S151      1.0  0.69813  0.99956  0.27716  1.0000
  C   C387      1.0  0.55807  0.39801  0.42877  1.0000
  N   N41       1.0  0.57769  0.15535  0.27868  1.0000
  H   H635      1.0  0.60689  0.13792  0.25612  1.0000
  H   H636      1.0  0.60228  0.46624  0.39742  1.0000
  H   H637      1.0  0.86924  0.13045  0.44495  1.0000
  H   H638      1.0  0.60393  0.41610  0.35547  1.0000
  H   H639      1.0  0.63923  0.46434  0.38770  1.0000
  H   H640      1.0  0.53269  0.41263  0.31039  1.0000
  C   C388      1.0  0.80555  0.04460  0.25768  1.0000
  H   H641      1.0  0.87564  0.07834  0.25150  1.0000
  H   H642      1.0  0.63151  0.00071  0.45048  1.0000
  C   C389      1.0  0.72570  0.00370  0.33463  1.0000
  H   H643      1.0  0.82399  0.19125  0.23802  1.0000
  C   C390      1.0  0.60441  0.19398  0.26497  1.0000
  H   H644      1.0  0.62335  0.45841  0.42934  1.0000
  S   S152      1.0  0.51754  0.06416  0.37620  1.0000
  H   H645      1.0  0.84652  0.04463  0.32351  1.0000
  S   S153      1.0  0.57910  0.48615  0.32275  1.0000
  H   H646      1.0  0.81519  0.12118  0.37792  1.0000
  H   H647      1.0  0.78832  0.12873  0.45946  1.0000
  H   H648      1.0  0.68611  0.08566  0.47178  1.0000
  H   H649      1.0  0.56436  0.40232  0.45387  1.0000
  H   H650      1.0  0.56062  0.10329  0.26785  1.0000
  H   H651      1.0  0.75937  0.15339  0.23656  1.0000
  S   S154      1.0  0.99886  0.40833  0.37451  1.0000
  H   H652      1.0  0.63238  0.40540  0.40066  1.0000
  H   H653      1.0  0.66191  0.41316  0.24265  1.0000
  H   H654      1.0  0.60042  0.20096  0.23975  1.0000
  C   C391      1.0  0.01175  0.07645  0.47229  1.0000
  C   C392      1.0  0.00338  0.03788  0.43386  1.0000
  H   H655      1.0  0.96310  0.34083  0.41578  1.0000
  C   C393      1.0  0.64123  0.01044  0.42408  1.0000
  C   C394      1.0  0.84796  0.17082  0.41661  1.0000
  H   H656      1.0  0.73396  0.12297  0.36748  1.0000
  Fe  Fe76      1.0  0.85440  0.15662  0.28232  1.0000
  S   S155      1.0  0.88860  0.21728  0.26881  1.0000
  S   S156      1.0  0.79765  0.11861  0.27337  1.0000
  Fe  Fe77      1.0  0.91771  0.15194  0.29422  1.0000
  S   S157      1.0  0.95714  0.21245  0.28107  1.0000
  S   S158      1.0  0.92250  0.10429  0.30621  1.0000
  Fe  Fe78      1.0  0.91735  0.21558  0.31059  1.0000
  S   S159      1.0  0.92717  0.24551  0.35277  1.0000
  H   H657      1.0  0.87595  0.04235  0.27413  1.0000
  S   S160      1.0  0.69192  0.46798  0.46419  1.0000
  S   S161      1.0  0.87977  0.15479  0.32638  1.0000
  S   S162      1.0  0.88945  0.14967  0.25079  1.0000
  C   C395      1.0  0.83141  0.05121  0.30753  1.0000
  C   C396      1.0  0.85026  0.11877  0.42693  1.0000
  C   C397      1.0  0.69842  0.09002  0.33527  1.0000
  H   H658      1.0  0.54445  0.41121  0.42124  1.0000
  C   C398      1.0  0.80674  0.12026  0.45899  1.0000
  H   H659      1.0  0.86771  0.18459  0.43355  1.0000
  C   C399      1.0  0.71321  0.47834  0.36050  1.0000
  C   C400      1.0  0.73192  0.11266  0.34517  1.0000
  S   S163      1.0  0.69081  0.48066  0.26763  1.0000
  C   C401      1.0  0.69540  0.47156  0.33284  1.0000
  H   H660      1.0  0.79037  0.09033  0.46710  1.0000
  H   H661      1.0  0.94985  0.10251  0.23938  1.0000
  C   C402      1.0  0.51431  0.38380  0.31837  1.0000
  H   H662      1.0  0.59005  0.36499  0.41801  1.0000
  C   C403      1.0  0.71420  0.48961  0.30172  1.0000
  H   H663      1.0  0.83514  0.08883  0.43383  1.0000
  H   H664      1.0  0.53789  0.16188  0.29738  1.0000
  Fe  Fe79      1.0  0.52854  0.46056  0.35537  1.0000
  H   H665      1.0  0.69858  0.46444  0.38437  1.0000
  N   N42       1.0  0.99003  0.05726  0.44726  1.0000
  H   H666      1.0  0.78848  0.13973  0.33389  1.0000
  H   H667      1.0  0.78429  0.08405  0.40953  1.0000
  C   C404      1.0  0.80123  0.11407  0.40277  1.0000
  H   H668      1.0  0.86608  0.12687  0.40285  1.0000
  H   H669      1.0  0.53719  0.15644  0.25576  1.0000
  C   C405      1.0  0.99231  0.08379  0.42106  1.0000
  C   C406      1.0  0.98006  0.36436  0.36514  1.0000
  C   C407      1.0  0.98059  0.35690  0.33361  1.0000
  C   C408      1.0  0.96458  0.32063  0.32879  1.0000
  C   C409      1.0  0.94820  0.29196  0.35552  1.0000
  C   C410      1.0  0.94812  0.29991  0.38667  1.0000
  C   C411      1.0  0.96377  0.33556  0.39140  1.0000
  H   H670      1.0  0.77977  0.03553  0.27100  1.0000
  H   H671      1.0  0.96488  0.31491  0.30456  1.0000
  H   H672      1.0  0.93571  0.27824  0.40748  1.0000
  C   C412      1.0  0.85981  0.04855  0.25938  1.0000
  H   H673      1.0  0.56116  0.37633  0.37313  1.0000
  C   C413      1.0  0.97904  0.06172  0.32433  1.0000
  C   C414      1.0  0.95341  0.06749  0.31464  1.0000
  C   C415      1.0  0.95669  0.09963  0.31783  1.0000
  C   C416      1.0  0.98627  0.12625  0.33054  1.0000
  H   H674      1.0  0.66860  0.03554  0.42160  1.0000
  S   S164      1.0  0.74168  0.43646  0.46732  1.0000
  H   H675      1.0  0.93074  0.04668  0.30482  1.0000
  H   H676      1.0  0.98925  0.15116  0.33316  1.0000
  H   H677      1.0  0.72944  0.02963  0.33295  1.0000
  C   C417      1.0  0.76012  0.10870  0.29752  1.0000
  C   C418      1.0  0.76276  0.12210  0.32629  1.0000
  C   C419      1.0  0.01182  0.12033  0.34047  1.0000
  S   S165      1.0  0.76673  0.01624  0.45119  1.0000
  N   N43       1.0  0.82654  0.13097  0.42633  1.0000
  H   H678      1.0  0.57077  0.03962  0.46133  1.0000
  N   N44       1.0  0.82551  0.03492  0.27799  1.0000
  H   H679      1.0  0.97570  0.03656  0.32217  1.0000
  H   H680      1.0  0.99306  0.17161  0.26634  1.0000
  C   C420      1.0  0.69590  0.07702  0.30633  1.0000
  S   S166      1.0  0.54764  0.00506  0.24641  1.0000
  H   H681      1.0  0.86308  0.17980  0.39195  1.0000
  H   H682      1.0  0.83111  0.18119  0.41602  1.0000
  H   H683      1.0  0.85609  0.03644  0.23709  1.0000
  H   H684      1.0  0.72453  0.07624  0.26513  1.0000
  H   H685      1.0  0.74289  0.00470  0.38206  1.0000
  C   C421      1.0  0.72670  0.08651  0.28748  1.0000
  Fe  Fe80      1.0  0.74558  0.48546  0.44209  1.0000
  H   H686      1.0  0.52090  0.11819  0.28717  1.0000
  H   H687      1.0  0.53856  0.36843  0.42956  1.0000
  H   H688      1.0  0.98308  0.09941  0.43037  1.0000
  S   S167      1.0  0.70262  0.03311  0.47996  1.0000
  H   H689      1.0  0.82053  0.07442  0.24972  1.0000
  C   C422      1.0  0.65574  0.99757  0.37409  1.0000
  H   H690      1.0  0.97577  0.07016  0.40198  1.0000
  C   C423      1.0  0.00825  0.08790  0.33768  1.0000
  Fe  Fe81      1.0  0.92537  0.20984  0.24005  1.0000
  H   H691      1.0  0.93608  0.01452  0.44395  1.0000
  C   C424      1.0  0.59366  0.35654  0.25738  1.0000
  H   H692      1.0  0.64063  0.00607  0.36063  1.0000
  C   C425      1.0  0.52997  0.02950  0.23474  1.0000
  H   H693      1.0  0.94108  0.04499  0.46997  1.0000
  C   C426      1.0  0.95270  0.03100  0.46175  1.0000
  C   C427      1.0  0.00700  0.16553  0.24903  1.0000
  Fe  Fe82      1.0  0.55259  0.00801  0.29868  1.0000
  H   H694      1.0  0.85327  0.47748  0.45565  1.0000
  H   H695      1.0  0.53049  0.37062  0.27677  1.0000
  H   H696      1.0  0.57099  0.07708  0.47057  1.0000
  N   N45       1.0  0.51907  0.02792  0.47303  1.0000
  H   H697      1.0  0.82493  0.13247  0.47746  1.0000
  H   H698      1.0  0.68399  0.34690  0.47604  1.0000
  H   H699      1.0  0.51337  0.12453  0.37960  1.0000
  H   H700      1.0  0.61719  0.42674  0.24699  1.0000
  C   C428      1.0  0.51300  0.35987  0.29925  1.0000
  C   C429      1.0  0.64547  0.06993  0.51067  1.0000
  Fe  Fe83      1.0  0.54992  0.11398  0.61305  1.0000
  H   H701      1.0  0.95870  0.08164  0.68241  1.0000
  H   H702      1.0  0.71082  0.30805  0.53761  1.0000
  Fe  Fe84      1.0  0.58898  0.16232  0.54782  1.0000
  S   S168      1.0  0.56723  0.11509  0.52113  1.0000
  S   S169      1.0  0.63103  0.21911  0.51981  1.0000
  H   H703      1.0  0.90675  0.07553  0.61442  1.0000
  Fe  Fe85      1.0  0.57985  0.08954  0.56272  1.0000
  S   S170      1.0  0.59161  0.04697  0.56078  1.0000
  S   S171      1.0  0.53553  0.14114  0.57414  1.0000
  S   S172      1.0  0.60466  0.13787  0.58824  1.0000
  C   C430      1.0  0.54796  0.10726  0.70032  1.0000
  C   C431      1.0  0.58192  0.11480  0.69857  1.0000
  H   H704      1.0  0.78123  0.39049  0.56694  1.0000
  H   H705      1.0  0.59628  0.12020  0.67519  1.0000
  H   H706      1.0  0.94725  0.08533  0.59479  1.0000
  C   C432      1.0  0.62359  0.04461  0.53835  1.0000
  C   C433      1.0  0.63146  0.25870  0.51527  1.0000
  C   C434      1.0  0.60551  0.26000  0.53193  1.0000
  H   H707      1.0  0.96130  0.03474  0.66154  1.0000
  H   H708      1.0  0.58366  0.23591  0.54753  1.0000
  C   C435      1.0  0.60792  0.29263  0.52843  1.0000
  C   C436      1.0  0.95350  0.04147  0.63834  1.0000
  H   H709      1.0  0.86804  0.46589  0.55142  1.0000
  C   C437      1.0  0.87661  0.49356  0.54376  1.0000
  H   H710      1.0  0.53067  0.03877  0.52120  1.0000
  H   H711      1.0  0.64379  0.09244  0.50264  1.0000
  C   C438      1.0  0.63648  0.32434  0.50866  1.0000
  Fe  Fe86      1.0  0.51485  0.09183  0.55093  1.0000
  S   S173      1.0  0.63885  0.36500  0.50532  1.0000
  C   C439      1.0  0.65047  0.01174  0.53103  1.0000
  H   H712      1.0  0.58767  0.29334  0.54134  1.0000
  C   C440      1.0  0.90262  0.01514  0.53576  1.0000
  Fe  Fe87      1.0  0.76719  0.46918  0.50649  1.0000
  S   S174      1.0  0.96919  0.04271  0.55248  1.0000
  S   S175      1.0  0.71527  0.45062  0.53419  1.0000
  S   S176      1.0  0.80865  0.46368  0.52894  1.0000
  C   C441      1.0  0.88235  0.05057  0.51053  1.0000
  C   C442      1.0  0.91582  0.08225  0.51195  1.0000
  C   C443      1.0  0.94256  0.08045  0.52528  1.0000
  C   C444      1.0  0.93612  0.04680  0.53701  1.0000
  C   C445      1.0  0.67237  0.03706  0.50341  1.0000
  N   N46       1.0  0.72598  0.34856  0.56743  1.0000
  H   H713      1.0  0.96821  0.10506  0.52606  1.0000
  H   H714      1.0  0.93588  0.09899  0.66267  1.0000
  H   H715      1.0  0.76893  0.34522  0.58040  1.0000
  H   H716      1.0  0.72000  0.33366  0.61923  1.0000
  H   H717      1.0  0.68776  0.34062  0.60456  1.0000
  C   C446      1.0  0.66228  0.32295  0.49188  1.0000
  Fe  Fe88      1.0  0.69031  0.42130  0.49299  1.0000
  C   C447      1.0  0.71609  0.35048  0.60062  1.0000
  H   H718      1.0  0.88129  0.03624  0.66907  1.0000
  H   H719      1.0  0.58284  0.47673  0.60237  1.0000
  H   H720      1.0  0.88297  0.00192  0.65395  1.0000
  C   C448      1.0  0.89854  0.02685  0.66479  1.0000
  C   C449      1.0  0.70367  0.31064  0.56223  1.0000
  H   H721      1.0  0.73234  0.37884  0.60519  1.0000
  C   C450      1.0  0.92285  0.06457  0.61178  1.0000
  H   H722      1.0  0.95018  0.01215  0.48322  1.0000
  H   H723      1.0  0.55985  0.48024  0.65449  1.0000
  H   H724      1.0  0.92112  0.10837  0.50258  1.0000
  C   C451      1.0  0.72049  0.37141  0.54373  1.0000
  H   H725      1.0  0.93952  0.01697  0.62675  1.0000
  C   C452      1.0  0.87582  0.01697  0.52269  1.0000
  S   S177      1.0  0.52655  0.06403  0.59116  1.0000
  H   H726      1.0  0.70645  0.29234  0.58010  1.0000
  S   S178      1.0  0.52741  0.10664  0.66504  1.0000
  H   H727      1.0  0.67508  0.30004  0.56445  1.0000
  C   C453      1.0  0.65965  0.29027  0.49506  1.0000
  H   H728      1.0  0.90748  0.04049  0.59984  1.0000
  H   H729      1.0  0.90422  0.01910  0.68884  1.0000
  H   H730      1.0  0.97839  0.06206  0.62207  1.0000
  C   C454      1.0  0.76370  0.36191  0.56310  1.0000
  H   H731      1.0  0.69244  0.36257  0.54646  1.0000
  H   H732      1.0  0.72748  0.37052  0.51838  1.0000
  H   H733      1.0  0.77212  0.36138  0.53809  1.0000
  Fe  Fe89      1.0  0.79299  0.00670  0.49148  1.0000
  H   H734      1.0  0.73723  0.40019  0.54684  1.0000
  C   C455      1.0  0.62613  0.01541  0.54820  1.0000
  N   N47       1.0  0.93157  0.05516  0.64339  1.0000
  C   C456      1.0  0.66951  0.06600  0.49323  1.0000
  H   H735      1.0  0.97673  0.10948  0.64316  1.0000
  H   H736      1.0  0.61576  0.48370  0.65049  1.0000
  H   H737      1.0  0.53003  0.00119  0.51206  1.0000
  C   C457      1.0  0.95145  0.08771  0.65859  1.0000
  S   S179      1.0  0.84996  0.05426  0.49267  1.0000
  H   H738      1.0  0.62375  0.12150  0.72547  1.0000
  C   C458      1.0  0.59744  0.11555  0.72715  1.0000
  C   C459      1.0  0.51705  0.01563  0.50797  1.0000
  H   H739      1.0  0.51366  0.07039  0.48153  1.0000
  H   H740      1.0  0.01134  0.05735  0.49210  1.0000
  H   H741      1.0  0.00185  0.09055  0.48361  1.0000
  C   C460      1.0  0.52967  0.10023  0.73097  1.0000
  H   H742      1.0  0.67965  0.28943  0.48183  1.0000
  S   S180      1.0  0.52409  0.05288  0.87345  1.0000
  H   H743      1.0  0.73602  0.17771  0.85566  1.0000
  C   C461      1.0  0.56643  0.15383  0.97322  1.0000
  H   H744      1.0  0.54154  0.22773  0.91454  1.0000
  Fe  Fe90      1.0  0.61093  0.12163  0.90836  1.0000
  S   S181      1.0  0.60695  0.08199  0.87908  1.0000
  Fe  Fe91      1.0  0.53365  0.09495  0.90361  1.0000
  Fe  Fe92      1.0  0.55376  0.04087  0.90829  1.0000
  Fe  Fe93      1.0  0.57791  0.09715  0.84618  1.0000
  S   S182      1.0  0.60048  0.11064  0.79286  1.0000
  S   S183      1.0  0.55979  0.07975  0.94009  1.0000
  S   S184      1.0  0.58534  0.13992  0.87389  1.0000
  C   C462      1.0  0.57918  0.10854  0.75780  1.0000
  C   C463      1.0  0.54512  0.10076  0.75958  1.0000
  H   H745      1.0  0.93871  0.09673  0.96144  1.0000
  H   H746      1.0  0.53079  0.09539  0.78296  1.0000
  C   C464      1.0  0.67822  0.17236  0.83790  1.0000
  H   H747      1.0  0.95400  0.45079  0.85159  1.0000
  H   H748      1.0  0.54816  0.42636  0.93274  1.0000
  S   S185      1.0  0.65994  0.16403  0.92906  1.0000
  H   H749      1.0  0.67501  0.16218  0.86419  1.0000
  H   H750      1.0  0.74919  0.21592  0.82522  1.0000
  H   H751      1.0  0.68913  0.20162  0.83498  1.0000
  C   C465      1.0  0.73699  0.18631  0.82931  1.0000
  H   H752      1.0  0.68405  0.11657  0.85091  1.0000
  H   H753      1.0  0.65128  0.15825  0.83027  1.0000
  S   S186      1.0  0.90821  0.22771  0.92313  1.0000
  S   S187      1.0  0.97627  0.32731  0.93256  1.0000
  H   H754      1.0  0.72889  0.21792  0.94451  1.0000
  H   H755      1.0  0.70280  0.12115  0.81081  1.0000
  H   H756      1.0  0.67805  0.11475  0.91415  1.0000
  C   C466      1.0  0.98323  0.36939  0.93563  1.0000
  C   C467      1.0  0.95773  0.37160  0.95191  1.0000
  C   C468      1.0  0.96436  0.40569  0.95334  1.0000
  C   C469      1.0  0.99151  0.43828  0.81132  1.0000
  C   C470      1.0  0.99650  0.43787  0.93864  1.0000
  H   H757      1.0  0.55106  0.13528  0.95621  1.0000
  C   C471      1.0  0.73326  0.14095  0.92066  1.0000
  H   H758      1.0  0.72061  0.17422  0.76901  1.0000
  C   C472      1.0  0.96162  0.15256  0.94099  1.0000
  C   C473      1.0  0.98765  0.11965  0.93060  1.0000
  N   N48       1.0  0.70125  0.16606  0.81900  1.0000
  H   H759      1.0  0.93291  0.34707  0.96333  1.0000
  C   C474      1.0  0.99012  0.18340  0.92074  1.0000
  C   C475      1.0  0.68622  0.12697  0.82478  1.0000
  C   C476      1.0  0.69954  0.16606  0.92916  1.0000
  C   C477      1.0  0.70134  0.13836  0.92056  1.0000
  C   C478      1.0  0.76369  0.17106  0.92956  1.0000
  C   C479      1.0  0.76196  0.19885  0.93808  1.0000
  C   C480      1.0  0.72998  0.19626  0.93796  1.0000
  H   H760      1.0  0.78530  0.22247  0.94441  1.0000
  H   H761      1.0  0.98150  0.49150  0.79830  1.0000
  Fe  Fe94      1.0  0.85496  0.20545  0.95069  1.0000
  S   S188      1.0  0.80280  0.17220  0.92948  1.0000
  H   H762      1.0  0.73429  0.11926  0.91410  1.0000
  H   H763      1.0  0.99123  0.20803  0.91675  1.0000
  C   C481      1.0  0.96066  0.12078  0.94590  1.0000
  H   H764      1.0  0.54171  0.17502  0.90469  1.0000
  H   H765      1.0  0.94442  0.40712  0.96591  1.0000
  C   C482      1.0  0.51861  0.20053  0.92374  1.0000
  C   C483      1.0  0.52473  0.45235  0.91073  1.0000
  Fe  Fe95      1.0  0.92986  0.27004  0.95557  1.0000
  C   C484      1.0  0.70345  0.17853  0.78409  1.0000
  Fe  Fe96      1.0  0.91549  0.19495  0.96269  1.0000
  H   H766      1.0  0.98632  0.09491  0.93443  1.0000
  H   H767      1.0  0.71423  0.20780  0.77887  1.0000
  H   H768      1.0  0.65915  0.11087  0.81737  1.0000
  H   H769      1.0  0.75506  0.18189  0.81589  1.0000
  C   C485      1.0  0.98086  0.45954  0.85723  1.0000
  H   H770      1.0  0.67677  0.16348  0.77572  1.0000
  C   C486      1.0  0.52496  0.42222  0.92295  1.0000
  H   H771      1.0  0.97786  0.43684  0.87430  1.0000
  H   H772      1.0  0.96479  0.42827  0.80428  1.0000
  S   S189      1.0  0.00303  0.48001  0.94028  1.0000
  H   H773      1.0  0.98923  0.41545  0.82756  1.0000
  H   H774      1.0  0.56893  0.17951  0.96495  1.0000
  S   S190      1.0  0.92638  0.15184  0.96061  1.0000
  N   N49       1.0  0.00516  0.46992  0.82754  1.0000
  C   C487      1.0  0.51880  0.17070  0.91815  1.0000
  S   S191      1.0  0.87586  0.24990  0.98045  1.0000
  H   H775      1.0  0.59351  0.15987  0.97055  1.0000
  H   H776      1.0  0.99079  0.48246  0.87065  1.0000
  H   H777      1.0  0.00938  0.44517  0.78893  1.0000
  C   C488      1.0  0.66286  0.89479  0.13498  1.0000
  S   S192      1.0  0.63379  0.71224  0.13737  1.0000
  H   H778      1.0  0.69174  0.81176  0.15843  1.0000
  C   C489      1.0  0.97435  0.60223  0.20492  1.0000
  S   S193      1.0  0.62186  0.63417  0.09106  1.0000
  Fe  Fe97      1.0  0.62373  0.74790  0.10459  1.0000
  S   S194      1.0  0.60197  0.70998  0.06831  1.0000
  Fe  Fe98      1.0  0.57852  0.68709  0.16040  1.0000
  S   S195      1.0  0.55215  0.64431  0.12966  1.0000
  Fe  Fe99      1.0  0.60738  0.67204  0.10405  1.0000
  Fe  Fe100     1.0  0.54862  0.68483  0.09731  1.0000
  S   S196      1.0  0.57036  0.72566  0.13065  1.0000
  C   C490      1.0  0.63148  0.86147  0.13248  1.0000
  H   H779      1.0  0.80169  0.55073  0.06133  1.0000
  H   H780      1.0  0.60617  0.85645  0.14004  1.0000
  C   C491      1.0  0.66512  0.84110  0.10981  1.0000
  C   C492      1.0  0.63255  0.83472  0.12002  1.0000
  S   S197      1.0  0.65980  0.92734  0.15090  1.0000
  H   H781      1.0  0.52026  0.78469  0.05686  1.0000
  C   C493      1.0  0.55947  0.76194  0.03709  1.0000
  H   H782      1.0  0.62937  0.93669  0.22421  1.0000
  Fe  Fe101     1.0  0.70590  0.98045  0.16279  1.0000
  H   H783      1.0  0.62691  0.57338  0.09878  1.0000
  C   C494      1.0  0.82197  0.72432  0.22487  1.0000
  S   S198      1.0  0.56459  0.67117  0.21397  1.0000
  H   H784      1.0  0.60691  0.94382  0.19327  1.0000
  H   H785      1.0  0.81692  0.65780  0.19102  1.0000
  C   C495      1.0  0.65127  0.62659  0.11077  1.0000
  S   S199      1.0  0.66776  0.80797  0.09450  1.0000
  H   H786      1.0  0.86466  0.75947  0.16979  1.0000
  N   N50       1.0  0.95355  0.61020  0.22510  1.0000
  H   H787      1.0  0.78223  0.69986  0.00479  1.0000
  H   H788      1.0  0.53587  0.63699  0.06182  1.0000
  C   C496      1.0  0.53644  0.61473  0.05441  1.0000
  H   H789      1.0  0.98815  0.74894  0.06132  1.0000
  H   H790      1.0  0.54741  0.75076  0.06290  1.0000
  C   C497      1.0  0.55438  0.78449  0.98373  1.0000
  C   C498      1.0  0.58362  0.59583  0.20540  1.0000
  H   H791      1.0  0.89827  0.61545  0.04105  1.0000
  H   H792      1.0  0.69135  0.61595  0.20464  1.0000
  H   H793      1.0  0.93312  0.64269  0.22018  1.0000
  C   C499      1.0  0.58295  0.62637  0.19929  1.0000
  N   N51       1.0  0.52641  0.60965  0.02146  1.0000
  H   H794      1.0  0.60819  0.80940  0.11795  1.0000
  H   H795      1.0  0.59545  0.58990  0.18674  1.0000
  H   H796      1.0  0.59459  0.64368  0.17602  1.0000
  H   H797      1.0  0.90643  0.58451  0.02809  1.0000
  H   H798      1.0  0.73602  0.63972  0.98857  1.0000
  H   H799      1.0  0.57963  0.65048  0.99861  1.0000
  C   C500      1.0  0.64832  0.59415  0.10982  1.0000
  H   H800      1.0  0.55968  0.82157  0.03111  1.0000
  C   C501      1.0  0.55218  0.64313  0.99813  1.0000
  H   H801      1.0  0.67048  0.56348  0.12156  1.0000
  H   H802      1.0  0.56362  0.62155  0.05577  1.0000
  H   H803      1.0  0.66847  0.84275  0.18203  1.0000
  H   H804      1.0  0.71961  0.59878  0.01646  1.0000
  H   H805      1.0  0.81746  0.54945  0.00501  1.0000
  C   C502      1.0  0.67307  0.58849  0.12268  1.0000
  H   H806      1.0  0.63038  0.53598  0.21966  1.0000
  H   H807      1.0  0.76876  0.68150  0.19152  1.0000
  H   H808      1.0  0.71410  0.81383  0.19313  1.0000
  H   H809      1.0  0.85307  0.59639  0.00158  1.0000
  C   C503      1.0  0.53353  0.79560  0.03135  1.0000
  H   H810      1.0  0.81188  0.50427  0.04929  1.0000
  H   H811      1.0  0.86216  0.56524  0.99125  1.0000
  C   C504      1.0  0.62569  0.77024  0.19038  1.0000
  H   H812      1.0  0.83932  0.59662  0.05988  1.0000
  C   C505      1.0  0.67916  0.65322  0.12505  1.0000
  H   H813      1.0  0.80805  0.68265  0.01519  1.0000
  H   H814      1.0  0.92186  0.66390  0.09040  1.0000
  H   H815      1.0  0.72182  0.87977  0.10406  1.0000
  Fe  Fe102     1.0  0.88066  0.70795  0.02144  1.0000
  H   H816      1.0  0.55336  0.58476  0.01267  1.0000
  S   S200      1.0  0.85164  0.68695  0.07244  1.0000
  H   H817      1.0  0.52351  0.70166  0.19611  1.0000
  H   H818      1.0  0.72792  0.59343  0.22053  1.0000
  C   C506      1.0  0.84563  0.56831  0.00865  1.0000
  H   H819      1.0  0.62746  0.78318  0.16541  1.0000
  H   H820      1.0  0.90334  0.56290  0.21855  1.0000
  S   S201      1.0  0.98902  0.67320  0.08272  1.0000
  H   H821      1.0  0.58654  0.78689  0.03657  1.0000
  H   H822      1.0  0.67228  0.55492  0.19671  1.0000
  S   S202      1.0  0.75630  0.53957  0.12480  1.0000
  H   H823      1.0  0.55431  0.94506  0.20983  1.0000
  S   S203      1.0  0.73791  0.98110  0.20209  1.0000
  S   S204      1.0  0.76822  0.56139  0.19793  1.0000
  H   H824      1.0  0.69928  0.62366  0.05451  1.0000
  Fe  Fe103     1.0  0.73563  0.56075  0.15858  1.0000
  S   S205      1.0  0.73518  0.61138  0.15026  1.0000
  Fe  Fe104     1.0  0.78547  0.53633  0.16578  1.0000
  S   S206      1.0  0.83933  0.54484  0.16081  1.0000
  S   S207      1.0  0.94391  0.71049  0.18790  1.0000
  H   H825      1.0  0.84447  0.51808  0.07682  1.0000
  H   H826      1.0  0.82555  0.75045  0.21611  1.0000
  H   H827      1.0  0.79843  0.72589  0.16715  1.0000
  C   C507      1.0  0.70433  0.64791  0.13723  1.0000
  C   C508      1.0  0.56743  0.63418  0.22308  1.0000
  C   C509      1.0  0.94798  0.63554  0.20533  1.0000
  H   H828      1.0  0.99896  0.59208  0.99852  1.0000
  C   C510      1.0  0.91789  0.70278  0.15598  1.0000
  C   C511      1.0  0.88181  0.67475  0.16025  1.0000
  C   C512      1.0  0.86165  0.66994  0.13439  1.0000
  C   C513      1.0  0.87763  0.69275  0.10410  1.0000
  C   C514      1.0  0.91380  0.72049  0.09978  1.0000
  C   C515      1.0  0.93383  0.72542  0.12566  1.0000
  H   H829      1.0  0.86963  0.65645  0.18325  1.0000
  H   H830      1.0  0.83375  0.64810  0.13768  1.0000
  H   H831      1.0  0.92623  0.73845  0.07665  1.0000
  H   H832      1.0  0.96171  0.74712  0.12234  1.0000
  C   C516      1.0  0.94802  0.63857  0.10604  1.0000
  C   C517      1.0  0.94343  0.60775  0.12387  1.0000
  C   C518      1.0  0.90990  0.57929  0.14033  1.0000
  C   C519      1.0  0.88083  0.58166  0.13976  1.0000
  C   C520      1.0  0.88540  0.61242  0.12186  1.0000
  C   C521      1.0  0.91876  0.64056  0.10476  1.0000
  H   H833      1.0  0.96550  0.60542  0.12422  1.0000
  H   H834      1.0  0.90641  0.55522  0.15356  1.0000
  H   H835      1.0  0.86306  0.61417  0.12067  1.0000
  H   H836      1.0  0.78077  0.62498  0.05485  1.0000
  N   N52       1.0  0.75336  0.64758  0.03561  1.0000
  H   H837      1.0  0.89514  0.58106  0.07044  1.0000
  C   C522      1.0  0.79553  0.70042  0.17738  1.0000
  C   C523      1.0  0.70156  0.61563  0.13601  1.0000
  C   C524      1.0  0.68848  0.79745  0.18334  1.0000
  S   S208      1.0  0.93703  0.72852  0.00685  1.0000
  H   H838      1.0  0.85996  0.72194  0.15543  1.0000
  H   H839      1.0  0.56227  0.74167  0.02781  1.0000
  C   C525      1.0  0.74309  0.62716  0.00850  1.0000
  H   H840      1.0  0.83229  0.56084  0.09029  1.0000
  C   C526      1.0  0.69651  0.87448  0.11214  1.0000
  C   C527      1.0  0.72463  0.65075  0.04672  1.0000
  H   H841      1.0  0.51882  0.57454  0.98798  1.0000
  C   C528      1.0  0.81841  0.67267  0.21069  1.0000
  C   C529      1.0  0.85868  0.73210  0.17778  1.0000
  H   H842      1.0  0.68199  0.67843  0.12568  1.0000
  H   H843      1.0  0.71977  0.92675  0.12653  1.0000
  C   C530      1.0  0.78613  0.68412  0.02454  1.0000
  H   H844      1.0  0.71965  0.66575  0.02708  1.0000
  N   N53       1.0  0.82366  0.70738  0.19766  1.0000
  N   N54       1.0  0.65898  0.79229  0.20434  1.0000
  H   H845      1.0  0.88043  0.73541  0.19139  1.0000
  H   H846      1.0  0.79630  0.68771  0.15655  1.0000
  H   H847      1.0  0.55205  0.66642  0.00347  1.0000
  C   C531      1.0  0.83025  0.56778  0.06441  1.0000
  H   H848      1.0  0.96004  0.58848  0.18496  1.0000
  C   C532      1.0  0.75968  0.62840  0.06264  1.0000
  C   C533      1.0  0.88942  0.58668  0.04573  1.0000
  H   H849      1.0  0.58586  0.90019  0.21850  1.0000
  C   C534      1.0  0.69544  0.90114  0.12489  1.0000
  H   H850      1.0  0.76871  0.64378  0.08303  1.0000
  H   H851      1.0  0.97348  0.66117  0.19414  1.0000
  H   H852      1.0  0.61962  0.74314  0.18883  1.0000
  H   H853      1.0  0.93230  0.62367  0.18534  1.0000
  C   C535      1.0  0.66594  0.82792  0.20642  1.0000
  H   H854      1.0  0.61471  0.99508  0.21579  1.0000
  C   C536      1.0  0.60304  0.92982  0.21848  1.0000
  S   S209      1.0  0.68803  0.50529  0.17962  1.0000
  H   H855      1.0  0.73528  0.60116  0.07258  1.0000
  N   N55       1.0  0.53738  0.76937  0.01773  1.0000
  H   H856      1.0  0.72628  0.66921  0.14729  1.0000
  H   H857      1.0  0.85596  0.51840  0.03527  1.0000
  C   C537      1.0  0.84045  0.52391  0.05130  1.0000
  H   H858      1.0  0.73107  0.66528  0.06765  1.0000
  H   H859      1.0  0.00021  0.62743  0.19385  1.0000
  H   H860      1.0  0.79536  0.69983  0.04470  1.0000
  N   N56       1.0  0.85144  0.56168  0.04251  1.0000
  Fe  Fe105     1.0  0.72134  0.50470  0.21710  1.0000
  H   H861      1.0  0.84031  0.67692  0.22450  1.0000
  H   H862      1.0  0.98027  0.58438  0.21951  1.0000
  H   H863      1.0  0.68379  0.77106  0.18076  1.0000
  H   H864      1.0  0.79341  0.65448  0.22764  1.0000
  H   H865      1.0  0.64409  0.82510  0.22183  1.0000
  H   H866      1.0  0.60275  0.76590  0.20530  1.0000
  H   H867      1.0  0.76506  0.62633  0.99790  1.0000
  H   H868      1.0  0.69098  0.84545  0.21671  1.0000
  H   H869      1.0  0.00963  0.73885  0.22152  1.0000
  C   C538      1.0  0.52656  0.57927  0.01268  1.0000
  H   H870      1.0  0.51801  0.58989  0.07270  1.0000
  C   C539      1.0  0.65791  0.54418  0.22173  1.0000
  S   S210      1.0  0.85975  0.66579  0.99002  1.0000
  H   H871      1.0  0.64912  0.59665  0.22753  1.0000
  S   S211      1.0  0.88042  0.74839  0.98444  1.0000
  H   H872      1.0  0.00957  0.79334  0.00914  1.0000
  C   C540      1.0  0.67639  0.60378  0.22940  1.0000
  H   H873      1.0  0.00958  0.73783  0.01367  1.0000
  H   H874      1.0  0.51693  0.80173  0.01736  1.0000
  H   H875      1.0  0.01113  0.61437  0.05102  1.0000
  H   H876      1.0  0.58151  0.80966  0.98191  1.0000
  Fe  Fe106     1.0  0.53986  0.53398  0.35759  1.0000
  S   S212      1.0  0.77464  0.51911  0.47951  1.0000
  Fe  Fe107     1.0  0.53598  0.96336  0.36346  1.0000
  H   H877      1.0  0.68901  0.62484  0.24496  1.0000
  S   S213      1.0  0.98932  0.90189  0.36648  1.0000
  N   N57       1.0  0.72802  0.84649  0.45185  1.0000
  H   H878      1.0  0.60167  0.92926  0.39907  1.0000
  H   H879      1.0  0.93181  0.56033  0.40417  1.0000
  S   S214      1.0  0.65659  0.54164  0.36906  1.0000
  H   H880      1.0  0.63350  0.76892  0.25350  1.0000
  S   S215      1.0  0.59238  0.56508  0.32590  1.0000
  H   H881      1.0  0.97893  0.60911  0.26693  1.0000
  C   C541      1.0  0.71293  0.98428  0.30909  1.0000
  H   H882      1.0  0.84562  0.54924  0.41439  1.0000
  H   H883      1.0  0.90243  0.58136  0.25357  1.0000
  C   C542      1.0  0.55428  0.58124  0.25972  1.0000
  Fe  Fe108     1.0  0.56332  0.52039  0.29724  1.0000
  C   C543      1.0  0.55227  0.93005  0.23394  1.0000
  H   H884      1.0  0.65595  0.53319  0.28746  1.0000
  H   H885      1.0  0.57192  0.92914  0.29338  1.0000
  H   H886      1.0  0.56634  0.89193  0.27708  1.0000
  C   C544      1.0  0.69992  0.85234  0.44693  1.0000
  H   H887      1.0  0.81977  0.98701  0.30216  1.0000
  C   C545      1.0  0.66146  0.97172  0.42524  1.0000
  H   H888      1.0  0.77952  0.98422  0.30185  1.0000
  H   H889      1.0  0.59938  0.98913  0.25728  1.0000
  C   C546      1.0  0.65528  0.55615  0.27555  1.0000
  H   H890      1.0  0.54149  0.61771  0.27201  1.0000
  S   S216      1.0  0.57149  0.53588  0.24351  1.0000
  C   C547      1.0  0.65561  0.77330  0.23710  1.0000
  H   H891      1.0  0.69269  0.78883  0.45483  1.0000
  N   N58       1.0  0.64042  0.98262  0.40850  1.0000
  H   H892      1.0  0.76574  0.52860  0.27458  1.0000
  C   C548      1.0  0.55340  0.61178  0.25348  1.0000
  Fe  Fe109     1.0  0.60387  0.52840  0.35440  1.0000
  H   H893      1.0  0.79986  0.59115  0.43533  1.0000
  C   C549      1.0  0.80512  0.99519  0.28725  1.0000
  C   C550      1.0  0.91884  0.57625  0.23830  1.0000
  H   H894      1.0  0.62729  0.54620  0.27452  1.0000
  H   H895      1.0  0.86359  0.52724  0.37290  1.0000
  S   S217      1.0  0.51897  0.56439  0.37707  1.0000
  H   H896      1.0  0.78362  0.87409  0.43591  1.0000
  N   N59       1.0  0.67546  0.57154  0.24284  1.0000
  H   H897      1.0  0.66570  0.57671  0.29142  1.0000
  H   H898      1.0  0.73863  0.80737  0.44418  1.0000
  H   H899      1.0  0.73396  0.60274  0.47284  1.0000
  H   H900      1.0  0.71838  0.54379  0.35046  1.0000
  C   C551      1.0  0.86609  0.51022  0.39270  1.0000
  H   H901      1.0  0.99882  0.65312  0.24297  1.0000
  C   C552      1.0  0.73316  0.98956  0.36248  1.0000
  N   N60       1.0  0.87622  0.52733  0.42184  1.0000
  Fe  Fe110     1.0  0.86000  0.67191  0.29289  1.0000
  S   S218      1.0  0.90597  0.72503  0.26401  1.0000
  S   S219      1.0  0.80909  0.66929  0.29617  1.0000
  Fe  Fe111     1.0  0.90462  0.64229  0.30398  1.0000
  S   S220      1.0  0.95316  0.69272  0.27622  1.0000
  S   S221      1.0  0.90271  0.59142  0.32110  1.0000
  Fe  Fe112     1.0  0.93804  0.72340  0.30218  1.0000
  S   S222      1.0  0.98676  0.77546  0.31269  1.0000
  H   H902      1.0  0.70539  0.87632  0.45692  1.0000
  C   C553      1.0  0.91066  0.56296  0.41362  1.0000
  S   S223      1.0  0.89137  0.67255  0.33350  1.0000
  S   S224      1.0  0.87006  0.63846  0.26534  1.0000
  H   H903      1.0  0.77831  0.59289  0.32215  1.0000
  C   C554      1.0  0.56924  0.57320  0.23560  1.0000
  S   S225      1.0  0.77321  0.51404  0.39128  1.0000
  Fe  Fe113     1.0  0.74201  0.95888  0.44586  1.0000
  H   H904      1.0  0.65095  0.96088  0.45143  1.0000
  H   H905      1.0  0.53555  0.55538  0.44080  1.0000
  H   H906      1.0  0.53919  0.93639  0.25202  1.0000
  C   C555      1.0  0.71803  0.81266  0.44084  1.0000
  C   C556      1.0  0.70589  0.61070  0.33477  1.0000
  C   C557      1.0  0.75096  0.51454  0.29840  1.0000
  C   C558      1.0  0.75824  0.59801  0.32543  1.0000
  H   H907      1.0  0.59102  0.93882  0.43635  1.0000
  H   H908      1.0  0.78903  0.61421  0.38312  1.0000
  H   H909      1.0  0.71427  0.81383  0.41473  1.0000
  C   C559      1.0  0.97314  0.62688  0.25204  1.0000
  H   H910      1.0  0.74331  0.55339  0.41329  1.0000
  H   H911      1.0  0.68605  0.61599  0.33880  1.0000
  H   H912      1.0  0.88612  0.50617  0.38302  1.0000
  C   C560      1.0  0.58380  0.92191  0.27506  1.0000
  C   C561      1.0  0.71584  0.93678  0.33902  1.0000
  H   H913      1.0  0.74593  0.66521  0.31058  1.0000
  C   C562      1.0  0.73986  0.63855  0.31883  1.0000
  S   S226      1.0  0.58252  0.98958  0.32503  1.0000
  C   C563      1.0  0.72811  0.95595  0.36479  1.0000
  C   C564      1.0  0.70815  0.95083  0.31129  1.0000
  H   H914      1.0  0.75838  0.62673  0.38364  1.0000
  C   C565      1.0  0.98785  0.86755  0.34896  1.0000
  C   C566      1.0  0.52664  0.54753  0.46736  1.0000
  H   H915      1.0  0.64978  0.74605  0.23625  1.0000
  C   C567      1.0  0.98571  0.81068  0.32537  1.0000
  C   C568      1.0  0.95560  0.80386  0.34303  1.0000
  C   C569      1.0  0.95688  0.83207  0.35519  1.0000
  H   H916      1.0  0.71184  0.56471  0.41384  1.0000
  H   H917      1.0  0.91934  0.57640  0.43520  1.0000
  H   H918      1.0  0.93170  0.77664  0.34821  1.0000
  H   H919      1.0  0.93380  0.82636  0.36959  1.0000
  C   C570      1.0  0.99162  0.58049  0.35178  1.0000
  C   C571      1.0  0.69789  0.57630  0.34617  1.0000
  C   C572      1.0  0.96817  0.61725  0.34242  1.0000
  C   C573      1.0  0.93889  0.58940  0.33044  1.0000
  C   C574      1.0  0.93683  0.55773  0.32803  1.0000
  C   C575      1.0  0.96328  0.55347  0.33821  1.0000
  C   C576      1.0  0.76874  0.52151  0.32605  1.0000
  H   H920      1.0  0.97000  0.64169  0.34462  1.0000
  H   H921      1.0  0.91429  0.53600  0.31883  1.0000
  H   H922      1.0  0.96094  0.52861  0.33686  1.0000
  C   C577      1.0  0.76635  0.63252  0.31455  1.0000
  C   C578      1.0  0.77793  0.62549  0.39748  1.0000
  H   H923      1.0  0.81041  0.63101  0.45037  1.0000
  H   H924      1.0  0.76649  0.64699  0.45011  1.0000
  H   H925      1.0  0.71191  0.55782  0.25486  1.0000
  C   C579      1.0  0.99404  0.61250  0.35358  1.0000
  C   C580      1.0  0.73288  0.56573  0.42697  1.0000
  C   C581      1.0  0.60341  0.95081  0.41068  1.0000
  H   H926      1.0  0.58686  0.95822  0.39828  1.0000
  H   H927      1.0  0.61003  0.92958  0.28200  1.0000
  H   H928      1.0  0.71182  0.91075  0.34069  1.0000
  H   H929      1.0  0.69757  0.85716  0.42073  1.0000
  S   S227      1.0  0.73747  0.93737  0.39909  1.0000
  C   C582      1.0  0.74599  0.61848  0.44787  1.0000
  H   H930      1.0  0.75922  0.88069  0.40656  1.0000
  C   C583      1.0  0.84892  0.53226  0.43349  1.0000
  N   N61       1.0  0.76128  0.60321  0.43007  1.0000
  H   H931      1.0  0.69768  0.93538  0.29197  1.0000
  H   H932      1.0  0.53186  0.52719  0.47698  1.0000
  H   H933      1.0  0.71994  0.54821  0.45119  1.0000
  H   H934      1.0  0.54397  0.57202  0.47826  1.0000
  Fe  Fe114     1.0  0.91823  0.69152  0.23993  1.0000
  C   C584      1.0  0.72422  0.57016  0.34144  1.0000
  C   C585      1.0  0.76168  0.87739  0.43291  1.0000
  H   H935      1.0  0.54283  0.56367  0.28306  1.0000
  S   S228      1.0  0.55380  0.50056  0.38949  1.0000
  H   H936      1.0  0.65587  0.97748  0.36158  1.0000
  H   H937      1.0  0.72474  0.61794  0.43545  1.0000
  H   H938      1.0  0.76971  0.90327  0.44059  1.0000
  C   C586      1.0  0.78831  0.60313  0.44795  1.0000
  H   H939      1.0  0.53434  0.90057  0.23348  1.0000
  H   H940      1.0  0.79929  0.98197  0.26548  1.0000
  H   H941      1.0  0.79999  0.65380  0.39874  1.0000
  H   H942      1.0  0.63733  0.98897  0.24738  1.0000
  H   H943      1.0  0.95787  0.63227  0.26834  1.0000
  H   H944      1.0  0.66145  0.95063  0.41433  1.0000
  H   H945      1.0  0.92199  0.55667  0.25377  1.0000
  H   H946      1.0  0.68032  0.78889  0.24845  1.0000
  H   H947      1.0  0.67367  0.82855  0.45892  1.0000
  H   H948      1.0  0.85584  0.54559  0.45514  1.0000
  H   H949      1.0  0.90918  0.58147  0.39469  1.0000
  C   C587      1.0  0.71188  0.58174  0.24483  1.0000
  N   N62       1.0  0.58748  0.94047  0.24199  1.0000
  H   H950      1.0  0.79616  0.70633  0.24076  1.0000
  H   H951      1.0  0.79719  0.54104  0.32330  1.0000
  C   C588      1.0  0.74996  0.50353  0.35716  1.0000
  S   S229      1.0  0.69348  0.93742  0.48059  1.0000
  H   H952      1.0  0.72560  0.60196  0.26101  1.0000
  H   H953      1.0  0.84302  0.72991  0.24051  1.0000
  C   C589      1.0  0.61080  0.98009  0.24052  1.0000
  H   H954      1.0  0.82265  0.50584  0.44023  1.0000
  S   S230      1.0  0.00369  0.99055  0.31834  1.0000
  H   H955      1.0  0.77677  0.58706  0.47291  1.0000
  H   H956      1.0  0.89862  0.49857  0.43899  1.0000
  C   C590      1.0  0.87920  0.50398  0.44751  1.0000
  H   H957      1.0  0.88840  0.51695  0.46925  1.0000
  H   H958      1.0  0.51404  0.98176  0.45840  1.0000
  S   S231      1.0  0.51286  0.90569  0.38768  1.0000
  H   H959      1.0  0.68954  0.99522  0.42389  1.0000
  H   H960      1.0  0.65628  0.51928  0.23153  1.0000
  S   S232      1.0  0.71604  0.53988  0.52416  1.0000
  H   H961      1.0  0.63832  0.52588  0.66523  1.0000
  H   H962      1.0  0.65903  0.60160  0.54209  1.0000
  Fe  Fe115     1.0  0.57802  0.61151  0.61304  1.0000
  S   S233      1.0  0.54284  0.56497  0.58806  1.0000
  S   S234      1.0  0.57909  0.58522  0.66234  1.0000
  Fe  Fe116     1.0  0.59065  0.66589  0.55423  1.0000
  S   S235      1.0  0.55577  0.62192  0.52563  1.0000
  S   S236      1.0  0.61178  0.72195  0.52564  1.0000
  C   C591      1.0  0.60567  0.65227  0.72823  1.0000
  Fe  Fe117     1.0  0.58336  0.59652  0.54452  1.0000
  S   S237      1.0  0.59146  0.56170  0.51613  1.0000
  S   S238      1.0  0.55056  0.63856  0.59935  1.0000
  S   S239      1.0  0.62087  0.64192  0.56999  1.0000
  C   C592      1.0  0.58627  0.60294  0.69863  1.0000
  C   C593      1.0  0.59951  0.63915  0.69877  1.0000
  H   H963      1.0  0.65575  0.84996  0.50921  1.0000
  H   H964      1.0  0.60561  0.65720  0.67621  1.0000
  H   H965      1.0  0.56834  0.55178  0.72822  1.0000
  C   C594      1.0  0.62704  0.55704  0.51734  1.0000
  C   C595      1.0  0.63443  0.76503  0.53757  1.0000
  C   C596      1.0  0.65438  0.77302  0.56358  1.0000
  H   H966      1.0  0.84557  0.54238  0.51381  1.0000
  H   H967      1.0  0.70668  0.59159  0.54557  1.0000
  C   C597      1.0  0.65564  0.82874  0.52430  1.0000
  H   H968      1.0  0.89738  0.98897  0.54478  1.0000
  H   H969      1.0  0.61889  0.78686  0.49858  1.0000
  C   C598      1.0  0.63472  0.79295  0.51839  1.0000
  C   C599      1.0  0.73237  0.84351  0.48666  1.0000
  S   S240      1.0  0.70562  0.88223  0.55606  1.0000
  C   C600      1.0  0.68137  0.54579  0.52095  1.0000
  C   C601      1.0  0.65680  0.57969  0.53213  1.0000
  H   H970      1.0  0.75464  0.84109  0.49109  1.0000
  H   H971      1.0  0.63596  0.57664  0.63809  1.0000
  H   H972      1.0  0.55980  0.51782  0.63497  1.0000
  H   H973      1.0  0.90806  0.59273  0.51588  1.0000
  C   C602      1.0  0.65194  0.52356  0.50560  1.0000
  C   C603      1.0  0.85245  0.50057  0.53207  1.0000
  H   H974      1.0  0.52974  0.62138  0.67274  1.0000
  C   C604      1.0  0.62491  0.52921  0.50381  1.0000
  H   H975      1.0  0.64987  0.50193  0.49526  1.0000
  H   H976      1.0  0.60210  0.51174  0.49208  1.0000
  H   H977      1.0  0.65497  0.57438  0.60111  1.0000
  H   H978      1.0  0.61451  0.57163  0.60236  1.0000
  H   H979      1.0  0.65446  0.75186  0.57855  1.0000
  C   C605      1.0  0.62956  0.56325  0.61638  1.0000
  Fe  Fe118     1.0  0.51791  0.59351  0.57158  1.0000
  H   H980      1.0  0.58256  0.52212  0.66970  1.0000
  H   H981      1.0  0.73766  0.86750  0.49654  1.0000
  C   C606      1.0  0.68377  0.57400  0.53400  1.0000
  H   H982      1.0  0.70813  0.81921  0.50139  1.0000
  S   S241      1.0  0.77202  0.95063  0.48290  1.0000
  C   C607      1.0  0.67525  0.80886  0.56958  1.0000
  C   C608      1.0  0.86395  0.53650  0.52229  1.0000
  C   C609      1.0  0.57632  0.51020  0.64715  1.0000
  S   S242      1.0  0.96810  0.59527  0.53565  1.0000
  C   C610      1.0  0.67654  0.83702  0.54958  1.0000
  C   C611      1.0  0.57862  0.57986  0.72812  1.0000
  Fe  Fe119     1.0  0.72479  0.93235  0.51825  1.0000
  H   H983      1.0  0.69109  0.81494  0.58939  1.0000
  C   C612      1.0  0.91197  0.52214  0.54550  1.0000
  C   C613      1.0  0.92360  0.55808  0.53531  1.0000
  C   C614      1.0  0.89938  0.56502  0.52363  1.0000
  H   H984      1.0  0.85018  0.99239  0.52177  1.0000
  N   N63       1.0  0.60895  0.52344  0.62568  1.0000
  Fe  Fe120     1.0  0.72055  0.49831  0.50363  1.0000
  H   H985      1.0  0.93030  0.51637  0.55449  1.0000
  S   S243      1.0  0.74808  0.98852  0.52979  1.0000
  H   H986      1.0  0.65530  0.52308  0.62734  1.0000
  H   H987      1.0  0.61644  0.68048  0.72818  1.0000
  H   H988      1.0  0.52012  0.59492  0.71207  1.0000
  H   H989      1.0  0.65215  0.98925  0.53915  1.0000
  H   H990      1.0  0.62341  0.51515  0.58006  1.0000
  C   C615      1.0  0.59942  0.50680  0.59625  1.0000
  H   H991      1.0  0.58433  0.51489  0.58186  1.0000
  C   C616      1.0  0.63051  0.51356  0.64298  1.0000
  Fe  Fe121     1.0  0.72039  0.99509  0.48902  1.0000
  H   H992      1.0  0.60928  0.99558  0.56950  1.0000
  S   S244      1.0  0.53827  0.56520  0.86854  1.0000
  H   H993      1.0  0.74430  0.70407  0.86173  1.0000
  Fe  Fe122     1.0  0.62358  0.62725  0.90857  1.0000
  S   S245      1.0  0.62292  0.59704  0.87000  1.0000
  S   S246      1.0  0.99449  0.97008  0.92385  1.0000
  Fe  Fe123     1.0  0.54490  0.59817  0.90716  1.0000
  Fe  Fe124     1.0  0.57004  0.55018  0.89721  1.0000
  Fe  Fe125     1.0  0.59135  0.61458  0.84476  1.0000
  S   S247      1.0  0.60807  0.64750  0.79380  1.0000
  S   S248      1.0  0.57297  0.57970  0.93753  1.0000
  S   S249      1.0  0.59555  0.64819  0.88175  1.0000
  C   C617      1.0  0.69731  0.68510  0.79748  1.0000
  C   C618      1.0  0.59825  0.62926  0.75773  1.0000
  C   C619      1.0  0.58438  0.59289  0.75761  1.0000
  H   H994      1.0  0.57865  0.57497  0.78018  1.0000
  H   H995      1.0  0.55038  0.67292  0.90649  1.0000
  C   C620      1.0  0.95997  0.61664  0.94947  1.0000
  H   H996      1.0  0.67573  0.65633  0.80762  1.0000
  H   H997      1.0  0.53302  0.92014  0.95562  1.0000
  H   H998      1.0  0.75634  0.76000  0.82819  1.0000
  H   H999      1.0  0.54811  0.72598  0.90815  1.0000
  S   S250      1.0  0.67195  0.66762  0.93106  1.0000
  H   H1000     1.0  0.99022  0.95169  0.85628  1.0000
  H   H1001     1.0  0.66827  0.67562  0.85824  1.0000
  C   C621      1.0  0.98824  0.61802  0.93357  1.0000
  H   H1002     1.0  0.68481  0.69655  0.78325  1.0000
  H   H1003     1.0  0.71144  0.66079  0.85197  1.0000
  S   S251      1.0  0.91900  0.72817  0.93129  1.0000
  H   H1004     1.0  0.54602  0.63992  0.97287  1.0000
  H   H1005     1.0  0.69177  0.62174  0.90996  1.0000
  S   S252      1.0  0.81790  0.68256  0.92094  1.0000
  Fe  Fe126     1.0  0.91636  0.68922  0.97219  1.0000
  C   C622      1.0  0.98812  0.86453  0.94802  1.0000
  C   C623      1.0  0.95763  0.86370  0.94462  1.0000
  S   S253      1.0  0.54413  0.98806  0.93334  1.0000
  S   S254      1.0  0.98644  0.82425  0.95677  1.0000
  H   H1006     1.0  0.93640  0.59073  0.96067  1.0000
  C   C624      1.0  0.96013  0.89628  0.93742  1.0000
  H   H1007     1.0  0.67416  0.71402  0.83332  1.0000
  H   H1008     1.0  0.98613  0.90977  0.82132  1.0000
  C   C625      1.0  0.96179  0.64844  0.95055  1.0000
  H   H1009     1.0  0.75211  0.69120  0.82531  1.0000
  H   H1010     1.0  0.71620  0.68513  0.78027  1.0000
  H   H1011     1.0  0.70084  0.71976  0.86572  1.0000
  H   H1012     1.0  0.99400  0.70639  0.93645  1.0000
  H   H1013     1.0  0.73949  0.71924  0.94997  1.0000
  C   C626      1.0  0.71169  0.67011  0.93001  1.0000
  C   C627      1.0  0.71458  0.64448  0.91793  1.0000
  C   C628      1.0  0.77712  0.67778  0.92604  1.0000
  C   C629      1.0  0.77408  0.70307  0.93869  1.0000
  C   C630      1.0  0.74148  0.69920  0.94068  1.0000
  H   H1014     1.0  0.79710  0.72614  0.94606  1.0000
  S   S255      1.0  0.92576  0.64507  0.97153  1.0000
  Fe  Fe127     1.0  0.86329  0.70708  0.95168  1.0000
  H   H1015     1.0  0.74942  0.62896  0.90563  1.0000
  C   C631      1.0  0.74242  0.74387  0.80912  1.0000
  H   H1016     1.0  0.76271  0.74624  0.79174  1.0000
  Fe  Fe128     1.0  0.93601  0.76659  0.96714  1.0000
  S   S256      1.0  0.56232  0.49611  0.91275  1.0000
  C   C632      1.0  0.52521  0.69908  0.91822  1.0000
  N   N64       1.0  0.71496  0.70568  0.82348  1.0000
  C   C633      1.0  0.68851  0.70388  0.84608  1.0000
  H   H1017     1.0  0.93208  0.83796  0.94760  1.0000
  H   H1018     1.0  0.53875  0.79115  0.96860  1.0000
  C   C634      1.0  0.74726  0.64858  0.91559  1.0000
  H   H1019     1.0  0.73063  0.75665  0.79576  1.0000
  C   C635      1.0  0.00774  0.49953  0.80529  1.0000
  C   C636      1.0  0.73150  0.68980  0.84134  1.0000
  H   H1020     1.0  0.93633  0.89528  0.93495  1.0000
  C   C637      1.0  0.52653  0.66901  0.91716  1.0000
  C   C638      1.0  0.99228  0.68174  0.93581  1.0000
  H   H1021     1.0  0.98630  0.59333  0.93249  1.0000
  C   C639      1.0  0.99307  0.93004  0.93352  1.0000
  H   H1022     1.0  0.55634  0.76471  0.97236  1.0000
  H   H1023     1.0  0.00661  0.94602  0.78688  1.0000
  C   C640      1.0  0.01207  0.93262  0.80757  1.0000
  H   H1024     1.0  0.01132  0.98846  0.82205  1.0000
