data_image0
_chemical_formula_structural       CS2HFeHCSHC2HFeH2C2SHSHCHC2SFeCFeHC2H2FeCHC2H3C2H2SC2H2FeH2SCHCHCNSHNCHSH4SCSH5CHCHCHFeH3C2H3FeSCFeS2FeCSFeS2FeHFeCS2C3H2C2HCHC7H3CH3S2H3SH2CH5C2NC2H2SHFeSCHFeH3SCS2HFeS2CFeS2FeS2FeSFeS4C2H2C2H4C2HC6H5SC2HCFeHC2H3C6H6NC4H12FeC4HNH3NC2H6CNC4H6CH2CHC2H4NHNC3HSH2FeHC2H4CHCHS3HC2H2SFeH2FeH3CH2C2HC2H2SHSFeSFeSFeSCH2CFeCSH3NCH3C2H3C3NFeHSH5C2HSNC2H2C2HCH2SH3CHCH5CH2SHSH4C4H4SC2SH2SCNSH2C6H2SC2SHC3H4Fe2SHS2H10C7H4CH5SCSH2CFeH2NH2CHCNHCH6CNCH3CH4NH3SC6H4SH2NCH2CFeCH3NC2H5CHCH2FeCSH3NH2SCH5SH2CH3C6H6C4SH3CHFeCHSHCHCHCFeSH2FeSFeSFeSCHCHCH3CSH4CHNC2HFeHCH2CHSCH4SCHCH4FeSCFe2SHSCFeSFeS2C3H2CHCH2C4H2NC4H11SNCFeH2CSH5SHCSCSHCSH3CS2CH2SFeH2CFeS2FeS2CHCSFeS2FeSFeS3HC3H3CH9C6H4C3HCH6CH2CHC3NH5CH7FeCH4CFeNFeSCH3CHCHCSH4CHNHC2SH2FeS2FeSFeSFeS3HFeS2HNFeCHSH2CHCHC3H2C6H7C6SH3C6H4CHCH2NC3H15SCH5CHCFeHC3HC2HNC3SCHCHCNHSH4CH2SFeNC3H2CH2C3SH5CHNCHSHCH4FeSH6FeSHFeNFeSCSFeS2FeS2FeSFeS3C2HSC6H4SH5FeHC2HC2HSFeH2C2HC7H3NC4H12NCHSHCSHC2H10C2H2SC2HCH4CH3CH3NC3H4CH3SH3SNCH2C2H3SC3SFeS2FeSCHC2H6FeH2NH2C3HSH2FeC6H2SC3H2CNCH4FeH2CNFeC3HSHC3H7CH2FeS2CSH2CH3SH2SH2CH7C2HNHCHSFe2S2HFeSH3CHC4H4CH3CHCHSCHFeCHC2H2CHFeH3NC2SHC2H2CH3SHCHC2HCH2SCSCNCNFeCHCHSHCHCH3NSCHFeSC2FeS2HSFeSHFeSFeS2HC3HCH3C6H5CHCH4CHC3H2FeH5SH2SC2H2C2H2CH3CH5CH5CH3C5H3CHNH4CHSH2S2C6H6CH2FeHSCFeS2FeS2H3SC6H5CHC2H2CHC2SH8CH6S2CHSC6H5FeH4CSCN2H2NH6CH7CHC3HSFeHSCH2SH3CHCH3CH2C2NHC6H2SH2SH2SHFeH2CH2SHFeSCFeS2FeS2FeSFeSFeS3HC6H5C2NCH2FeSCHSC3H4C2NH2C2HS2HCHCHC2H4C4H6C2H3C2H2C2HC2HSCH3C2HC2HNHFeS2FeS2FeSFeS2FeS2CFe2SHSHCH3C2H3CH2CHSCHNHC6H4C2NHC2HCNHC6H4CHCHCS2NFeH8C2H2C3HCSCH6CH3CH2SH4CHFeHC2HCH2C4H2C2H3NCH7NCH7CH3C2HCH4NH5C2H3FeH2S2C2FeHFeS2HFeS2HSHCH3C3H5FeCH2CH3C3HSNC2FeHCH2CFeH2CNHSHCH2NH8SFeS2FeH2S2HS3C4H3CH2C4SFeC2FeHFeSCSH3C4FeNC2H3CH2CH4C2H7SHCHCH3SHSCHCHCH3
_chemical_formula_sum              "C640 S256 H1024 Fe128 N64"
_cell_length_a       36.3917
_cell_length_b       54.4446
_cell_length_c       66.4076
_cell_angle_alpha    89.5306
_cell_angle_beta     89.9742
_cell_angle_gamma    85.9417

_space_group_name_H-M_alt    "P 1"
_space_group_IT_number       1

loop_
  _space_group_symop_operation_xyz
  'x, y, z'

loop_
  _atom_site_type_symbol
  _atom_site_label
  _atom_site_symmetry_multiplicity
  _atom_site_fract_x
  _atom_site_fract_y
  _atom_site_fract_z
  _atom_site_occupancy
  C   C1        1.0  0.23382  0.07668  0.25669  1.0000
  S   S1        1.0  0.38924  0.09107  0.14315  1.0000
  S   S2        1.0  0.11592  0.09837  0.25863  1.0000
  H   H1        1.0  0.13077  0.06399  0.22565  1.0000
  Fe  Fe1       1.0  0.06138  0.10748  0.27364  1.0000
  H   H2        1.0  0.46028  0.05374  0.10882  1.0000
  C   C2        1.0  0.50499  0.39653  0.11265  1.0000
  S   S3        1.0  0.14574  0.39120  0.28589  1.0000
  H   H3        1.0  0.24291  0.11776  0.23519  1.0000
  C   C3        1.0  0.15673  0.05330  0.22398  1.0000
  C   C4        1.0  0.19016  0.38962  0.29620  1.0000
  H   H4        1.0  0.23815  0.06369  0.26962  1.0000
  Fe  Fe2       1.0  0.37897  0.04192  0.20872  1.0000
  H   H5        1.0  0.50094  0.29824  0.06879  1.0000
  H   H6        1.0  0.17381  0.07453  0.19857  1.0000
  C   C5        1.0  0.43601  0.09316  0.13735  1.0000
  C   C6        1.0  0.46351  0.07925  0.14792  1.0000
  S   S4        1.0  0.41249  0.03409  0.18086  1.0000
  H   H7        1.0  0.45631  0.06757  0.16030  1.0000
  S   S5        1.0  0.34376  0.07279  0.19450  1.0000
  H   H8        1.0  0.28226  0.05354  0.23073  1.0000
  C   C7        1.0  0.44857  0.41806  0.10085  1.0000
  H   H9        1.0  0.44721  0.04597  0.27490  1.0000
  C   C8        1.0  0.51034  0.09610  0.12679  1.0000
  C   C9        1.0  0.18103  0.05911  0.20852  1.0000
  S   S6        1.0  0.05483  0.06929  0.28567  1.0000
  Fe  Fe3       1.0  0.11207  0.06110  0.27283  1.0000
  C   C10       1.0  0.29387  0.06382  0.24339  1.0000
  Fe  Fe4       1.0  0.37400  0.06269  0.16605  1.0000
  H   H10       1.0  0.45766  0.05748  0.21123  1.0000
  C   C11       1.0  0.28631  0.09917  0.26515  1.0000
  C   C12       1.0  0.51305  0.46120  0.19873  1.0000
  H   H11       1.0  0.49038  0.12219  0.10410  1.0000
  H   H12       1.0  0.39083  0.04839  0.08301  1.0000
  Fe  Fe5       1.0  0.30613  0.04354  0.18628  1.0000
  C   C13       1.0  0.50056  0.08056  0.14254  1.0000
  H   H13       1.0  0.28755  0.10796  0.22506  1.0000
  C   C14       1.0  0.48295  0.11007  0.11621  1.0000
  C   C15       1.0  0.25869  0.39393  0.25114  1.0000
  H   H14       1.0  0.39316  0.06275  0.10716  1.0000
  H   H15       1.0  0.51724  0.10292  0.18631  1.0000
  H   H16       1.0  0.42456  0.11939  0.11328  1.0000
  C   C16       1.0  0.44578  0.10854  0.12147  1.0000
  C   C17       1.0  0.43561  0.49616  0.26280  1.0000
  H   H17       1.0  0.21806  0.43724  0.25035  1.0000
  H   H18       1.0  0.26824  0.11562  0.26963  1.0000
  S   S7        1.0  0.40034  0.04735  0.24029  1.0000
  C   C18       1.0  0.49307  0.51522  0.24113  1.0000
  C   C19       1.0  0.46362  0.05062  0.26205  1.0000
  H   H19       1.0  0.31307  0.10573  0.26005  1.0000
  H   H20       1.0  0.32121  0.06953  0.23837  1.0000
  Fe  Fe6       1.0  0.14106  0.10781  0.28800  1.0000
  H   H21       1.0  0.39211  0.07393  0.28634  1.0000
  H   H22       1.0  0.43007  0.42368  0.08865  1.0000
  S   S8        1.0  0.06399  0.44038  0.29317  1.0000
  C   C20       1.0  0.50080  0.05518  0.26473  1.0000
  H   H23       1.0  0.42058  0.03910  0.13614  1.0000
  C   C21       1.0  0.21183  0.40977  0.29471  1.0000
  H   H24       1.0  0.29882  0.05063  0.25615  1.0000
  C   C22       1.0  0.48543  0.29542  0.05465  1.0000
  N   N1        1.0  0.26895  0.08525  0.24915  1.0000
  S   S9        1.0  0.35548  0.52111  0.17589  1.0000
  H   H25       1.0  0.03669  0.42069  0.24991  1.0000
  N   N2        1.0  0.23719  0.40480  0.23398  1.0000
  C   C23       1.0  0.26163  0.10139  0.23138  1.0000
  H   H26       1.0  0.50008  0.47844  0.20532  1.0000
  S   S10       1.0  0.24528  0.05499  0.18743  1.0000
  H   H27       1.0  0.43202  0.09144  0.28525  1.0000
  H   H28       1.0  0.21948  0.06687  0.24484  1.0000
  H   H29       1.0  0.44596  0.33945  0.05443  1.0000
  H   H30       1.0  0.49130  0.34257  0.06411  1.0000
  S   S11       1.0  0.37686  0.52387  0.11519  1.0000
  C   C24       1.0  0.44774  0.05165  0.24281  1.0000
  S   S12       1.0  0.19002  0.13069  0.28968  1.0000
  H   H31       1.0  0.51444  0.41313  0.18970  1.0000
  H   H32       1.0  0.29149  0.08762  0.27890  1.0000
  H   H33       1.0  0.51273  0.05430  0.27966  1.0000
  H   H34       1.0  0.20245  0.37458  0.23214  1.0000
  H   H35       1.0  0.24815  0.09148  0.21910  1.0000
  C   C25       1.0  0.47409  0.43641  0.21863  1.0000
  H   H36       1.0  0.20157  0.42634  0.28695  1.0000
  C   C26       1.0  0.47007  0.49764  0.27197  1.0000
  H   H37       1.0  0.24657  0.42624  0.20731  1.0000
  C   C27       1.0  0.46961  0.05665  0.22612  1.0000
  H   H38       1.0  0.45770  0.43185  0.20517  1.0000
  Fe  Fe7       1.0  0.12183  0.43024  0.28332  1.0000
  H   H39       1.0  0.18806  0.41239  0.25158  1.0000
  H   H40       1.0  0.19039  0.43053  0.22902  1.0000
  H   H41       1.0  0.28514  0.40614  0.21501  1.0000
  C   C28       1.0  0.49901  0.50675  0.26098  1.0000
  C   C29       1.0  0.43003  0.50382  0.24271  1.0000
  H   H42       1.0  0.21457  0.09230  0.26155  1.0000
  H   H43       1.0  0.40324  0.50290  0.23580  1.0000
  H   H44       1.0  0.24123  0.38321  0.26126  1.0000
  Fe  Fe8       1.0  0.06186  0.46602  0.26659  1.0000
  S   S13       1.0  0.08218  0.49809  0.28352  1.0000
  C   C30       1.0  0.26162  0.41828  0.22071  1.0000
  Fe  Fe9       1.0  0.13858  0.48256  0.27387  1.0000
  S   S14       1.0  0.18799  0.50383  0.26596  1.0000
  S   S15       1.0  0.11770  0.45258  0.25481  1.0000
  Fe  Fe10      1.0  0.33904  0.48227  0.18089  1.0000
  C   C31       1.0  0.50705  0.06078  0.22875  1.0000
  S   S16       1.0  0.28257  0.47027  0.18939  1.0000
  Fe  Fe11      1.0  0.41236  0.45886  0.16543  1.0000
  S   S17       1.0  0.43407  0.49537  0.15916  1.0000
  S   S18       1.0  0.45249  0.42577  0.16168  1.0000
  Fe  Fe12      1.0  0.41003  0.50634  0.18901  1.0000
  H   H45       1.0  0.20477  0.39261  0.20945  1.0000
  Fe  Fe13      1.0  0.37847  0.50678  0.14644  1.0000
  C   C32       1.0  0.21481  0.04541  0.20610  1.0000
  S   S19       1.0  0.39182  0.46885  0.19638  1.0000
  S   S20       1.0  0.35840  0.46895  0.15035  1.0000
  C   C33       1.0  0.46342  0.41787  0.13656  1.0000
  C   C34       1.0  0.43996  0.42547  0.12065  1.0000
  C   C35       1.0  0.20716  0.42197  0.24158  1.0000
  H   H46       1.0  0.28198  0.38119  0.24598  1.0000
  H   H47       1.0  0.41484  0.43666  0.12364  1.0000
  C   C36       1.0  0.45669  0.03617  0.10080  1.0000
  C   C37       1.0  0.45854  0.51385  0.23199  1.0000
  H   H48       1.0  0.27326  0.43389  0.22871  1.0000
  C   C38       1.0  0.48114  0.40360  0.09679  1.0000
  H   H49       1.0  0.51422  0.39745  0.14470  1.0000
  C   C39       1.0  0.49591  0.40336  0.13250  1.0000
  C   C40       1.0  0.21375  0.49571  0.24418  1.0000
  C   C41       1.0  0.19809  0.48326  0.22839  1.0000
  C   C42       1.0  0.21928  0.47640  0.21139  1.0000
  C   C43       1.0  0.25633  0.48186  0.21003  1.0000
  C   C44       1.0  0.27192  0.49473  0.22563  1.0000
  C   C45       1.0  0.25058  0.50173  0.24263  1.0000
  H   H50       1.0  0.16950  0.47918  0.22916  1.0000
  H   H51       1.0  0.20689  0.46677  0.19923  1.0000
  H   H52       1.0  0.30045  0.49902  0.22473  1.0000
  C   C46       1.0  0.22119  0.38499  0.22251  1.0000
  H   H53       1.0  0.24302  0.37163  0.21657  1.0000
  H   H54       1.0  0.41305  0.48932  0.27130  1.0000
  H   H55       1.0  0.27043  0.40845  0.26038  1.0000
  S   S21       1.0  0.49144  0.39411  0.07194  1.0000
  S   S22       1.0  0.33333  0.03613  0.15634  1.0000
  H   H56       1.0  0.38751  0.10670  0.29000  1.0000
  H   H57       1.0  0.45622  0.29344  0.05896  1.0000
  H   H58       1.0  0.45945  0.03996  0.08441  1.0000
  S   S23       1.0  0.45142  0.52549  0.20741  1.0000
  H   H59       1.0  0.46024  0.45320  0.22554  1.0000
  H   H60       1.0  0.47267  0.42096  0.22960  1.0000
  C   C47       1.0  0.39067  0.04481  0.09952  1.0000
  H   H61       1.0  0.39941  0.42417  0.29134  1.0000
  H   H62       1.0  0.26274  0.51160  0.25473  1.0000
  H   H63       1.0  0.49752  0.45754  0.18474  1.0000
  H   H64       1.0  0.36317  0.03848  0.10364  1.0000
  H   H65       1.0  0.51896  0.13580  0.18681  1.0000
  C   C48       1.0  0.40536  0.08969  0.29322  1.0000
  C   C49       1.0  0.16572  0.03348  0.23700  1.0000
  N   N3        1.0  0.51259  0.44033  0.21309  1.0000
  C   C50       1.0  0.47551  0.33939  0.05010  1.0000
  C   C51       1.0  0.52262  0.06036  0.24809  1.0000
  H   H66       1.0  0.52172  0.06969  0.15075  1.0000
  H   H67       1.0  0.51520  0.52294  0.23286  1.0000
  S   S24       1.0  0.47574  0.48960  0.29754  1.0000
  H   H68       1.0  0.52154  0.46276  0.23891  1.0000
  Fe  Fe14      1.0  0.32777  0.34041  0.38857  1.0000
  S   S25       1.0  0.34517  0.30326  0.40146  1.0000
  C   C52       1.0  0.44632  0.09887  0.38181  1.0000
  H   H69       1.0  0.42167  0.09682  0.39055  1.0000
  Fe  Fe15      1.0  0.10622  0.11531  0.53952  1.0000
  H   H70       1.0  0.46692  0.21678  0.35845  1.0000
  H   H71       1.0  0.40181  0.18741  0.36893  1.0000
  H   H72       1.0  0.35979  0.45435  0.33729  1.0000
  S   S26       1.0  0.07357  0.10499  0.51270  1.0000
  C   C53       1.0  0.25577  0.06835  0.51506  1.0000
  S   S27       1.0  0.36244  0.36247  0.36824  1.0000
  S   S28       1.0  0.13718  0.14281  0.52212  1.0000
  H   H73       1.0  0.05959  0.46501  0.53089  1.0000
  Fe  Fe16      1.0  0.10074  0.13467  0.49608  1.0000
  S   S29       1.0  0.11871  0.12507  0.46440  1.0000
  S   S30       1.0  0.05683  0.16440  0.50330  1.0000
  C   C54       1.0  0.08397  0.28076  0.53527  1.0000
  Fe  Fe17      1.0  0.31342  0.11933  0.37603  1.0000
  S   S31       1.0  0.34648  0.11370  0.40443  1.0000
  S   S32       1.0  0.29923  0.08811  0.35643  1.0000
  Fe  Fe18      1.0  0.30757  0.17483  0.37899  1.0000
  S   S33       1.0  0.34075  0.17422  0.40739  1.0000
  S   S34       1.0  0.28600  0.20904  0.36233  1.0000
  Fe  Fe19      1.0  0.37730  0.14499  0.39256  1.0000
  S   S35       1.0  0.43840  0.14798  0.39121  1.0000
  Fe  Fe20      1.0  0.30662  0.14330  0.41671  1.0000
  S   S36       1.0  0.28517  0.14422  0.44850  1.0000
  S   S37       1.0  0.34739  0.14825  0.36319  1.0000
  S   S38       1.0  0.27046  0.14608  0.38930  1.0000
  S   S39       1.0  0.51594  0.05552  0.34771  1.0000
  C   C55       1.0  0.27308  0.09951  0.33590  1.0000
  C   C56       1.0  0.25366  0.08346  0.32433  1.0000
  H   H74       1.0  0.26448  0.42374  0.30108  1.0000
  H   H75       1.0  0.06616  0.22100  0.50629  1.0000
  C   C57       1.0  0.24582  0.13411  0.31655  1.0000
  C   C58       1.0  0.26984  0.12477  0.33167  1.0000
  H   H76       1.0  0.25639  0.06386  0.32744  1.0000
  H   H77       1.0  0.04167  0.03865  0.32590  1.0000
  H   H78       1.0  0.18307  0.06353  0.52024  1.0000
  H   H79       1.0  0.28476  0.13733  0.34048  1.0000
  C   C59       1.0  0.49305  0.12436  0.36896  1.0000
  C   C60       1.0  0.46085  0.12192  0.38011  1.0000
  H   H80       1.0  0.20367  0.29905  0.45960  1.0000
  C   C61       1.0  0.16382  0.13239  0.45877  1.0000
  C   C62       1.0  0.18244  0.14754  0.47153  1.0000
  C   C63       1.0  0.21946  0.15163  0.46789  1.0000
  C   C64       1.0  0.23784  0.14094  0.45126  1.0000
  C   C65       1.0  0.21880  0.12661  0.43794  1.0000
  C   C66       1.0  0.18179  0.12227  0.44175  1.0000
  H   H81       1.0  0.16843  0.15608  0.48427  1.0000
  H   H82       1.0  0.23402  0.16298  0.47805  1.0000
  H   H83       1.0  0.23302  0.11818  0.42517  1.0000
  H   H84       1.0  0.16745  0.11057  0.43180  1.0000
  H   H85       1.0  0.14970  0.33945  0.47625  1.0000
  S   S40       1.0  0.11836  0.35022  0.53738  1.0000
  C   C67       1.0  0.03497  0.06087  0.35250  1.0000
  C   C68       1.0  0.37189  0.43519  0.33953  1.0000
  H   H86       1.0  0.24257  0.15377  0.31375  1.0000
  C   C69       1.0  0.12905  0.39726  0.37410  1.0000
  Fe  Fe21      1.0  0.09114  0.17046  0.53076  1.0000
  H   H87       1.0  0.05591  0.09492  0.46808  1.0000
  C   C70       1.0  0.05831  0.26075  0.50666  1.0000
  C   C71       1.0  0.41391  0.40246  0.32723  1.0000
  H   H88       1.0  0.47861  0.22463  0.38382  1.0000
  H   H89       1.0  0.42138  0.04669  0.31217  1.0000
  H   H90       1.0  0.50318  0.44322  0.36518  1.0000
  C   C72       1.0  0.32263  0.27885  0.39129  1.0000
  C   C73       1.0  0.32015  0.25744  0.40285  1.0000
  C   C74       1.0  0.30675  0.23643  0.39429  1.0000
  C   C75       1.0  0.29669  0.23649  0.37400  1.0000
  C   C76       1.0  0.29771  0.25823  0.36261  1.0000
  C   C77       1.0  0.31052  0.27949  0.37129  1.0000
  H   H91       1.0  0.32909  0.25701  0.41840  1.0000
  H   H92       1.0  0.30434  0.22018  0.40341  1.0000
  H   H93       1.0  0.28972  0.25840  0.34691  1.0000
  H   H94       1.0  0.31257  0.29596  0.36226  1.0000
  H   H95       1.0  0.42786  0.40067  0.34212  1.0000
  H   H96       1.0  0.36715  0.21242  0.36897  1.0000
  N   N4        1.0  0.15912  0.12907  0.36102  1.0000
  C   C78       1.0  0.11983  0.13751  0.35877  1.0000
  C   C79       1.0  0.16686  0.10634  0.34928  1.0000
  C   C80       1.0  0.16760  0.12397  0.38249  1.0000
  C   C81       1.0  0.18223  0.14842  0.35347  1.0000
  H   H97       1.0  0.10156  0.12326  0.36417  1.0000
  H   H98       1.0  0.11271  0.14137  0.34268  1.0000
  H   H99       1.0  0.11289  0.15465  0.36739  1.0000
  H   H100      1.0  0.19608  0.09912  0.35096  1.0000
  H   H101      1.0  0.14916  0.09150  0.35415  1.0000
  H   H102      1.0  0.16161  0.10968  0.33293  1.0000
  H   H103      1.0  0.15049  0.10954  0.38869  1.0000
  H   H104      1.0  0.16258  0.14079  0.39181  1.0000
  H   H105      1.0  0.19706  0.11733  0.38459  1.0000
  H   H106      1.0  0.21203  0.14289  0.35543  1.0000
  H   H107      1.0  0.17663  0.16605  0.36165  1.0000
  H   H108      1.0  0.17744  0.15221  0.33712  1.0000
  Fe  Fe22      1.0  0.06874  0.34736  0.51778  1.0000
  C   C82       1.0  0.46412  0.07828  0.37245  1.0000
  C   C83       1.0  0.51027  0.10393  0.35916  1.0000
  C   C84       1.0  0.20147  0.30169  0.47617  1.0000
  C   C85       1.0  0.20422  0.36801  0.30585  1.0000
  H   H109      1.0  0.46587  0.19418  0.37822  1.0000
  N   N5        1.0  0.41111  0.08595  0.31510  1.0000
  H   H110      1.0  0.21284  0.31966  0.47966  1.0000
  H   H111      1.0  0.10225  0.08256  0.44146  1.0000
  H   H112      1.0  0.40160  0.21069  0.34963  1.0000
  N   N6        1.0  0.16294  0.30123  0.48314  1.0000
  C   C86       1.0  0.16146  0.30517  0.50512  1.0000
  C   C87       1.0  0.14870  0.27715  0.47849  1.0000
  H   H113      1.0  0.17727  0.29014  0.51351  1.0000
  H   H114      1.0  0.13262  0.30597  0.51072  1.0000
  H   H115      1.0  0.17305  0.32283  0.50926  1.0000
  H   H116      1.0  0.11952  0.27650  0.48344  1.0000
  H   H117      1.0  0.16491  0.26178  0.48630  1.0000
  H   H118      1.0  0.14966  0.27343  0.46204  1.0000
  C   C88       1.0  0.22897  0.09288  0.30955  1.0000
  N   N7        1.0  0.42074  0.22189  0.37860  1.0000
  C   C89       1.0  0.41383  0.24837  0.37379  1.0000
  C   C90       1.0  0.41248  0.21757  0.40008  1.0000
  C   C91       1.0  0.45978  0.21408  0.37458  1.0000
  C   C92       1.0  0.39682  0.20749  0.36595  1.0000
  H   H119      1.0  0.42052  0.25245  0.35781  1.0000
  H   H120      1.0  0.43031  0.25998  0.38354  1.0000
  H   H121      1.0  0.38439  0.25456  0.37610  1.0000
  H   H122      1.0  0.41754  0.19775  0.40426  1.0000
  H   H123      1.0  0.42977  0.22828  0.41010  1.0000
  H   H124      1.0  0.38317  0.22301  0.40361  1.0000
  C   C93       1.0  0.43412  0.06284  0.31865  1.0000
  H   H125      1.0  0.45299  0.06044  0.37392  1.0000
  H   H126      1.0  0.18759  0.35234  0.30697  1.0000
  C   C94       1.0  0.13999  0.32100  0.47285  1.0000
  H   H127      1.0  0.14068  0.31883  0.45621  1.0000
  C   C95       1.0  0.07089  0.23755  0.51449  1.0000
  C   C96       1.0  0.19082  0.07949  0.51095  1.0000
  H   H128      1.0  0.34880  0.42283  0.33988  1.0000
  H   H129      1.0  0.21338  0.08046  0.30105  1.0000
  H   H130      1.0  0.11065  0.32113  0.47772  1.0000
  H   H131      1.0  0.24994  0.05183  0.52421  1.0000
  N   N8        1.0  0.04431  0.07744  0.44008  1.0000
  H   H132      1.0  0.26221  0.11660  0.50917  1.0000
  N   N9        1.0  0.22642  0.08829  0.51748  1.0000
  C   C97       1.0  0.03888  0.08048  0.46202  1.0000
  C   C98       1.0  0.06487  0.28243  0.51700  1.0000
  C   C99       1.0  0.49587  0.08085  0.36090  1.0000
  H   H133      1.0  0.45803  0.10783  0.31696  1.0000
  S   S41       1.0  0.14599  0.45920  0.30173  1.0000
  H   H134      1.0  0.41404  0.12476  0.32025  1.0000
  H   H135      1.0  0.44959  0.43989  0.31170  1.0000
  Fe  Fe23      1.0  0.08442  0.08208  0.31302  1.0000
  H   H136      1.0  0.43468  0.39644  0.31565  1.0000
  C   C100      1.0  0.08962  0.23589  0.53288  1.0000
  C   C101      1.0  0.08307  0.06900  0.43601  1.0000
  H   H137      1.0  0.38507  0.43414  0.35467  1.0000
  H   H138      1.0  0.04373  0.26194  0.49245  1.0000
  H   H139      1.0  0.36003  0.06884  0.31947  1.0000
  H   H140      1.0  0.43294  0.10526  0.33996  1.0000
  C   C102      1.0  0.23515  0.10973  0.50503  1.0000
  H   H141      1.0  0.19156  0.07391  0.49486  1.0000
  C   C103      1.0  0.24764  0.40822  0.30256  1.0000
  H   H142      1.0  0.50437  0.14215  0.36759  1.0000
  S   S42       1.0  0.27427  0.35058  0.37261  1.0000
  S   S43       1.0  0.14060  0.07013  0.30153  1.0000
  S   S44       1.0  0.06911  0.08075  0.34598  1.0000
  H   H143      1.0  0.21957  0.28697  0.48361  1.0000
  C   C104      1.0  0.42880  0.44480  0.32356  1.0000
  C   C105      1.0  0.22395  0.09555  0.53888  1.0000
  H   H144      1.0  0.04635  0.06310  0.47042  1.0000
  H   H145      1.0  0.23636  0.10513  0.48871  1.0000
  S   S45       1.0  0.02981  0.43824  0.49928  1.0000
  Fe  Fe24      1.0  0.03265  0.13518  0.52217  1.0000
  H   H146      1.0  0.28300  0.07434  0.51992  1.0000
  H   H147      1.0  0.43048  0.37478  0.38863  1.0000
  Fe  Fe25      1.0  0.08777  0.47134  0.30942  1.0000
  H   H148      1.0  0.08806  0.06645  0.41958  1.0000
  H   H149      1.0  0.37859  0.08143  0.34180  1.0000
  H   H150      1.0  0.13585  0.41649  0.32559  1.0000
  C   C106      1.0  0.23590  0.37409  0.44528  1.0000
  H   H151      1.0  0.21399  0.12532  0.50689  1.0000
  H   H152      1.0  0.25017  0.10248  0.54434  1.0000
  C   C107      1.0  0.49987  0.40392  0.36621  1.0000
  C   C108      1.0  0.23973  0.36668  0.31422  1.0000
  H   H153      1.0  0.36802  0.44850  0.30051  1.0000
  C   C109      1.0  0.23119  0.36961  0.46593  1.0000
  C   C110      1.0  0.42985  0.10690  0.32335  1.0000
  H   H154      1.0  0.44356  0.44420  0.33820  1.0000
  H   H155      1.0  0.16803  0.09405  0.51256  1.0000
  S   S46       1.0  0.19367  0.37220  0.50159  1.0000
  H   H156      1.0  0.25228  0.35879  0.47423  1.0000
  S   S47       1.0  0.29823  0.40757  0.37484  1.0000
  Fe  Fe26      1.0  0.30839  0.37546  0.35435  1.0000
  S   S48       1.0  0.30673  0.38484  0.32145  1.0000
  Fe  Fe27      1.0  0.26929  0.38166  0.39470  1.0000
  S   S49       1.0  0.21521  0.39534  0.40878  1.0000
  Fe  Fe28      1.0  0.35008  0.39295  0.39011  1.0000
  S   S50       1.0  0.39007  0.42075  0.39866  1.0000
  C   C111      1.0  0.22421  0.11827  0.30608  1.0000
  H   H157      1.0  0.35465  0.40500  0.44142  1.0000
  H   H158      1.0  0.12537  0.37754  0.37098  1.0000
  C   C112      1.0  0.33229  0.40846  0.45277  1.0000
  Fe  Fe29      1.0  0.05931  0.40326  0.51110  1.0000
  C   C113      1.0  0.48726  0.42830  0.37014  1.0000
  S   S51       1.0  0.10922  0.41002  0.52961  1.0000
  H   H159      1.0  0.20134  0.39622  0.36601  1.0000
  H   H160      1.0  0.41835  0.46425  0.32077  1.0000
  H   H161      1.0  0.17044  0.43648  0.37518  1.0000
  N   N10       1.0  0.31038  0.43184  0.44852  1.0000
  C   C114      1.0  0.20896  0.38824  0.43445  1.0000
  H   H162      1.0  0.35703  0.41699  0.30318  1.0000
  H   H163      1.0  0.11739  0.38920  0.33499  1.0000
  H   H164      1.0  0.12514  0.44545  0.36574  1.0000
  C   C115      1.0  0.17178  0.39250  0.46494  1.0000
  C   C116      1.0  0.17685  0.39739  0.44434  1.0000
  H   H165      1.0  0.08898  0.29731  0.54344  1.0000
  H   H166      1.0  0.14702  0.39976  0.47246  1.0000
  H   H167      1.0  0.15585  0.40836  0.43609  1.0000
  C   C117      1.0  0.47946  0.38469  0.37318  1.0000
  C   C118      1.0  0.44602  0.38978  0.38338  1.0000
  C   C119      1.0  0.43315  0.41414  0.38706  1.0000
  N   N11       1.0  0.39865  0.42798  0.32352  1.0000
  Fe  Fe30      1.0  0.13565  0.37701  0.51382  1.0000
  H   H168      1.0  0.14602  0.39795  0.38800  1.0000
  S   S52       1.0  0.04921  0.31116  0.50643  1.0000
  H   H169      1.0  0.26149  0.42009  0.46289  1.0000
  H   H170      1.0  0.10146  0.40647  0.37749  1.0000
  H   H171      1.0  0.46205  0.06362  0.31187  1.0000
  H   H172      1.0  0.27694  0.44818  0.42451  1.0000
  H   H173      1.0  0.02529  0.04088  0.44012  1.0000
  C   C120      1.0  0.02571  0.48558  0.34635  1.0000
  C   C121      1.0  0.26156  0.38672  0.31235  1.0000
  H   H174      1.0  0.19708  0.40531  0.34006  1.0000
  S   S53       1.0  0.08770  0.37258  0.49345  1.0000
  N   N12       1.0  0.14661  0.40930  0.35693  1.0000
  C   C122      1.0  0.15183  0.43522  0.36197  1.0000
  C   C123      1.0  0.45413  0.43339  0.38072  1.0000
  H   H175      1.0  0.26025  0.36640  0.43776  1.0000
  H   H176      1.0  0.48930  0.36579  0.37042  1.0000
  C   C124      1.0  0.19906  0.37869  0.47580  1.0000
  C   C125      1.0  0.33460  0.45247  0.44953  1.0000
  H   H177      1.0  0.44447  0.45227  0.38366  1.0000
  C   C126      1.0  0.29426  0.43106  0.42814  1.0000
  H   H178      1.0  0.29146  0.43567  0.47914  1.0000
  H   H179      1.0  0.31605  0.42879  0.41640  1.0000
  S   S54       1.0  0.32049  0.36987  0.41189  1.0000
  H   H180      1.0  0.16389  0.44513  0.34910  1.0000
  H   H181      1.0  0.35708  0.10159  0.32319  1.0000
  H   H182      1.0  0.17998  0.37682  0.34843  1.0000
  C   C127      1.0  0.18282  0.39633  0.35268  1.0000
  H   H183      1.0  0.27641  0.41545  0.42672  1.0000
  C   C128      1.0  0.28044  0.43530  0.46352  1.0000
  H   H184      1.0  0.43820  0.05909  0.33502  1.0000
  H   H185      1.0  0.34732  0.45370  0.46469  1.0000
  H   H186      1.0  0.26338  0.45280  0.46083  1.0000
  H   H187      1.0  0.35746  0.45016  0.43832  1.0000
  H   H188      1.0  0.09576  0.41903  0.34128  1.0000
  C   C129      1.0  0.12276  0.40844  0.33897  1.0000
  H   H189      1.0  0.31476  0.39250  0.45250  1.0000
  H   H190      1.0  0.09076  0.05112  0.44366  1.0000
  S   S55       1.0  0.07205  0.47554  0.34209  1.0000
  H   H191      1.0  0.39185  0.38926  0.32716  1.0000
  S   S56       1.0  0.03537  0.37792  0.53360  1.0000
  H   H192      1.0  0.34550  0.40858  0.46787  1.0000
  H   H193      1.0  0.31910  0.47041  0.44621  1.0000
  H   H194      1.0  0.25058  0.34995  0.32167  1.0000
  H   H195      1.0  0.25850  0.06257  0.49904  1.0000
  C   C130      1.0  0.37516  0.08439  0.32525  1.0000
  C   C131      1.0  0.02618  0.04196  0.33964  1.0000
  C   C132      1.0  0.37995  0.42948  0.30374  1.0000
  C   C133      1.0  0.05801  0.47195  0.54661  1.0000
  H   H196      1.0  0.06257  0.49193  0.54609  1.0000
  H   H197      1.0  0.20171  0.11037  0.54131  1.0000
  H   H198      1.0  0.02934  0.19611  0.53754  1.0000
  H   H199      1.0  0.05254  0.11586  0.43565  1.0000
  S   S57       1.0  0.08720  0.12072  0.30176  1.0000
  C   C134      1.0  0.03548  0.10128  0.42975  1.0000
  C   C135      1.0  0.09622  0.25757  0.54317  1.0000
  S   S58       1.0  0.10435  0.20718  0.54379  1.0000
  H   H200      1.0  0.04029  0.09986  0.41325  1.0000
  H   H201      1.0  0.02540  0.47089  0.37658  1.0000
  S   S59       1.0  0.06300  0.14351  0.55045  1.0000
  C   C136      1.0  0.22245  0.47845  0.68133  1.0000
  N   N13       1.0  0.23438  0.48394  0.66059  1.0000
  S   S60       1.0  0.08574  0.05586  0.64486  1.0000
  H   H202      1.0  0.08564  0.10844  0.58466  1.0000
  H   H203      1.0  0.03314  0.09971  0.72607  1.0000
  C   C137      1.0  0.09933  0.06263  0.61996  1.0000
  C   C138      1.0  0.05508  0.52820  0.76877  1.0000
  C   C139      1.0  0.13525  0.05344  0.58970  1.0000
  C   C140      1.0  0.12141  0.07566  0.58069  1.0000
  C   C141      1.0  0.09631  0.09123  0.59135  1.0000
  C   C142      1.0  0.08555  0.08482  0.61094  1.0000
  H   H204      1.0  0.21729  0.07981  0.54875  1.0000
  H   H205      1.0  0.06653  0.09718  0.61917  1.0000
  S   S61       1.0  0.03727  0.48988  0.71794  1.0000
  C   C143      1.0  0.21383  0.52755  0.72607  1.0000
  C   C144      1.0  0.26348  0.50154  0.66123  1.0000
  S   S62       1.0  0.30082  0.52679  0.76438  1.0000
  H   H206      1.0  0.11069  0.25641  0.55743  1.0000
  C   C145      1.0  0.06752  0.06681  0.70144  1.0000
  C   C146      1.0  0.12404  0.04683  0.60921  1.0000
  C   C147      1.0  0.20265  0.49485  0.64889  1.0000
  H   H207      1.0  0.15474  0.04130  0.58158  1.0000
  H   H208      1.0  0.25320  0.51918  0.66832  1.0000
  H   H209      1.0  0.28768  0.49410  0.67019  1.0000
  H   H210      1.0  0.18001  0.48215  0.64825  1.0000
  Fe  Fe31      1.0  0.07167  0.50936  0.69549  1.0000
  Fe  Fe32      1.0  0.10042  0.50829  0.65229  1.0000
  S   S63       1.0  0.11814  0.49235  0.62199  1.0000
  H   H211      1.0  0.27323  0.50607  0.64585  1.0000
  S   S64       1.0  0.12638  0.49638  0.68186  1.0000
  S   S65       1.0  0.08052  0.38982  0.58485  1.0000
  H   H212      1.0  0.08562  0.07916  0.69322  1.0000
  H   H213      1.0  0.22757  0.51324  0.75578  1.0000
  H   H214      1.0  0.07154  0.04850  0.69431  1.0000
  H   H215      1.0  0.22731  0.44735  0.65006  1.0000
  H   H216      1.0  0.19111  0.51241  0.65564  1.0000
  H   H217      1.0  0.24581  0.47068  0.69076  1.0000
  H   H218      1.0  0.07752  0.06457  0.71725  1.0000
  H   H219      1.0  0.27269  0.45205  0.65935  1.0000
  H   H220      1.0  0.21029  0.49903  0.63307  1.0000
  H   H221      1.0  0.25806  0.46436  0.63519  1.0000
  C   C148      1.0  0.05945  0.51778  0.74956  1.0000
  C   C149      1.0  0.10831  0.46329  0.61257  1.0000
  C   C150      1.0  0.08616  0.44753  0.62303  1.0000
  C   C151      1.0  0.07828  0.42485  0.61454  1.0000
  C   C152      1.0  0.09230  0.41785  0.59554  1.0000
  C   C153      1.0  0.11478  0.43352  0.58525  1.0000
  C   C154      1.0  0.12270  0.45612  0.59372  1.0000
  H   H222      1.0  0.07494  0.45285  0.63758  1.0000
  H   H223      1.0  0.06098  0.41276  0.62264  1.0000
  H   H224      1.0  0.12629  0.42812  0.57081  1.0000
  H   H225      1.0  0.14003  0.46816  0.58559  1.0000
  C   C155      1.0  0.24883  0.46090  0.65088  1.0000
  H   H226      1.0  0.08380  0.52071  0.74079  1.0000
  H   H227      1.0  0.20077  0.46501  0.68146  1.0000
  H   H228      1.0  0.21072  0.49536  0.68896  1.0000
  H   H229      1.0  0.04043  0.43040  0.56471  1.0000
  H   H230      1.0  0.04355  0.46734  0.58623  1.0000
  S   S66       1.0  0.04436  0.51759  0.66557  1.0000
  C   C156      1.0  0.23737  0.52279  0.74268  1.0000
  S   S67       1.0  0.13678  0.08375  0.55638  1.0000
  H   H231      1.0  0.18598  0.52176  0.72641  1.0000
  H   H232      1.0  0.08136  0.46247  0.55502  1.0000
  C   C157      1.0  0.03291  0.50288  0.74207  1.0000
  Fe  Fe33      1.0  0.08704  0.38303  0.55129  1.0000
  H   H233      1.0  0.03371  0.09038  0.67043  1.0000
  H   H234      1.0  0.04103  0.11401  0.70210  1.0000
  N   N14       1.0  0.02843  0.07612  0.70058  1.0000
  H   H235      1.0  0.02570  0.49695  0.57720  1.0000
  H   H236      1.0  0.13497  0.02976  0.61605  1.0000
  C   C158      1.0  0.02361  0.52445  0.78028  1.0000
  H   H237      1.0  0.02338  0.21994  0.55584  1.0000
  C   C159      1.0  0.02417  0.10063  0.71002  1.0000
  N   N15       1.0  0.48879  0.31611  0.04036  1.0000
  H   H238      1.0  0.48870  0.03491  0.01276  1.0000
  C   C160      1.0  0.49773  0.52163  0.95559  1.0000
  H   H239      1.0  0.47866  0.35562  0.04007  1.0000
  H   H240      1.0  0.46935  0.51565  0.95376  1.0000
  H   H241      1.0  0.50381  0.52052  0.99601  1.0000
  H   H242      1.0  0.47615  0.29485  0.01448  1.0000
  H   H243      1.0  0.49561  0.04117  0.96727  1.0000
  H   H244      1.0  0.49480  0.47221  0.95729  1.0000
  C   C161      1.0  0.46653  0.31222  0.02221  1.0000
  N   N16       1.0  0.52088  0.50394  0.96797  1.0000
  C   C162      1.0  0.52253  0.47942  0.95845  1.0000
  H   H245      1.0  0.46834  0.32762  0.01118  1.0000
  H   H246      1.0  0.43693  0.31104  0.02605  1.0000
  H   H247      1.0  0.45492  0.03278  0.98016  1.0000
  C   C163      1.0  0.50501  0.50233  0.98838  1.0000
  H   H248      1.0  0.47653  0.49615  0.98789  1.0000
  H   H249      1.0  0.50955  0.52377  0.94024  1.0000
  H   H250      1.0  0.52186  0.48899  0.99803  1.0000
  H   H251      1.0  0.49650  0.27759  0.04813  1.0000
  N   N17       1.0  0.42070  0.02653  0.10558  1.0000
  H   H252      1.0  0.39826  0.73342  0.05699  1.0000
  H   H253      1.0  0.23890  0.59302  0.05197  1.0000
  H   H254      1.0  0.44758  0.57492  0.12453  1.0000
  S   S68       1.0  0.38216  0.63650  0.09150  1.0000
  C   C164      1.0  0.38246  0.60530  0.09880  1.0000
  C   C165      1.0  0.40000  0.58689  0.08698  1.0000
  C   C166      1.0  0.39830  0.56203  0.09235  1.0000
  C   C167      1.0  0.37980  0.55535  0.10985  1.0000
  C   C168      1.0  0.36259  0.57374  0.12191  1.0000
  C   C169      1.0  0.36405  0.59868  0.11641  1.0000
  H   H255      1.0  0.41520  0.59176  0.07376  1.0000
  H   H256      1.0  0.41160  0.54787  0.08295  1.0000
  H   H257      1.0  0.34737  0.56869  0.13514  1.0000
  H   H258      1.0  0.35020  0.61286  0.12556  1.0000
  S   S69       1.0  0.39635  0.82349  0.06305  1.0000
  H   H259      1.0  0.31803  0.57317  0.08515  1.0000
  H   H260      1.0  0.44840  0.60452  0.17488  1.0000
  N   N18       1.0  0.45688  0.57236  0.15646  1.0000
  C   C170      1.0  0.41997  0.56402  0.16089  1.0000
  H   H261      1.0  0.41933  0.55453  0.17576  1.0000
  H   H262      1.0  0.26933  0.58063  0.08447  1.0000
  C   C171      1.0  0.39740  0.77309  0.05955  1.0000
  Fe  Fe34      1.0  0.39373  0.64460  0.05862  1.0000
  C   C172      1.0  0.41841  0.02190  0.12746  1.0000
  H   H263      1.0  0.38951  0.99600  0.09762  1.0000
  H   H264      1.0  0.32978  0.61283  0.06833  1.0000
  H   H265      1.0  0.51180  0.55625  0.15149  1.0000
  N   N19       1.0  0.29711  0.58514  0.05619  1.0000
  C   C173      1.0  0.48353  0.55070  0.15465  1.0000
  C   C174      1.0  0.45570  0.58647  0.13732  1.0000
  H   H266      1.0  0.41155  0.55074  0.14943  1.0000
  H   H267      1.0  0.43812  0.98869  0.09956  1.0000
  H   H268      1.0  0.47575  0.53845  0.14221  1.0000
  H   H269      1.0  0.43533  0.60273  0.13793  1.0000
  H   H270      1.0  0.49593  0.59486  0.17024  1.0000
  C   C175      1.0  0.29297  0.57226  0.07566  1.0000
  H   H271      1.0  0.28119  0.62065  0.06880  1.0000
  C   C176      1.0  0.46820  0.58814  0.17303  1.0000
  H   H272      1.0  0.38549  0.87854  0.11669  1.0000
  H   H273      1.0  0.36947  0.89304  0.09370  1.0000
  Fe  Fe35      1.0  0.36970  0.00791  0.17299  1.0000
  C   C177      1.0  0.36966  0.87575  0.10266  1.0000
  S   S70       1.0  0.39281  0.97228  0.15891  1.0000
  H   H274      1.0  0.48468  0.53945  0.16876  1.0000
  H   H275      1.0  0.32765  0.89166  0.13367  1.0000
  H   H276      1.0  0.34703  0.83061  0.10905  1.0000
  N   N20       1.0  0.33170  0.86937  0.10701  1.0000
  H   H277      1.0  0.48297  0.59332  0.13355  1.0000
  H   H278      1.0  0.30962  0.88482  0.07931  1.0000
  S   S71       1.0  0.33589  0.93816  0.07393  1.0000
  C   C178      1.0  0.31160  0.86706  0.08785  1.0000
  H   H279      1.0  0.28304  0.86172  0.09044  1.0000
  H   H280      1.0  0.30473  0.84023  0.12165  1.0000
  H   H281      1.0  0.34823  0.84674  0.13254  1.0000
  H   H282      1.0  0.46933  0.57786  0.18766  1.0000
  H   H283      1.0  0.31152  0.90709  0.11108  1.0000
  S   S72       1.0  0.42279  0.89147  0.06186  1.0000
  H   H284      1.0  0.35469  0.57372  0.05373  1.0000
  H   H285      1.0  0.39379  0.77293  0.07572  1.0000
  C   C179      1.0  0.30378  0.61119  0.05988  1.0000
  H   H286      1.0  0.39863  0.57969  0.16123  1.0000
  H   H287      1.0  0.38508  0.86108  0.09382  1.0000
  H   H288      1.0  0.28411  0.88491  0.12289  1.0000
  C   C180      1.0  0.37709  0.96359  0.13507  1.0000
  C   C181      1.0  0.34245  0.97217  0.12779  1.0000
  C   C182      1.0  0.33033  0.96437  0.10894  1.0000
  C   C183      1.0  0.35300  0.94837  0.09705  1.0000
  C   C184      1.0  0.38811  0.94040  0.10408  1.0000
  C   C185      1.0  0.39985  0.94769  0.12316  1.0000
  H   H289      1.0  0.32460  0.98431  0.13691  1.0000
  H   H290      1.0  0.30313  0.97063  0.10361  1.0000
  H   H291      1.0  0.40616  0.92848  0.09493  1.0000
  H   H292      1.0  0.42679  0.94111  0.12867  1.0000
  H   H293      1.0  0.20591  0.00365  0.24408  1.0000
  H   H294      1.0  0.32578  0.85287  0.07797  1.0000
  C   C186      1.0  0.33292  0.84569  0.11810  1.0000
  C   C187      1.0  0.31287  0.88905  0.11924  1.0000
  C   C188      1.0  0.22370  0.02526  0.21886  1.0000
  C   C189      1.0  0.41687  0.00327  0.09471  1.0000
  S   S73       1.0  0.33915  0.01301  0.20246  1.0000
  H   H295      1.0  0.28860  0.55242  0.07355  1.0000
  H   H296      1.0  0.39173  0.01448  0.13154  1.0000
  H   H297      1.0  0.44052  0.00820  0.13280  1.0000
  C   C190      1.0  0.39958  0.79566  0.04933  1.0000
  H   H298      1.0  0.24950  0.01439  0.21693  1.0000
  Fe  Fe36      1.0  0.37050  0.91307  0.05315  1.0000
  C   C191      1.0  0.19897  0.01916  0.23417  1.0000
  H   H299      1.0  0.41942  0.00579  0.07815  1.0000
  S   S74       1.0  0.13621  0.02705  0.25717  1.0000
  H   H300      1.0  0.47992  0.02291  0.10541  1.0000
  C   C192      1.0  0.39994  0.75068  0.04897  1.0000
  H   H301      1.0  0.15344  0.95647  0.76611  1.0000
  C   C193      1.0  0.29662  0.64737  0.79561  1.0000
  H   H302      1.0  0.31358  0.54885  0.72536  1.0000
  C   C194      1.0  0.28579  0.54301  0.72566  1.0000
  Fe  Fe37      1.0  0.06287  0.55538  0.67055  1.0000
  S   S75       1.0  0.33597  0.64263  0.78033  1.0000
  H   H303      1.0  0.52039  0.74254  0.71716  1.0000
  H   H304      1.0  0.07145  0.64377  0.56750  1.0000
  Fe  Fe38      1.0  0.34842  0.55082  0.76921  1.0000
  S   S76       1.0  0.36152  0.58274  0.74952  1.0000
  Fe  Fe39      1.0  0.42055  0.57130  0.75696  1.0000
  S   S77       1.0  0.46642  0.56732  0.73427  1.0000
  Fe  Fe40      1.0  0.36261  0.60405  0.77835  1.0000
  S   S78       1.0  0.13245  0.01396  0.68729  1.0000
  C   C195      1.0  0.47864  0.61676  0.73604  1.0000
  H   H305      1.0  0.27170  0.57796  0.76143  1.0000
  C   C196      1.0  0.49033  0.59347  0.72869  1.0000
  H   H306      1.0  0.45340  0.61918  0.74463  1.0000
  C   C197      1.0  0.23325  0.63606  0.75392  1.0000
  H   H307      1.0  0.21422  0.00884  0.77050  1.0000
  H   H308      1.0  0.26719  0.01161  0.71504  1.0000
  H   H309      1.0  0.06236  0.67328  0.55546  1.0000
  C   C198      1.0  0.05930  0.66291  0.56982  1.0000
  S   S79       1.0  0.19704  0.54885  0.68892  1.0000
  H   H310      1.0  0.04126  0.56228  0.63029  1.0000
  H   H311      1.0  0.22093  0.57827  0.73765  1.0000
  H   H312      1.0  0.21558  0.63635  0.76763  1.0000
  H   H313      1.0  0.49105  0.65486  0.73825  1.0000
  C   C199      1.0  0.49989  0.63694  0.73236  1.0000
  H   H314      1.0  0.25945  0.62125  0.71780  1.0000
  N   N21       1.0  0.24523  0.61066  0.74796  1.0000
  C   C200      1.0  0.27273  0.66824  0.79209  1.0000
  C   C201      1.0  0.27192  0.61157  0.73123  1.0000
  H   H315      1.0  0.07614  0.53918  0.77472  1.0000
  Fe  Fe41      1.0  0.13967  0.53590  0.68489  1.0000
  H   H316      1.0  0.24417  0.59690  0.77848  1.0000
  C   C202      1.0  0.21294  0.59775  0.74145  1.0000
  H   H317      1.0  0.48021  0.91049  0.70711  1.0000
  H   H318      1.0  0.29656  0.62131  0.73573  1.0000
  C   C203      1.0  0.51721  0.88157  0.71949  1.0000
  H   H319      1.0  0.28207  0.59282  0.72648  1.0000
  S   S80       1.0  0.42304  0.59571  0.78384  1.0000
  C   C204      1.0  0.26295  0.59734  0.76528  1.0000
  H   H320      1.0  0.25741  0.64674  0.75734  1.0000
  H   H321      1.0  0.25611  0.99022  0.76574  1.0000
  H   H322      1.0  0.19179  0.59751  0.75353  1.0000
  H   H323      1.0  0.19975  0.60648  0.72780  1.0000
  S   S81       1.0  0.34525  0.57305  0.79750  1.0000
  C   C205      1.0  0.22601  0.99232  0.76240  1.0000
  H   H324      1.0  0.21371  0.93100  0.76268  1.0000
  C   C206      1.0  0.22615  0.54041  0.70936  1.0000
  H   H325      1.0  0.50521  0.85298  0.76453  1.0000
  H   H326      1.0  0.25567  0.94625  0.76143  1.0000
  H   H327      1.0  0.07014  0.88981  0.64862  1.0000
  H   H328      1.0  0.18509  0.89069  0.66161  1.0000
  Fe  Fe42      1.0  0.34860  0.95854  0.76119  1.0000
  S   S82       1.0  0.34296  0.91783  0.76058  1.0000
  C   C207      1.0  0.22565  0.94839  0.75793  1.0000
  Fe  Fe43      1.0  0.08243  0.99926  0.70152  1.0000
  Fe  Fe44      1.0  0.39732  0.91489  0.77673  1.0000
  S   S83       1.0  0.44152  0.88401  0.77431  1.0000
  H   H329      1.0  0.22283  0.95010  0.74130  1.0000
  S   S84       1.0  0.40607  0.95537  0.77458  1.0000
  C   C208      1.0  0.23573  0.98495  0.70009  1.0000
  Fe  Fe45      1.0  0.14555  0.97532  0.67659  1.0000
  S   S85       1.0  0.19740  0.95021  0.68034  1.0000
  Fe  Fe46      1.0  0.06635  0.96796  0.66497  1.0000
  S   S86       1.0  0.11427  0.98065  0.64725  1.0000
  S   S87       1.0  0.09852  0.96047  0.69334  1.0000
  C   C209      1.0  0.46879  0.88241  0.75250  1.0000
  C   C210      1.0  0.16830  0.97298  0.76201  1.0000
  C   C211      1.0  0.52280  0.59056  0.71738  1.0000
  H   H330      1.0  0.27996  0.68189  0.78111  1.0000
  H   H331      1.0  0.15367  0.98920  0.76934  1.0000
  C   C212      1.0  0.46144  0.89841  0.73617  1.0000
  H   H332      1.0  0.21752  0.64610  0.74167  1.0000
  C   C213      1.0  0.26470  0.99226  0.71220  1.0000
  H   H333      1.0  0.02752  0.62927  0.59305  1.0000
  H   H334      1.0  0.43750  0.91139  0.73644  1.0000
  C   C214      1.0  0.29005  0.97467  0.72095  1.0000
  C   C215      1.0  0.28703  0.94972  0.71685  1.0000
  C   C216      1.0  0.25885  0.94247  0.70416  1.0000
  C   C217      1.0  0.23284  0.96002  0.69592  1.0000
  H   H335      1.0  0.30686  0.93604  0.72310  1.0000
  H   H336      1.0  0.25709  0.92317  0.70083  1.0000
  N   N22       1.0  0.12668  0.89402  0.65641  1.0000
  C   C218      1.0  0.11793  0.89935  0.67774  1.0000
  C   C219      1.0  0.09775  0.87957  0.64769  1.0000
  C   C220      1.0  0.16290  0.88001  0.65512  1.0000
  C   C221      1.0  0.12813  0.91740  0.64512  1.0000
  H   H337      1.0  0.13876  0.91080  0.68463  1.0000
  H   H338      1.0  0.11718  0.88217  0.68685  1.0000
  H   H339      1.0  0.09046  0.90962  0.67924  1.0000
  H   H340      1.0  0.10306  0.87557  0.63150  1.0000
  H   H341      1.0  0.09583  0.86174  0.65578  1.0000
  H   H342      1.0  0.17051  0.87585  0.63921  1.0000
  H   H343      1.0  0.16298  0.86225  0.66352  1.0000
  H   H344      1.0  0.10149  0.92859  0.64620  1.0000
  H   H345      1.0  0.13392  0.91425  0.62886  1.0000
  H   H346      1.0  0.14995  0.92870  0.65112  1.0000
  H   H347      1.0  0.21626  0.99867  0.69355  1.0000
  S   S88       1.0  0.32488  0.98451  0.73695  1.0000
  N   N23       1.0  0.20746  0.97000  0.76814  1.0000
  C   C222      1.0  0.49964  0.86551  0.75199  1.0000
  Fe  Fe47      1.0  0.09700  0.01831  0.65942  1.0000
  H   H348      1.0  0.09382  0.61207  0.79545  1.0000
  H   H349      1.0  0.16545  0.97576  0.74541  1.0000
  C   C223      1.0  0.48559  0.89788  0.71962  1.0000
  S   S89       1.0  0.06539  0.00949  0.73317  1.0000
  H   H350      1.0  0.23913  0.96373  0.79524  1.0000
  H   H351      1.0  0.22317  0.99623  0.74600  1.0000
  H   H352      1.0  0.28805  0.60607  0.77017  1.0000
  H   H353      1.0  0.05988  0.94333  0.61918  1.0000
  H   H354      1.0  0.27213  0.55752  0.69610  1.0000
  S   S90       1.0  0.04622  0.00581  0.67459  1.0000
  H   H355      1.0  0.07604  0.67151  0.58150  1.0000
  C   C224      1.0  0.02764  0.92156  0.59968  1.0000
  S   S91       1.0  0.08730  0.54783  0.70112  1.0000
  C   C225      1.0  0.26234  0.54774  0.70907  1.0000
  S   S92       1.0  0.11641  0.54726  0.65469  1.0000
  H   H356      1.0  0.51524  0.92241  0.75560  1.0000
  C   C226      1.0  0.27316  0.53093  0.74267  1.0000
  S   S93       1.0  0.40763  0.53746  0.77462  1.0000
  H   H357      1.0  0.03316  0.65673  0.60727  1.0000
  H   H358      1.0  0.51223  0.56198  0.77657  1.0000
  H   H359      1.0  0.04460  0.92420  0.58657  1.0000
  C   C227      1.0  0.03637  0.93233  0.61813  1.0000
  S   S94       1.0  0.02646  0.93897  0.65917  1.0000
  S   S95       1.0  0.32122  0.96436  0.79119  1.0000
  C   C228      1.0  0.20993  0.96629  0.79019  1.0000
  H   H360      1.0  0.51813  0.60591  0.77918  1.0000
  H   H361      1.0  0.19623  0.94958  0.79503  1.0000
  S   S96       1.0  0.26501  0.90689  0.79755  1.0000
  Fe  Fe48      1.0  0.31850  0.92357  0.79119  1.0000
  H   H362      1.0  0.02758  0.01001  0.77133  1.0000
  H   H363      1.0  0.47246  0.55836  0.86754  1.0000
  C   C229      1.0  0.51333  0.66949  0.98101  1.0000
  Fe  Fe49      1.0  0.44577  0.63529  0.02332  1.0000
  S   S97       1.0  0.40008  0.61430  0.03598  1.0000
  S   S98       1.0  0.50280  0.61886  0.01596  1.0000
  Fe  Fe50      1.0  0.36269  0.63912  0.01668  1.0000
  S   S99       1.0  0.31201  0.62431  0.00303  1.0000
  S   S100      1.0  0.40902  0.65722  0.00174  1.0000
  C   C230      1.0  0.07964  0.62292  0.83416  1.0000
  H   H364      1.0  0.24614  0.61940  0.83132  1.0000
  C   C231      1.0  0.51383  0.02709  0.00493  1.0000
  S   S101      1.0  0.17996  0.64608  0.91800  1.0000
  Fe  Fe51      1.0  0.18562  0.65262  0.86003  1.0000
  S   S102      1.0  0.20250  0.61727  0.87588  1.0000
  S   S103      1.0  0.18445  0.65561  0.82636  1.0000
  Fe  Fe52      1.0  0.15110  0.62581  0.89404  1.0000
  S   S104      1.0  0.11343  0.59530  0.89872  1.0000
  Fe  Fe53      1.0  0.22969  0.64092  0.89817  1.0000
  S   S105      1.0  0.28839  0.63444  0.90887  1.0000
  S   S106      1.0  0.13230  0.65969  0.87658  1.0000
  S   S107      1.0  0.21756  0.67579  0.88046  1.0000
  H   H365      1.0  0.31670  0.59003  0.84678  1.0000
  C   C232      1.0  0.22880  0.65321  0.81589  1.0000
  C   C233      1.0  0.25357  0.63305  0.82041  1.0000
  C   C234      1.0  0.33476  0.58521  0.88591  1.0000
  H   H366      1.0  0.31895  0.62827  0.86669  1.0000
  H   H367      1.0  0.14383  0.57443  0.83510  1.0000
  H   H368      1.0  0.14883  0.60574  0.84253  1.0000
  C   C235      1.0  0.06821  0.60187  0.88994  1.0000
  H   H369      1.0  0.30467  0.58959  0.88364  1.0000
  H   H370      1.0  0.47506  0.72807  0.98531  1.0000
  H   H371      1.0  0.06504  0.64017  0.89810  1.0000
  H   H372      1.0  0.09881  0.63785  0.83596  1.0000
  H   H373      1.0  0.35235  0.56562  0.84977  1.0000
  H   H374      1.0  0.06723  0.61964  0.84915  1.0000
  H   H375      1.0  0.13025  0.58870  0.80016  1.0000
  H   H376      1.0  0.06275  0.56468  0.88021  1.0000
  H   H377      1.0  0.30115  0.80806  0.83760  1.0000
  C   C236      1.0  0.30633  0.62665  0.97679  1.0000
  C   C237      1.0  0.33508  0.63295  0.96421  1.0000
  C   C238      1.0  0.32951  0.63491  0.94330  1.0000
  C   C239      1.0  0.29510  0.63086  0.93496  1.0000
  C   C240      1.0  0.26648  0.62439  0.94752  1.0000
  C   C241      1.0  0.27212  0.62222  0.96838  1.0000
  H   H378      1.0  0.36166  0.63612  0.97054  1.0000
  H   H379      1.0  0.35183  0.63979  0.93362  1.0000
  H   H380      1.0  0.24013  0.62067  0.94117  1.0000
  H   H381      1.0  0.24989  0.61711  0.97803  1.0000
  C   C242      1.0  0.26318  0.58394  0.04412  1.0000
  C   C243      1.0  0.48943  0.59682  0.95845  1.0000
  C   C244      1.0  0.48228  0.60640  0.97773  1.0000
  H   H382      1.0  0.09194  0.79730  0.91222  1.0000
  C   C245      1.0  0.39621  0.59026  0.87366  1.0000
  H   H383      1.0  0.22209  0.73277  0.97131  1.0000
  H   H384      1.0  0.46770  0.59765  0.94730  1.0000
  H   H385      1.0  0.45516  0.61455  0.98137  1.0000
  H   H386      1.0  0.06000  0.57629  0.83874  1.0000
  H   H387      1.0  0.46275  0.96719  0.81037  1.0000
  H   H388      1.0  0.05688  0.62988  0.82399  1.0000
  C   C246      1.0  0.05091  0.62561  0.89115  1.0000
  H   H389      1.0  0.41383  0.92346  0.87259  1.0000
  H   H390      1.0  0.33976  0.56481  0.88645  1.0000
  C   C247      1.0  0.48430  0.99023  0.99602  1.0000
  H   H391      1.0  0.11560  0.81084  0.87946  1.0000
  C   C248      1.0  0.34646  0.58598  0.85017  1.0000
  C   C249      1.0  0.34875  0.62318  0.86940  1.0000
  C   C250      1.0  0.22878  0.72910  0.95521  1.0000
  N   N24       1.0  0.09903  0.60021  0.82630  1.0000
  H   H392      1.0  0.34178  0.59242  0.90098  1.0000
  H   H393      1.0  0.41353  0.59793  0.86163  1.0000
  H   H394      1.0  0.03562  0.95672  0.86905  1.0000
  H   H395      1.0  0.50773  0.94605  0.86778  1.0000
  H   H396      1.0  0.22622  0.70407  0.92080  1.0000
  C   C251      1.0  0.46885  0.97632  0.82426  1.0000
  H   H397      1.0  0.27301  0.71070  0.92550  1.0000
  H   H398      1.0  0.49091  0.00861  0.87436  1.0000
  H   H399      1.0  0.33269  0.58256  0.03031  1.0000
  H   H400      1.0  0.25719  0.56455  0.04108  1.0000
  H   H401      1.0  0.36456  0.63195  0.85728  1.0000
  H   H402      1.0  0.36256  0.59385  0.83771  1.0000
  H   H403      1.0  0.48222  0.90974  0.91309  1.0000
  Fe  Fe54      1.0  0.40273  0.68494  0.02672  1.0000
  C   C252      1.0  0.11538  0.60547  0.80650  1.0000
  H   H404      1.0  0.40303  0.56998  0.87398  1.0000
  H   H405      1.0  0.18682  0.69123  0.94906  1.0000
  H   H406      1.0  0.35601  0.63154  0.88398  1.0000
  H   H407      1.0  0.20344  0.73416  0.94627  1.0000
  C   C253      1.0  0.06367  0.80278  0.90664  1.0000
  Fe  Fe55      1.0  0.37771  0.95727  0.80465  1.0000
  N   N25       1.0  0.35655  0.59616  0.86980  1.0000
  Fe  Fe56      1.0  0.16582  0.67946  0.89874  1.0000
  S   S108      1.0  0.42707  0.55663  0.83263  1.0000
  C   C254      1.0  0.51878  0.93505  0.96047  1.0000
  H   H408      1.0  0.30594  0.61422  0.81326  1.0000
  H   H409      1.0  0.24997  0.74179  0.95053  1.0000
  H   H410      1.0  0.49043  0.95912  0.89095  1.0000
  C   C255      1.0  0.25059  0.69923  0.93054  1.0000
  H   H411      1.0  0.40488  0.59774  0.88832  1.0000
  C   C256      1.0  0.04949  0.58307  0.88118  1.0000
  H   H412      1.0  0.05189  0.76108  0.88726  1.0000
  C   C257      1.0  0.21235  0.68705  0.95807  1.0000
  S   S109      1.0  0.35321  0.66841  0.04004  1.0000
  H   H413      1.0  0.13545  0.61995  0.80770  1.0000
  H   H414      1.0  0.46112  0.88769  0.87347  1.0000
  H   H415      1.0  0.50728  0.89225  0.88160  1.0000
  H   H416      1.0  0.30619  0.62166  0.04556  1.0000
  C   C258      1.0  0.50648  0.92372  0.00117  1.0000
  H   H417      1.0  0.06870  0.77039  0.86307  1.0000
  N   N26       1.0  0.24170  0.70306  0.95206  1.0000
  H   H418      1.0  0.20493  0.68942  0.97423  1.0000
  C   C259      1.0  0.50549  0.98061  0.82919  1.0000
  C   C260      1.0  0.48499  0.99949  0.86046  1.0000
  S   S110      1.0  0.14812  0.71447  0.91481  1.0000
  H   H419      1.0  0.47761  0.97741  0.98376  1.0000
  H   H420      1.0  0.23955  0.85333  0.86583  1.0000
  Fe  Fe57      1.0  0.16667  0.87115  0.93135  1.0000
  S   S111      1.0  0.20762  0.87041  0.90615  1.0000
  S   S112      1.0  0.18324  0.86948  0.96411  1.0000
  Fe  Fe58      1.0  0.10128  0.87596  0.90234  1.0000
  S   S113      1.0  0.13768  0.87598  0.87509  1.0000
  Fe  Fe59      1.0  0.17073  0.84536  0.89088  1.0000
  S   S114      1.0  0.19334  0.81249  0.87320  1.0000
  Fe  Fe60      1.0  0.17082  0.90112  0.89321  1.0000
  S   S115      1.0  0.20047  0.93375  0.88298  1.0000
  S   S116      1.0  0.13212  0.84358  0.91708  1.0000
  S   S117      1.0  0.13178  0.90370  0.91936  1.0000
  H   H421      1.0  0.47299  0.68458  0.01304  1.0000
  Fe  Fe61      1.0  0.37202  0.89189  0.01063  1.0000
  S   S118      1.0  0.42435  0.86832  0.01628  1.0000
  S   S119      1.0  0.34833  0.89257  0.97926  1.0000
  H   H422      1.0  0.25615  0.87983  0.85367  1.0000
  N   N27       1.0  0.06099  0.79963  0.88461  1.0000
  Fe  Fe62      1.0  0.44297  0.90214  0.03129  1.0000
  C   C261      1.0  0.51032  0.60560  0.99212  1.0000
  H   H423      1.0  0.28545  0.67736  0.96220  1.0000
  S   S120      1.0  0.39241  0.92628  0.02369  1.0000
  H   H424      1.0  0.42635  0.00154  0.86555  1.0000
  H   H425      1.0  0.45049  0.93637  0.91271  1.0000
  C   C262      1.0  0.40700  0.77330  0.01788  1.0000
  H   H426      1.0  0.22440  0.83565  0.83359  1.0000
  C   C263      1.0  0.51368  0.99204  0.84739  1.0000
  H   H427      1.0  0.26926  0.69927  0.98073  1.0000
  C   C264      1.0  0.47976  0.91956  0.98672  1.0000
  C   C265      1.0  0.49969  0.69290  0.01110  1.0000
  C   C266      1.0  0.40431  0.79567  0.02843  1.0000
  H   H428      1.0  0.46518  0.92174  0.95534  1.0000
  H   H429      1.0  0.45424  0.91202  0.99118  1.0000
  C   C267      1.0  0.23021  0.87241  0.96926  1.0000
  C   C268      1.0  0.24116  0.87946  0.98850  1.0000
  C   C269      1.0  0.27791  0.88470  0.99210  1.0000
  C   C270      1.0  0.30365  0.88291  0.97642  1.0000
  C   C271      1.0  0.29299  0.87485  0.95750  1.0000
  C   C272      1.0  0.25653  0.86940  0.95401  1.0000
  H   H430      1.0  0.22100  0.88164  0.00045  1.0000
  H   H431      1.0  0.28595  0.89096  0.00676  1.0000
  H   H432      1.0  0.31300  0.87297  0.94546  1.0000
  H   H433      1.0  0.24898  0.86274  0.93954  1.0000
  H   H434      1.0  0.48738  0.65996  0.98255  1.0000
  H   H435      1.0  0.49551  0.54026  0.96245  1.0000
  H   H436      1.0  0.25877  0.83130  0.81419  1.0000
  C   C273      1.0  0.24596  0.91670  0.82051  1.0000
  C   C274      1.0  0.21100  0.90974  0.82588  1.0000
  C   C275      1.0  0.19650  0.91570  0.84488  1.0000
  C   C276      1.0  0.21671  0.92886  0.85845  1.0000
  C   C277      1.0  0.25101  0.93679  0.85274  1.0000
  C   C278      1.0  0.26578  0.93058  0.83378  1.0000
  S   S121      1.0  0.44249  0.66393  0.04754  1.0000
  H   H437      1.0  0.16953  0.91024  0.84897  1.0000
  H   H438      1.0  0.26664  0.94710  0.86318  1.0000
  H   H439      1.0  0.29274  0.93615  0.82963  1.0000
  C   C279      1.0  0.16307  0.74103  0.90324  1.0000
  C   C280      1.0  0.17415  0.74101  0.88306  1.0000
  C   C281      1.0  0.18451  0.76287  0.87395  1.0000
  C   C282      1.0  0.18417  0.78463  0.88508  1.0000
  C   C283      1.0  0.17441  0.78430  0.90543  1.0000
  C   C284      1.0  0.16322  0.76270  0.91439  1.0000
  H   H440      1.0  0.17375  0.72437  0.87430  1.0000
  H   H441      1.0  0.19208  0.76299  0.85819  1.0000
  H   H442      1.0  0.17580  0.80062  0.91437  1.0000
  H   H443      1.0  0.15481  0.76281  0.93002  1.0000
  C   C285      1.0  0.40479  0.75075  0.02807  1.0000
  H   H444      1.0  0.18733  0.97371  0.94090  1.0000
  C   C286      1.0  0.08687  0.81528  0.87432  1.0000
  H   H445      1.0  0.05701  0.82233  0.91098  1.0000
  H   H446      1.0  0.40591  0.81291  0.02039  1.0000
  N   N28       1.0  0.23402  0.94715  0.94237  1.0000
  C   C287      1.0  0.20206  0.95927  0.93158  1.0000
  C   C288      1.0  0.22134  0.93573  0.96116  1.0000
  C   C289      1.0  0.26055  0.96554  0.94728  1.0000
  H   H447      1.0  0.49099  0.90444  0.85773  1.0000
  H   H448      1.0  0.18187  0.94572  0.92741  1.0000
  H   H449      1.0  0.25969  0.67968  0.92751  1.0000
  H   H450      1.0  0.08641  0.81291  0.85771  1.0000
  H   H451      1.0  0.20141  0.92160  0.95801  1.0000
  H   H452      1.0  0.24481  0.92637  0.96963  1.0000
  H   H453      1.0  0.20741  0.94957  0.97134  1.0000
  H   H454      1.0  0.28490  0.95685  0.95552  1.0000
  H   H455      1.0  0.24776  0.98035  0.95700  1.0000
  H   H456      1.0  0.48337  0.53255  0.80671  1.0000
  H   H457      1.0  0.32450  0.55353  0.04195  1.0000
  H   H458      1.0  0.19532  0.89940  0.81549  1.0000
  H   H459      1.0  0.27087  0.97437  0.93340  1.0000
  H   H460      1.0  0.06543  0.92115  0.88778  1.0000
  H   H461      1.0  0.22105  0.66728  0.95579  1.0000
  S   S122      1.0  0.34484  0.88085  0.03924  1.0000
  C   C290      1.0  0.45885  0.91909  0.90451  1.0000
  H   H462      1.0  0.32136  0.84543  0.81968  1.0000
  H   H463      1.0  0.42726  0.95355  0.87894  1.0000
  H   H464      1.0  0.43553  0.90697  0.90524  1.0000
  H   H465      1.0  0.29769  0.70863  0.96033  1.0000
  H   H466      1.0  0.08007  0.83514  0.87738  1.0000
  C   C291      1.0  0.12857  0.59156  0.84047  1.0000
  H   H467      1.0  0.09916  0.76765  0.88430  1.0000
  C   C292      1.0  0.23853  0.67084  0.80182  1.0000
  Fe  Fe63      1.0  0.40575  0.56290  0.80102  1.0000
  H   H468      1.0  0.21060  0.96805  0.91727  1.0000
  C   C293      1.0  0.49523  0.53528  0.82140  1.0000
  C   C294      1.0  0.49923  0.94148  0.88338  1.0000
  C   C295      1.0  0.28732  0.63001  0.81010  1.0000
  H   H469      1.0  0.04430  0.79139  0.91487  1.0000
  C   C296      1.0  0.25220  0.92795  0.92945  1.0000
  C   C297      1.0  0.48280  0.90111  0.87363  1.0000
  H   H470      1.0  0.31195  0.82100  0.86155  1.0000
  N   N29       1.0  0.46951  0.92431  0.88349  1.0000
  C   C298      1.0  0.44016  0.98386  0.83736  1.0000
  C   C299      1.0  0.03824  0.91994  0.88145  1.0000
  C   C300      1.0  0.27497  0.69685  0.96437  1.0000
  S   S123      1.0  0.49822  0.91763  0.02670  1.0000
  C   C301      1.0  0.07050  0.77354  0.87956  1.0000
  H   H471      1.0  0.04969  0.58687  0.81366  1.0000
  C   C302      1.0  0.48601  0.92508  0.96641  1.0000
  H   H472      1.0  0.27716  0.91897  0.93684  1.0000
  C   C303      1.0  0.07265  0.58096  0.82408  1.0000
  N   N30       1.0  0.50930  0.69454  0.98955  1.0000
  H   H473      1.0  0.26070  0.93569  0.91473  1.0000
  S   S124      1.0  0.40884  0.72322  0.01400  1.0000
  H   H474      1.0  0.28525  0.86210  0.87096  1.0000
  H   H475      1.0  0.11724  0.58742  0.85560  1.0000
  H   H476      1.0  0.26573  0.59342  0.02927  1.0000
  H   H477      1.0  0.41067  0.77355  0.00172  1.0000
  C   C304      1.0  0.44840  0.99557  0.85539  1.0000
  H   H478      1.0  0.48607  0.71134  0.96252  1.0000
  H   H479      1.0  0.24058  0.86168  0.82031  1.0000
  S   S125      1.0  0.39405  0.97750  0.83262  1.0000
  Fe  Fe64      1.0  0.39870  0.85978  0.04612  1.0000
  N   N31       1.0  0.27859  0.84520  0.84209  1.0000
  C   C305      1.0  0.29016  0.82033  0.84986  1.0000
  C   C306      1.0  0.24928  0.84334  0.82689  1.0000
  C   C307      1.0  0.31045  0.85633  0.83276  1.0000
  H   H480      1.0  0.30275  0.87529  0.82707  1.0000
  H   H481      1.0  0.49653  0.71141  0.01819  1.0000
  C   C308      1.0  0.47967  0.70930  0.97879  1.0000
  H   H482      1.0  0.45290  0.70063  0.98000  1.0000
  H   H483      1.0  0.26661  0.81142  0.85688  1.0000
  C   C309      1.0  0.26432  0.86079  0.85888  1.0000
  C   C310      1.0  0.43725  0.93551  0.87240  1.0000
  C   C311      1.0  0.48893  0.54963  0.85570  1.0000
  S   S126      1.0  0.37194  0.91668  0.80755  1.0000
  H   H484      1.0  0.23333  0.91332  0.92611  1.0000
  H   H485      1.0  0.33332  0.85770  0.84371  1.0000
  H   H486      1.0  0.08616  0.56355  0.81803  1.0000
  H   H487      1.0  0.44402  0.93891  0.85632  1.0000
  H   H488      1.0  0.45796  0.99677  0.00335  1.0000
  C   C312      1.0  0.47359  0.54660  0.83661  1.0000
  H   H489      1.0  0.47446  0.01377  0.96025  1.0000
  N   N32       1.0  0.50444  0.01095  0.98817  1.0000
  C   C313      1.0  0.48124  0.02528  0.97335  1.0000
  H   H490      1.0  0.52068  0.68124  0.01973  1.0000
  S   S127      1.0  0.04020  0.87357  0.89801  1.0000
  H   H491      1.0  0.50091  0.97912  0.00739  1.0000
  C   C314      1.0  0.32861  0.57320  0.04505  1.0000
  H   H492      1.0  0.19672  0.98225  0.79847  1.0000
  H   H493      1.0  0.52052  0.66983  0.96473  1.0000
  H   H494      1.0  0.21956  0.68653  0.79840  1.0000
  H   H495      1.0  0.88241  0.16317  0.19275  1.0000
  Fe  Fe65      1.0  0.81528  0.34281  0.21947  1.0000
  S   S128      1.0  0.79693  0.30833  0.23396  1.0000
  H   H496      1.0  0.97989  0.44307  0.28495  1.0000
  H   H497      1.0  0.92069  0.40388  0.18604  1.0000
  H   H498      1.0  0.83388  0.29605  0.19593  1.0000
  H   H499      1.0  0.97284  0.15481  0.21918  1.0000
  H   H500      1.0  0.63646  0.13813  0.28021  1.0000
  H   H501      1.0  0.96916  0.37587  0.13162  1.0000
  Fe  Fe66      1.0  0.57301  0.12231  0.09539  1.0000
  S   S129      1.0  0.62634  0.10846  0.08165  1.0000
  H   H502      1.0  0.91093  0.14275  0.20858  1.0000
  Fe  Fe67      1.0  0.57217  0.17015  0.07106  1.0000
  N   N33       1.0  0.71587  0.34593  0.26551  1.0000
  Fe  Fe68      1.0  0.64424  0.14627  0.08586  1.0000
  S   S130      1.0  0.69903  0.15392  0.09891  1.0000
  C   C315      1.0  0.72248  0.32096  0.27430  1.0000
  S   S131      1.0  0.59290  0.15932  0.10190  1.0000
  Fe  Fe69      1.0  0.74516  0.13969  0.20824  1.0000
  S   S132      1.0  0.74132  0.18023  0.21453  1.0000
  S   S133      1.0  0.70141  0.12160  0.19080  1.0000
  Fe  Fe70      1.0  0.81742  0.12998  0.23076  1.0000
  S   S134      1.0  0.81999  0.16960  0.23889  1.0000
  S   S135      1.0  0.85989  0.09935  0.23909  1.0000
  Fe  Fe71      1.0  0.75991  0.16884  0.24564  1.0000
  S   S136      1.0  0.74158  0.18898  0.27361  1.0000
  Fe  Fe72      1.0  0.80161  0.17767  0.20729  1.0000
  S   S137      1.0  0.82846  0.20668  0.18945  1.0000
  S   S138      1.0  0.75842  0.12833  0.24020  1.0000
  S   S139      1.0  0.80420  0.13797  0.19827  1.0000
  C   C316      1.0  0.90776  0.13300  0.25133  1.0000
  C   C317      1.0  0.90355  0.10876  0.24550  1.0000
  H   H503      1.0  0.88414  0.14595  0.25236  1.0000
  S   S140      1.0  0.54396  0.20868  0.07090  1.0000
  C   C318      1.0  0.70034  0.14460  0.12435  1.0000
  C   C319      1.0  0.67500  0.12857  0.13170  1.0000
  C   C320      1.0  0.67603  0.12116  0.15198  1.0000
  C   C321      1.0  0.70162  0.13032  0.16520  1.0000
  C   C322      1.0  0.72680  0.14653  0.15789  1.0000
  C   C323      1.0  0.72649  0.15340  0.13744  1.0000
  H   H504      1.0  0.65477  0.12159  0.12174  1.0000
  H   H505      1.0  0.65694  0.10829  0.15736  1.0000
  H   H506      1.0  0.74654  0.15382  0.16798  1.0000
  H   H507      1.0  0.74627  0.16573  0.13188  1.0000
  S   S141      1.0  0.56916  0.06659  0.25136  1.0000
  H   H508      1.0  0.64779  0.45307  0.07203  1.0000
  H   H509      1.0  0.97774  0.17226  0.17541  1.0000
  H   H510      1.0  0.69988  0.36239  0.23702  1.0000
  H   H511      1.0  0.97911  0.36272  0.17718  1.0000
  H   H512      1.0  0.65978  0.35098  0.27590  1.0000
  Fe  Fe73      1.0  0.60317  0.12211  0.05193  1.0000
  H   H513      1.0  0.75906  0.36129  0.28244  1.0000
  C   C324      1.0  0.70077  0.18009  0.28446  1.0000
  C   C325      1.0  0.68233  0.16063  0.27661  1.0000
  H   H514      1.0  0.71174  0.06894  0.28006  1.0000
  C   C326      1.0  0.68639  0.35978  0.27690  1.0000
  C   C327      1.0  0.56877  0.23447  0.06476  1.0000
  H   H515      1.0  0.72613  0.33347  0.23523  1.0000
  S   S142      1.0  0.85758  0.34588  0.19533  1.0000
  Fe  Fe74      1.0  0.58310  0.07160  0.28414  1.0000
  H   H516      1.0  0.99326  0.08615  0.24999  1.0000
  H   H517      1.0  0.93467  0.42462  0.16697  1.0000
  C   C328      1.0  0.55927  0.25712  0.07404  1.0000
  C   C329      1.0  0.57670  0.27843  0.06843  1.0000
  H   H518      1.0  0.55977  0.10076  0.21615  1.0000
  C   C330      1.0  0.94148  0.40629  0.17407  1.0000
  C   C331      1.0  0.80610  0.28046  0.22112  1.0000
  C   C332      1.0  0.79419  0.25882  0.22965  1.0000
  C   C333      1.0  0.80093  0.23625  0.21987  1.0000
  C   C334      1.0  0.81981  0.23512  0.20153  1.0000
  C   C335      1.0  0.83186  0.25674  0.19294  1.0000
  C   C336      1.0  0.82487  0.27943  0.20269  1.0000
  H   H519      1.0  0.77964  0.25946  0.24387  1.0000
  H   H520      1.0  0.79138  0.21977  0.22664  1.0000
  H   H521      1.0  0.84630  0.25599  0.17870  1.0000
  N   N34       1.0  0.67006  0.23114  0.10489  1.0000
  C   C337      1.0  0.70733  0.21857  0.10365  1.0000
  C   C338      1.0  0.66386  0.24090  0.12542  1.0000
  C   C339      1.0  0.64232  0.21339  0.10041  1.0000
  C   C340      1.0  0.66671  0.25164  0.09013  1.0000
  H   H522      1.0  0.71094  0.20329  0.11490  1.0000
  H   H523      1.0  0.72910  0.23146  0.10655  1.0000
  H   H524      1.0  0.71250  0.21026  0.08855  1.0000
  H   H525      1.0  0.63591  0.25046  0.12689  1.0000
  H   H526      1.0  0.66623  0.22586  0.13693  1.0000
  H   H527      1.0  0.68433  0.25437  0.12933  1.0000
  H   H528      1.0  0.61372  0.22207  0.10131  1.0000
  H   H529      1.0  0.64451  0.19754  0.11115  1.0000
  H   H530      1.0  0.64598  0.20571  0.08498  1.0000
  H   H531      1.0  0.68744  0.26533  0.09287  1.0000
  H   H532      1.0  0.63904  0.26168  0.09088  1.0000
  H   H533      1.0  0.67062  0.24491  0.07443  1.0000
  N   N35       1.0  0.70710  0.06039  0.24864  1.0000
  C   C341      1.0  0.71741  0.07690  0.26496  1.0000
  H   H534      1.0  0.71270  0.45829  0.06176  1.0000
  S   S143      1.0  0.01664  0.13426  0.26138  1.0000
  H   H535      1.0  0.70723  0.10093  0.08462  1.0000
  C   C342      1.0  0.75006  0.35901  0.26661  1.0000
  S   S144      1.0  0.00886  0.47182  0.24907  1.0000
  H   H536      1.0  0.65839  0.04440  0.23779  1.0000
  C   C343      1.0  0.59182  0.13602  0.17837  1.0000
  C   C344      1.0  0.60308  0.27736  0.05308  1.0000
  H   H537      1.0  0.60384  0.11340  0.21427  1.0000
  H   H538      1.0  0.65026  0.07438  0.24847  1.0000
  H   H539      1.0  0.56260  0.13351  0.21544  1.0000
  H   H540      1.0  0.70966  0.36501  0.10153  1.0000
  H   H541      1.0  0.90773  0.41745  0.29149  1.0000
  H   H542      1.0  0.70756  0.05984  0.21620  1.0000
  H   H543      1.0  0.94922  0.21184  0.18971  1.0000
  H   H544      1.0  0.93126  0.07290  0.24100  1.0000
  H   H545      1.0  0.93309  0.16338  0.16789  1.0000
  H   H546      1.0  0.72040  0.05475  0.05849  1.0000
  C   C345      1.0  0.95306  0.16305  0.18062  1.0000
  C   C346      1.0  0.57465  0.11584  0.20915  1.0000
  H   H547      1.0  0.69205  0.15174  0.26293  1.0000
  H   H548      1.0  0.74448  0.30997  0.26597  1.0000
  S   S145      1.0  0.63432  0.08986  0.29209  1.0000
  C   C347      1.0  0.90372  0.16248  0.20482  1.0000
  C   C348      1.0  0.96939  0.09918  0.25053  1.0000
  H   H549      1.0  0.94551  0.15919  0.26107  1.0000
  C   C349      1.0  0.92518  0.20126  0.19369  1.0000
  H   H550      1.0  0.91066  0.21065  0.20660  1.0000
  H   H551      1.0  0.90566  0.20275  0.18075  1.0000
  H   H552      1.0  0.73521  0.43274  0.11325  1.0000
  H   H553      1.0  0.89054  0.17125  0.21832  1.0000
  C   C350      1.0  0.94256  0.14040  0.25646  1.0000
  H   H554      1.0  0.99675  0.39134  0.14933  1.0000
  H   H555      1.0  0.98870  0.18367  0.21101  1.0000
  H   H556      1.0  0.56945  0.29569  0.07585  1.0000
  C   C351      1.0  0.93438  0.09175  0.24536  1.0000
  H   H557      1.0  0.95190  0.18311  0.22896  1.0000
  H   H558      1.0  0.96189  0.14340  0.18389  1.0000
  H   H559      1.0  0.68209  0.11938  0.05269  1.0000
  N   N36       1.0  0.93642  0.17525  0.19857  1.0000
  C   C352      1.0  0.96363  0.17418  0.21513  1.0000
  C   C353      1.0  0.97348  0.12363  0.25586  1.0000
  C   C354      1.0  0.53284  0.11853  0.18081  1.0000
  H   H560      1.0  0.57445  0.07604  0.18552  1.0000
  H   H561      1.0  0.53007  0.11932  0.16410  1.0000
  H   H562      1.0  0.74728  0.08010  0.26442  1.0000
  H   H563      1.0  0.98373  0.10843  0.29665  1.0000
  C   C355      1.0  0.65121  0.15268  0.28655  1.0000
  H   H564      1.0  0.95391  0.34691  0.15844  1.0000
  H   H565      1.0  0.93771  0.49195  0.29284  1.0000
  H   H566      1.0  0.70177  0.09521  0.26386  1.0000
  S   S146      1.0  0.81030  0.37718  0.14882  1.0000
  H   H567      1.0  0.91825  0.10648  0.28656  1.0000
  H   H568      1.0  0.54165  0.46474  0.19424  1.0000
  H   H569      1.0  0.78047  0.07197  0.05172  1.0000
  S   S147      1.0  0.57983  0.35033  0.08512  1.0000
  N   N37       1.0  0.92536  0.45401  0.29549  1.0000
  C   C356      1.0  0.66732  0.05664  0.24992  1.0000
  H   H570      1.0  0.59148  0.13580  0.16157  1.0000
  H   H571      1.0  0.77547  0.36372  0.11192  1.0000
  C   C357      1.0  0.52963  0.41784  0.20358  1.0000
  C   C358      1.0  0.00938  0.42189  0.24338  1.0000
  H   H572      1.0  0.58697  0.09105  0.16258  1.0000
  H   H573      1.0  0.73142  0.32168  0.29029  1.0000
  H   H574      1.0  0.96010  0.06898  0.28585  1.0000
  S   S148      1.0  0.83938  0.37038  0.23953  1.0000
  C   C359      1.0  0.53348  0.44584  0.23140  1.0000
  C   C360      1.0  0.96842  0.39067  0.14311  1.0000
  C   C361      1.0  0.90440  0.38540  0.15047  1.0000
  S   S149      1.0  0.93970  0.37463  0.22054  1.0000
  Fe  Fe75      1.0  0.80182  0.39821  0.22327  1.0000
  S   S150      1.0  0.77396  0.42814  0.24214  1.0000
  S   S151      1.0  0.84327  0.40609  0.19939  1.0000
  Fe  Fe76      1.0  0.55141  0.38200  0.06816  1.0000
  S   S152      1.0  0.59256  0.40863  0.07621  1.0000
  C   C362      1.0  0.70459  0.34396  0.24423  1.0000
  H   H575      1.0  0.72592  0.44648  0.27356  1.0000
  C   C363      1.0  0.65761  0.45326  0.08793  1.0000
  C   C364      1.0  0.71695  0.37135  0.11629  1.0000
  H   H576      1.0  0.66003  0.44147  0.28059  1.0000
  H   H577      1.0  0.96861  0.40680  0.18178  1.0000
  H   H578      1.0  0.67854  0.40578  0.08960  1.0000
  H   H579      1.0  0.55870  0.42016  0.19917  1.0000
  H   H580      1.0  0.96127  0.40849  0.13522  1.0000
  H   H581      1.0  0.68151  0.37889  0.27100  1.0000
  Fe  Fe77      1.0  0.58866  0.43238  0.28887  1.0000
  H   H582      1.0  0.74505  0.07466  0.22733  1.0000
  H   H583      1.0  0.00889  0.38276  0.23877  1.0000
  N   N38       1.0  0.69593  0.44249  0.08973  1.0000
  H   H584      1.0  0.88369  0.38206  0.16233  1.0000
  H   H585      1.0  0.72630  0.40796  0.08366  1.0000
  C   C365      1.0  0.90769  0.43543  0.28339  1.0000
  C   C366      1.0  0.58868  0.09190  0.17933  1.0000
  C   C367      1.0  0.95214  0.36240  0.16929  1.0000
  H   H586      1.0  0.87856  0.44147  0.27972  1.0000
  S   S153      1.0  0.60607  0.41488  0.25951  1.0000
  H   H587      1.0  0.65171  0.40131  0.22552  1.0000
  H   H588      1.0  0.53820  0.25818  0.08557  1.0000
  Fe  Fe78      1.0  0.62367  0.37644  0.09093  1.0000
  C   C368      1.0  0.72641  0.42635  0.24575  1.0000
  C   C369      1.0  0.70527  0.41392  0.23208  1.0000
  C   C370      1.0  0.66783  0.41126  0.23597  1.0000
  C   C371      1.0  0.65154  0.42091  0.25358  1.0000
  C   C372      1.0  0.67239  0.43393  0.26696  1.0000
  C   C373      1.0  0.70972  0.43674  0.26299  1.0000
  H   H589      1.0  0.71772  0.40643  0.21850  1.0000
  H   H590      1.0  0.69971  0.08986  0.22691  1.0000
  S   S154      1.0  0.65639  0.36659  0.06315  1.0000
  C   C374      1.0  0.95462  0.44618  0.23246  1.0000
  C   C375      1.0  0.93847  0.42467  0.22662  1.0000
  C   C376      1.0  0.95810  0.40177  0.22879  1.0000
  H   H591      1.0  0.93955  0.46391  0.23057  1.0000
  H   H592      1.0  0.91102  0.42586  0.22030  1.0000
  C   C377      1.0  0.69826  0.41721  0.08175  1.0000
  N   N39       1.0  0.57198  0.11558  0.18693  1.0000
  C   C378      1.0  0.72069  0.45753  0.07800  1.0000
  H   H593      1.0  0.67874  0.33437  0.24280  1.0000
  H   H594      1.0  0.68803  0.43102  0.12038  1.0000
  H   H595      1.0  0.65492  0.47264  0.09318  1.0000
  H   H596      1.0  0.75866  0.03855  0.24983  1.0000
  Fe  Fe79      1.0  0.81828  0.37569  0.18257  1.0000
  H   H597      1.0  0.52979  0.40171  0.21400  1.0000
  H   H598      1.0  0.70653  0.46055  0.11765  1.0000
  C   C379      1.0  0.68937  0.38022  0.12959  1.0000
  N   N40       1.0  0.94163  0.38620  0.15923  1.0000
  Fe  Fe80      1.0  0.87867  0.37578  0.21430  1.0000
  C   C380      1.0  0.76373  0.37823  0.14151  1.0000
  C   C381      1.0  0.73609  0.38701  0.15474  1.0000
  C   C382      1.0  0.70700  0.44176  0.11117  1.0000
  H   H599      1.0  0.92242  0.43197  0.26890  1.0000
  S   S155      1.0  0.64268  0.38342  0.12256  1.0000
  H   H600      1.0  0.61831  0.08918  0.18355  1.0000
  C   C383      1.0  0.69906  0.38799  0.14881  1.0000
  C   C384      1.0  0.98998  0.44480  0.24097  1.0000
  C   C385      1.0  0.99360  0.40045  0.23709  1.0000
  H   H601      1.0  0.89499  0.48485  0.28136  1.0000
  H   H602      1.0  0.63841  0.44268  0.09712  1.0000
  H   H603      1.0  0.69149  0.41702  0.06542  1.0000
  H   H604      1.0  0.77305  0.34881  0.25851  1.0000
  H   H605      1.0  0.67785  0.39498  0.15911  1.0000
  H   H606      1.0  0.89513  0.40303  0.14284  1.0000
  H   H607      1.0  0.93158  0.35795  0.18092  1.0000
  C   C386      1.0  0.75415  0.37061  0.12219  1.0000
  H   H608      1.0  0.71976  0.47678  0.08356  1.0000
  H   H609      1.0  0.74321  0.39347  0.16947  1.0000
  Fe  Fe81      1.0  0.60997  0.34265  0.05613  1.0000
  S   S156      1.0  0.55714  0.09810  0.12127  1.0000
  S   S157      1.0  0.77390  0.37014  0.20537  1.0000
  C   C387      1.0  0.72849  0.03641  0.25082  1.0000
  S   S158      1.0  0.58380  0.47340  0.29078  1.0000
  H   H610      1.0  0.66010  0.04807  0.26456  1.0000
  H   H611      1.0  0.74975  0.44970  0.07888  1.0000
  C   C388      1.0  0.71523  0.07162  0.22892  1.0000
  H   H612      1.0  0.52559  0.50801  0.26798  1.0000
  H   H613      1.0  0.69725  0.31057  0.27372  1.0000
  H   H614      1.0  0.90305  0.37034  0.13932  1.0000
  S   S159      1.0  0.54749  0.13352  0.06548  1.0000
  H   H615      1.0  0.74640  0.37769  0.25965  1.0000
  H   H616      1.0  0.62120  0.13483  0.18323  1.0000
  S   S160      1.0  0.62558  0.15958  0.05534  1.0000
  H   H617      1.0  0.67913  0.07480  0.05934  1.0000
  H   H618      1.0  0.75017  0.11364  0.07956  1.0000
  C   C389      1.0  0.73407  0.09735  0.07676  1.0000
  H   H619      1.0  0.69360  0.36120  0.29311  1.0000
  H   H620      1.0  0.53024  0.38548  0.10972  1.0000
  H   H621      1.0  0.56287  0.44857  0.22791  1.0000
  H   H622      1.0  0.74868  0.08109  0.08420  1.0000
  H   H623      1.0  0.53343  0.43052  0.24261  1.0000
  H   H624      1.0  0.93813  0.47570  0.26954  1.0000
  H   H625      1.0  0.57927  0.15423  0.18325  1.0000
  C   C390      1.0  0.92389  0.47767  0.28433  1.0000
  C   C391      1.0  0.59640  0.23316  0.05009  1.0000
  H   H626      1.0  0.52381  0.06435  0.21577  1.0000
  N   N41       1.0  0.72887  0.09332  0.05497  1.0000
  H   H627      1.0  0.61949  0.52334  0.29768  1.0000
  C   C392      1.0  0.70663  0.07192  0.05204  1.0000
  H   H628      1.0  0.99162  0.24677  0.53035  1.0000
  S   S161      1.0  0.92545  0.09840  0.43461  1.0000
  Fe  Fe82      1.0  0.56117  0.06715  0.32763  1.0000
  Fe  Fe83      1.0  0.59882  0.11166  0.31383  1.0000
  S   S162      1.0  0.76987  0.04322  0.40875  1.0000
  S   S163      1.0  0.61024  0.08519  0.33945  1.0000
  H   H629      1.0  0.95228  0.51673  0.32371  1.0000
  Fe  Fe84      1.0  0.89960  0.06275  0.42856  1.0000
  S   S164      1.0  0.87336  0.06133  0.39799  1.0000
  H   H630      1.0  0.72505  0.15632  0.32552  1.0000
  H   H631      1.0  0.69544  0.04934  0.39454  1.0000
  H   H632      1.0  0.92913  0.08856  0.50836  1.0000
  C   C393      1.0  0.72032  0.04557  0.34512  1.0000
  H   H633      1.0  0.92394  0.10052  0.34187  1.0000
  C   C394      1.0  0.91153  0.10221  0.30242  1.0000
  C   C395      1.0  0.93660  0.10643  0.45931  1.0000
  C   C396      1.0  0.92658  0.09249  0.47596  1.0000
  C   C397      1.0  0.93717  0.09916  0.49544  1.0000
  H   H634      1.0  0.91048  0.07675  0.47385  1.0000
  H   H635      1.0  0.00604  0.10770  0.43187  1.0000
  H   H636      1.0  0.66809  0.05068  0.36030  1.0000
  H   H637      1.0  0.72064  0.09665  0.36742  1.0000
  C   C398      1.0  0.69766  0.04824  0.36209  1.0000
  H   H638      1.0  0.53905  0.51979  0.30951  1.0000
  H   H639      1.0  0.98465  0.47581  0.47926  1.0000
  H   H640      1.0  0.66823  0.15101  0.34530  1.0000
  C   C399      1.0  0.00943  0.48081  0.36498  1.0000
  H   H641      1.0  0.99950  0.09462  0.31994  1.0000
  C   C400      1.0  0.00491  0.49836  0.33141  1.0000
  H   H642      1.0  0.76482  0.13551  0.32922  1.0000
  S   S165      1.0  0.90507  0.51128  0.35765  1.0000
  C   C401      1.0  0.63891  0.16396  0.30444  1.0000
  H   H643      1.0  0.87622  0.46375  0.31255  1.0000
  Fe  Fe85      1.0  0.86619  0.52645  0.42930  1.0000
  C   C402      1.0  0.97231  0.48840  0.36857  1.0000
  H   H644      1.0  0.91807  0.47146  0.32431  1.0000
  C   C403      1.0  0.73813  0.11014  0.36014  1.0000
  C   C404      1.0  0.98591  0.05028  0.37524  1.0000
  H   H645      1.0  0.66573  0.12519  0.36191  1.0000
  H   H646      1.0  0.98545  0.14852  0.48346  1.0000
  C   C405      1.0  0.75865  0.04207  0.34772  1.0000
  H   H647      1.0  0.92960  0.05329  0.30202  1.0000
  Fe  Fe86      1.0  0.64218  0.06187  0.31689  1.0000
  H   H648      1.0  0.90360  0.12001  0.30990  1.0000
  H   H649      1.0  0.64658  0.19320  0.32534  1.0000
  H   H650      1.0  0.97571  0.18166  0.51931  1.0000
  N   N42       1.0  0.71670  0.12599  0.34552  1.0000
  C   C406      1.0  0.95733  0.12686  0.46216  1.0000
  C   C407      1.0  0.95880  0.11921  0.49816  1.0000
  S   S166      1.0  0.54672  0.09585  0.30402  1.0000
  H   H651      1.0  0.80381  0.03867  0.36899  1.0000
  C   C408      1.0  0.65637  0.18415  0.31170  1.0000
  C   C409      1.0  0.68472  0.13861  0.35581  1.0000
  H   H652      1.0  0.96978  0.05402  0.38869  1.0000
  H   H653      1.0  0.96468  0.13792  0.44936  1.0000
  C   C410      1.0  0.55787  0.52860  0.32005  1.0000
  H   H654      1.0  0.72668  0.10084  0.32093  1.0000
  H   H655      1.0  0.69346  0.15000  0.36854  1.0000
  H   H656      1.0  0.83340  0.41271  0.46020  1.0000
  S   S167      1.0  0.97300  0.12718  0.52237  1.0000
  H   H657      1.0  0.99226  0.47335  0.52833  1.0000
  C   C411      1.0  0.70347  0.11069  0.32915  1.0000
  H   H658      1.0  0.75015  0.15676  0.34874  1.0000
  C   C412      1.0  0.96908  0.13292  0.48147  1.0000
  C   C413      1.0  0.74028  0.14445  0.33692  1.0000
  H   H659      1.0  0.68596  0.09644  0.33516  1.0000
  C   C414      1.0  0.71321  0.04737  0.38150  1.0000
  H   H660      1.0  0.99352  0.39678  0.48285  1.0000
  H   H661      1.0  0.80084  0.42558  0.47837  1.0000
  S   S168      1.0  0.85472  0.04379  0.44450  1.0000
  C   C415      1.0  0.95778  0.19008  0.53138  1.0000
  S   S169      1.0  0.60393  0.15193  0.31887  1.0000
  C   C416      1.0  0.99264  0.43638  0.48258  1.0000
  N   N43       1.0  0.94315  0.08885  0.31255  1.0000
  C   C417      1.0  0.93308  0.08348  0.33360  1.0000
  N   N44       1.0  0.78188  0.42749  0.44762  1.0000
  Fe  Fe87      1.0  0.52939  0.46867  0.30530  1.0000
  C   C418      1.0  0.99213  0.48009  0.54416  1.0000
  H   H662      1.0  0.95695  0.07473  0.34192  1.0000
  C   C419      1.0  0.76451  0.40379  0.44875  1.0000
  H   H663      1.0  0.99470  0.50034  0.54355  1.0000
  S   S170      1.0  0.70163  0.04703  0.32053  1.0000
  H   H664      1.0  0.77636  0.03986  0.33468  1.0000
  C   C420      1.0  0.75390  0.44795  0.45149  1.0000
  H   H665      1.0  0.93027  0.19496  0.52458  1.0000
  C   C421      1.0  0.95029  0.41299  0.46357  1.0000
  H   H666      1.0  0.91068  0.07058  0.33449  1.0000
  H   H667      1.0  0.81067  0.44823  0.42608  1.0000
  H   H668      1.0  0.74967  0.12112  0.37238  1.0000
  N   N45       1.0  0.97383  0.21175  0.54022  1.0000
  S   S171      1.0  0.54071  0.39688  0.35256  1.0000
  C   C422      1.0  0.97846  0.23045  0.52433  1.0000
  H   H669      1.0  0.74122  0.44635  0.46663  1.0000
  Fe  Fe88      1.0  0.55898  0.42600  0.33124  1.0000
  S   S172      1.0  0.55212  0.46666  0.33676  1.0000
  C   C423      1.0  0.81154  0.42774  0.46282  1.0000
  C   C424      1.0  0.95160  0.50136  0.35371  1.0000
  Fe  Fe89      1.0  0.60771  0.46756  0.32191  1.0000
  S   S173      1.0  0.65202  0.49341  0.32904  1.0000
  S   S174      1.0  0.61666  0.42647  0.31881  1.0000
  H   H670      1.0  0.68666  0.12197  0.31801  1.0000
  S   S175      1.0  0.83426  0.49518  0.44031  1.0000
  Fe  Fe90      1.0  0.87978  0.50374  0.38805  1.0000
  S   S176      1.0  0.84913  0.47049  0.39511  1.0000
  H   H671      1.0  0.57790  0.51397  0.32601  1.0000
  Fe  Fe91      1.0  0.80720  0.49673  0.40971  1.0000
  S   S177      1.0  0.74781  0.48669  0.40920  1.0000
  Fe  Fe92      1.0  0.87743  0.47049  0.42511  1.0000
  S   S178      1.0  0.89595  0.43374  0.43886  1.0000
  S   S179      1.0  0.91214  0.50124  0.41671  1.0000
  H   H672      1.0  0.95979  0.48407  0.38281  1.0000
  C   C425      1.0  0.93306  0.43489  0.45574  1.0000
  C   C426      1.0  0.94543  0.45751  0.46152  1.0000
  C   C427      1.0  0.97512  0.45823  0.47492  1.0000
  H   H673      1.0  0.93210  0.47448  0.45573  1.0000
  C   C428      1.0  0.97651  0.03174  0.36212  1.0000
  H   H674      1.0  0.95158  0.23710  0.51756  1.0000
  H   H675      1.0  0.75232  0.40086  0.46387  1.0000
  H   H676      1.0  0.00969  0.08610  0.46567  1.0000
  C   C429      1.0  0.67954  0.48986  0.35096  1.0000
  C   C430      1.0  0.66848  0.47639  0.36765  1.0000
  C   C431      1.0  0.68980  0.47543  0.38537  1.0000
  C   C432      1.0  0.72267  0.48744  0.38639  1.0000
  C   C433      1.0  0.73418  0.50041  0.36953  1.0000
  C   C434      1.0  0.71244  0.50184  0.35197  1.0000
  H   H677      1.0  0.64312  0.46719  0.36706  1.0000
  H   H678      1.0  0.68065  0.46543  0.39837  1.0000
  H   H679      1.0  0.75938  0.50978  0.37017  1.0000
  H   H680      1.0  0.72116  0.51230  0.33913  1.0000
  H   H681      1.0  0.81940  0.41572  0.42390  1.0000
  C   C435      1.0  0.98014  0.41371  0.47696  1.0000
  H   H682      1.0  0.77613  0.43071  0.41538  1.0000
  C   C436      1.0  0.77425  0.04139  0.36715  1.0000
  H   H683      1.0  0.94079  0.39544  0.45914  1.0000
  H   H684      1.0  0.74209  0.40309  0.43739  1.0000
  H   H685      1.0  0.97693  0.05517  0.30889  1.0000
  H   H686      1.0  0.76616  0.46612  0.45062  1.0000
  C   C437      1.0  0.79763  0.43051  0.42733  1.0000
  H   H687      1.0  0.82547  0.44532  0.46219  1.0000
  C   C438      1.0  0.75152  0.04402  0.38411  1.0000
  C   C439      1.0  0.90569  0.45742  0.31487  1.0000
  C   C440      1.0  0.96808  0.50649  0.33519  1.0000
  H   H688      1.0  0.73143  0.44858  0.44005  1.0000
  H   H689      1.0  0.78498  0.38804  0.44580  1.0000
  Fe  Fe93      1.0  0.83168  0.03922  0.41327  1.0000
  H   H690      1.0  0.88700  0.09110  0.30220  1.0000
  H   H691      1.0  0.96663  0.42764  0.30755  1.0000
  H   H692      1.0  0.97847  0.45908  0.30843  1.0000
  H   H693      1.0  0.95440  0.17537  0.54287  1.0000
  H   H694      1.0  0.99032  0.06506  0.43528  1.0000
  S   S180      1.0  0.59384  0.04128  0.30697  1.0000
  H   H695      1.0  0.76144  0.09935  0.35275  1.0000
  H   H696      1.0  0.90661  0.44003  0.32383  1.0000
  S   S181      1.0  0.53206  0.42799  0.30089  1.0000
  C   C441      1.0  0.68733  0.19216  0.30176  1.0000
  C   C442      1.0  0.01524  0.06474  0.37047  1.0000
  H   H697      1.0  0.53467  0.10611  0.35024  1.0000
  H   H698      1.0  0.96894  0.12199  0.32008  1.0000
  C   C443      1.0  0.97516  0.10416  0.31231  1.0000
  C   C444      1.0  0.95280  0.06556  0.30187  1.0000
  H   H699      1.0  0.70132  0.20745  0.30767  1.0000
  H   H700      1.0  0.99631  0.22285  0.51192  1.0000
  C   C445      1.0  0.01977  0.05907  0.43255  1.0000
  H   H701      1.0  0.01708  0.43300  0.54103  1.0000
  H   H702      1.0  0.01741  0.50230  0.31705  1.0000
  H   H703      1.0  0.02175  0.07952  0.38033  1.0000
  C   C446      1.0  0.96425  0.44554  0.29930  1.0000
  H   H704      1.0  0.02306  0.05625  0.41604  1.0000
  H   H705      1.0  0.98155  0.48687  0.74816  1.0000
  H   H706      1.0  0.00791  0.18990  0.56112  1.0000
  H   H707      1.0  0.00828  0.04026  0.70474  1.0000
  H   H708      1.0  0.96471  0.47687  0.55069  1.0000
  C   C447      1.0  0.99675  0.50992  0.77265  1.0000
  H   H709      1.0  0.99496  0.10821  0.70968  1.0000
  H   H710      1.0  0.96302  0.51822  0.71252  1.0000
  H   H711      1.0  0.99478  0.47405  0.58438  1.0000
  H   H712      1.0  0.94525  0.20864  0.56834  1.0000
  H   H713      1.0  0.98721  0.08531  0.67795  1.0000
  C   C448      1.0  0.00571  0.05892  0.71153  1.0000
  H   H714      1.0  0.97272  0.50661  0.78160  1.0000
  H   H715      1.0  0.01446  0.05658  0.72755  1.0000
  H   H716      1.0  0.97600  0.06531  0.71136  1.0000
  C   C449      1.0  0.00185  0.49870  0.75377  1.0000
  C   C450      1.0  0.01009  0.20411  0.54911  1.0000
  C   C451      1.0  0.01754  0.44068  0.55648  1.0000
  C   C452      1.0  0.02148  0.47690  0.57685  1.0000
  C   C453      1.0  0.01645  0.07808  0.67931  1.0000
  H   H717      1.0  0.99142  0.43643  0.56401  1.0000
  H   H718      1.0  0.01911  0.05982  0.67178  1.0000
  H   H719      1.0  0.96064  0.23868  0.56306  1.0000
  C   C454      1.0  0.94916  0.22231  0.55610  1.0000
  H   H720      1.0  0.94163  0.52552  0.73629  1.0000
  N   N46       1.0  0.02228  0.46742  0.55604  1.0000
  H   H721      1.0  0.92148  0.22826  0.54994  1.0000
  H   H722      1.0  0.91509  0.52878  0.71355  1.0000
  H   H723      1.0  0.64743  0.05538  0.00157  1.0000
  H   H724      1.0  0.55787  0.11084  0.00587  1.0000
  C   C455      1.0  0.60802  0.05605  0.97730  1.0000
  H   H725      1.0  0.62230  0.04096  0.96935  1.0000
  S   S182      1.0  0.55735  0.05829  0.94600  1.0000
  H   H726      1.0  0.70489  0.11310  0.02939  1.0000
  H   H727      1.0  0.69339  0.51636  0.80474  1.0000
  S   S183      1.0  0.84682  0.52328  0.84890  1.0000
  S   S184      1.0  0.62472  0.09426  0.02845  1.0000
  C   C456      1.0  0.57595  0.06777  0.96912  1.0000
  C   C457      1.0  0.55777  0.08739  0.97966  1.0000
  C   C458      1.0  0.57180  0.09549  0.99807  1.0000
  C   C459      1.0  0.60437  0.08413  0.00600  1.0000
  C   C460      1.0  0.62222  0.06429  0.99558  1.0000
  C   C461      1.0  0.75919  0.52635  0.88681  1.0000
  H   H728      1.0  0.54505  0.32172  0.04767  1.0000
  H   H729      1.0  0.57169  0.51274  0.95437  1.0000
  H   H730      1.0  0.57646  0.49989  0.97912  1.0000
  H   H731      1.0  0.53422  0.48008  0.94294  1.0000
  H   H732      1.0  0.52920  0.04283  0.99942  1.0000
  H   H733      1.0  0.53121  0.33215  0.02305  1.0000
  C   C462      1.0  0.61317  0.25458  0.04414  1.0000
  H   H734      1.0  0.69983  0.52757  0.85953  1.0000
  H   H735      1.0  0.65488  0.52081  0.82169  1.0000
  Fe  Fe94      1.0  0.62169  0.39721  0.04768  1.0000
  H   H736      1.0  0.54823  0.51721  0.81393  1.0000
  S   S185      1.0  0.65807  0.50491  0.89745  1.0000
  C   C463      1.0  0.68553  0.51924  0.82079  1.0000
  Fe  Fe95      1.0  0.62222  0.50011  0.92489  1.0000
  S   S186      1.0  0.61301  0.46404  0.94120  1.0000
  S   S187      1.0  0.64697  0.42930  0.03173  1.0000
  Fe  Fe96      1.0  0.60743  0.52303  0.88267  1.0000
  S   S188      1.0  0.57102  0.51462  0.90856  1.0000
  S   S189      1.0  0.59324  0.51930  0.84968  1.0000
  H   H737      1.0  0.69508  0.50230  0.82936  1.0000
  H   H738      1.0  0.75342  0.52156  0.83578  1.0000
  H   H739      1.0  0.79306  0.49842  0.87126  1.0000
  S   S190      1.0  0.57777  0.37254  0.03828  1.0000
  C   C464      1.0  0.62256  0.45509  0.96652  1.0000
  C   C465      1.0  0.64305  0.46906  0.97939  1.0000
  C   C466      1.0  0.65008  0.46100  0.99936  1.0000
  C   C467      1.0  0.63644  0.43908  0.00670  1.0000
  C   C468      1.0  0.61543  0.42537  0.99391  1.0000
  C   C469      1.0  0.60875  0.43328  0.97390  1.0000
  H   H740      1.0  0.65398  0.48582  0.97388  1.0000
  H   H741      1.0  0.66645  0.47170  0.00911  1.0000
  H   H742      1.0  0.60495  0.40842  0.99931  1.0000
  H   H743      1.0  0.59303  0.42229  0.96403  1.0000
  H   H744      1.0  0.63363  0.25357  0.03228  1.0000
  C   C470      1.0  0.53189  0.52662  0.82550  1.0000
  H   H745      1.0  0.76206  0.08549  0.02874  1.0000
  C   C471      1.0  0.55845  0.51240  0.96942  1.0000
  C   C472      1.0  0.78819  0.51795  0.87405  1.0000
  H   H746      1.0  0.74202  0.51333  0.89388  1.0000
  H   H747      1.0  0.54056  0.46575  0.96713  1.0000
  C   C473      1.0  0.76513  0.08858  0.04520  1.0000
  H   H748      1.0  0.60374  0.21586  0.04271  1.0000
  C   C474      1.0  0.52778  0.31747  0.03451  1.0000
  C   C475      1.0  0.70963  0.11548  0.04582  1.0000
  S   S191      1.0  0.62356  0.30396  0.04432  1.0000
  H   H749      1.0  0.53964  0.29979  0.02811  1.0000
  H   H750      1.0  0.53295  0.09658  0.97343  1.0000
  H   H751      1.0  0.73376  0.03366  0.86178  1.0000
  H   H752      1.0  0.70130  0.06877  0.03577  1.0000
  H   H753      1.0  0.78253  0.10443  0.04709  1.0000
  H   H754      1.0  0.72520  0.13214  0.04794  1.0000
  H   H755      1.0  0.72312  0.02763  0.26567  1.0000
  H   H756      1.0  0.61363  0.55244  0.28491  1.0000
  C   C476      1.0  0.59854  0.53809  0.29276  1.0000
  H   H757      1.0  0.72126  0.02337  0.23886  1.0000
  H   H758      1.0  0.56308  0.58290  0.29505  1.0000
  H   H759      1.0  0.53000  0.56015  0.29200  1.0000
  H   H760      1.0  0.58048  0.52982  0.28153  1.0000
  H   H761      1.0  0.91134  0.93245  0.53767  1.0000
  H   H762      1.0  0.81811  0.98470  0.51582  1.0000
  S   S192      1.0  0.88831  0.55881  0.44564  1.0000
  S   S193      1.0  0.82674  0.93879  0.53786  1.0000
  C   C477      1.0  0.54963  0.56773  0.30282  1.0000
  H   H763      1.0  0.90794  0.97762  0.52880  1.0000
  S   S194      1.0  0.81290  0.61661  0.51968  1.0000
  C   C478      1.0  0.83448  0.59970  0.49967  1.0000
  C   C479      1.0  0.87123  0.60247  0.49453  1.0000
  C   C480      1.0  0.88731  0.58963  0.47807  1.0000
  C   C481      1.0  0.86708  0.57356  0.46677  1.0000
  C   C482      1.0  0.83047  0.57042  0.47208  1.0000
  C   C483      1.0  0.81416  0.58363  0.48837  1.0000
  H   H764      1.0  0.88712  0.61487  0.50297  1.0000
  H   H765      1.0  0.91559  0.59221  0.47405  1.0000
  H   H766      1.0  0.81454  0.55822  0.46341  1.0000
  H   H767      1.0  0.78568  0.58143  0.49216  1.0000
  H   H768      1.0  0.87502  0.91347  0.50867  1.0000
  Fe  Fe97      1.0  0.90720  0.02559  0.39517  1.0000
  H   H769      1.0  0.89704  0.55571  0.37967  1.0000
  H   H770      1.0  0.95430  0.53293  0.39156  1.0000
  H   H771      1.0  0.94917  0.54746  0.41576  1.0000
  H   H772      1.0  0.98998  0.01293  0.33438  1.0000
  C   C484      1.0  0.99630  0.95420  0.53567  1.0000
  S   S195      1.0  0.93607  0.02812  0.42470  1.0000
  C   C485      1.0  0.90471  0.57166  0.38873  1.0000
  N   N47       1.0  0.94513  0.57227  0.39039  1.0000
  N   N48       1.0  0.57710  0.54835  0.31004  1.0000
  H   H773      1.0  0.53304  0.57591  0.31551  1.0000
  H   H774      1.0  0.00294  0.94997  0.51964  1.0000
  N   N49       1.0  0.95608  0.95600  0.53914  1.0000
  H   H775      1.0  0.90413  0.92813  0.47747  1.0000
  H   H776      1.0  0.89167  0.57004  0.40380  1.0000
  H   H777      1.0  0.99172  0.57437  0.37065  1.0000
  H   H778      1.0  0.85050  0.72651  0.54747  1.0000
  H   H779      1.0  0.61744  0.57386  0.31759  1.0000
  H   H780      1.0  0.89201  0.58861  0.38139  1.0000
  C   C486      1.0  0.99707  0.02735  0.34450  1.0000
  H   H781      1.0  0.95475  0.55808  0.36060  1.0000
  H   H782      1.0  0.94255  0.61128  0.39561  1.0000
  H   H783      1.0  0.58725  0.56655  0.33795  1.0000
  H   H784      1.0  0.94184  0.59258  0.41801  1.0000
  H   H785      1.0  0.94895  0.99413  0.53015  1.0000
  H   H786      1.0  0.94402  0.92867  0.51734  1.0000
  H   H787      1.0  0.00868  0.97168  0.53951  1.0000
  C   C487      1.0  0.94101  0.93246  0.53372  1.0000
  H   H788      1.0  0.99111  0.54915  0.40172  1.0000
  C   C488      1.0  0.96062  0.54946  0.40030  1.0000
  C   C489      1.0  0.96119  0.57412  0.37002  1.0000
  C   C490      1.0  0.60234  0.55889  0.32457  1.0000
  H   H789      1.0  0.95539  0.91666  0.54180  1.0000
  S   S196      1.0  0.93726  0.01547  0.36649  1.0000
  Fe  Fe98      1.0  0.88890  0.00872  0.43789  1.0000
  H   H790      1.0  0.76042  0.96118  0.40720  1.0000
  S   S197      1.0  0.90060  0.97425  0.45697  1.0000
  C   C491      1.0  0.74263  0.96222  0.44659  1.0000
  H   H791      1.0  0.83195  0.96399  0.43186  1.0000
  H   H792      1.0  0.80464  0.00528  0.44018  1.0000
  S   S198      1.0  0.86320  0.00308  0.40768  1.0000
  H   H793      1.0  0.73674  0.94459  0.43929  1.0000
  H   H794      1.0  0.75674  0.01029  0.44569  1.0000
  H   H795      1.0  0.74106  0.99149  0.41357  1.0000
  C   C492      1.0  0.93836  0.97600  0.52654  1.0000
  H   H796      1.0  0.80363  0.93837  0.43097  1.0000
  C   C493      1.0  0.78089  0.99660  0.44705  1.0000
  H   H797      1.0  0.74812  0.95824  0.46283  1.0000
  H   H798      1.0  0.71718  0.97480  0.44557  1.0000
  H   H799      1.0  0.78878  0.98681  0.40764  1.0000
  C   C494      1.0  0.76571  0.97829  0.41542  1.0000
  H   H800      1.0  0.81441  0.95183  0.45470  1.0000
  H   H801      1.0  0.84705  0.99934  0.48432  1.0000
  C   C495      1.0  0.95388  0.59369  0.40257  1.0000
  C   C496      1.0  0.80738  0.95609  0.43867  1.0000
  N   N50       1.0  0.77417  0.97329  0.43691  1.0000
  H   H802      1.0  0.78713  0.99366  0.46333  1.0000
  C   C497      1.0  0.87763  0.96476  0.47880  1.0000
  C   C498      1.0  0.88528  0.94055  0.48579  1.0000
  C   C499      1.0  0.86891  0.93222  0.50350  1.0000
  C   C500      1.0  0.84512  0.94817  0.51460  1.0000
  C   C501      1.0  0.83661  0.97225  0.50735  1.0000
  C   C502      1.0  0.85290  0.98058  0.48950  1.0000
  H   H803      1.0  0.98415  0.59468  0.40431  1.0000
  H   H804      1.0  0.73610  0.61319  0.53213  1.0000
  S   S199      1.0  0.89666  0.87622  0.54570  1.0000
  H   H805      1.0  0.54102  0.53566  0.33303  1.0000
  H   H806      1.0  0.95015  0.59110  0.36203  1.0000
  S   S200      1.0  0.83511  0.53050  0.39998  1.0000
  H   H807      1.0  0.94321  0.97258  0.51018  1.0000
  H   H808      1.0  0.62345  0.54461  0.33021  1.0000
  S   S201      1.0  0.90866  0.64056  0.54052  1.0000
  H   H809      1.0  0.01024  0.93925  0.54511  1.0000
  Fe  Fe99      1.0  0.84818  0.63540  0.54229  1.0000
  H   H810      1.0  0.69493  0.62940  0.54136  1.0000
  H   H811      1.0  0.70095  0.59639  0.54375  1.0000
  C   C503      1.0  0.71540  0.61370  0.54455  1.0000
  H   H812      1.0  0.99958  0.66192  0.54549  1.0000
  H   H813      1.0  0.01069  0.54645  0.71839  1.0000
  S   S202      1.0  0.87382  0.60232  0.77284  1.0000
  H   H814      1.0  0.92458  0.56271  0.68978  1.0000
  Fe  Fe100     1.0  0.91048  0.62579  0.57218  1.0000
  S   S203      1.0  0.95790  0.59809  0.57872  1.0000
  C   C504      1.0  0.80418  0.59648  0.78733  1.0000
  Fe  Fe101     1.0  0.84153  0.65688  0.58446  1.0000
  S   S204      1.0  0.80370  0.67320  0.60844  1.0000
  S   S205      1.0  0.90165  0.66277  0.58654  1.0000
  Fe  Fe102     1.0  0.68717  0.61918  0.73438  1.0000
  S   S206      1.0  0.64650  0.60731  0.71171  1.0000
  S   S207      1.0  0.70243  0.59756  0.76274  1.0000
  Fe  Fe103     1.0  0.69554  0.66829  0.71318  1.0000
  S   S208      1.0  0.65494  0.66100  0.68903  1.0000
  Fe  Fe104     1.0  0.62137  0.64615  0.71413  1.0000
  S   S209      1.0  0.56148  0.65845  0.71891  1.0000
  Fe  Fe105     1.0  0.68386  0.62321  0.68859  1.0000
  S   S210      1.0  0.70498  0.60499  0.66005  1.0000
  S   S211      1.0  0.65965  0.65696  0.73846  1.0000
  S   S212      1.0  0.72674  0.63160  0.71111  1.0000
  H   H815      1.0  0.98806  0.64886  0.59989  1.0000
  C   C505      1.0  0.77860  0.65352  0.62347  1.0000
  C   C506      1.0  0.78080  0.62803  0.62053  1.0000
  C   C507      1.0  0.75827  0.61310  0.63185  1.0000
  C   C508      1.0  0.73425  0.62356  0.64649  1.0000
  C   C509      1.0  0.73324  0.64891  0.64988  1.0000
  C   C510      1.0  0.75503  0.66386  0.63827  1.0000
  H   H816      1.0  0.79978  0.61986  0.60959  1.0000
  H   H817      1.0  0.75964  0.59343  0.62944  1.0000
  H   H818      1.0  0.71520  0.65713  0.66123  1.0000
  H   H819      1.0  0.75342  0.68351  0.64077  1.0000
  H   H820      1.0  0.00489  0.99232  0.70986  1.0000
  C   C511      1.0  0.95813  0.60918  0.61915  1.0000
  C   C512      1.0  0.97350  0.59453  0.60366  1.0000
  N   N51       1.0  0.95272  0.55698  0.71814  1.0000
  C   C513      1.0  0.60861  0.71850  0.71225  1.0000
  H   H821      1.0  0.95977  0.58349  0.69446  1.0000
  H   H822      1.0  0.93491  0.62218  0.61610  1.0000
  Fe  Fe106     1.0  0.85474  0.90631  0.55504  1.0000
  S   S213      1.0  0.85074  0.61815  0.57321  1.0000
  C   C514      1.0  0.82682  0.59772  0.77036  1.0000
  H   H823      1.0  0.59216  0.75720  0.73640  1.0000
  S   S214      1.0  0.84108  0.81529  0.55857  1.0000
  C   C515      1.0  0.75049  0.59521  0.76571  1.0000
  C   C516      1.0  0.77346  0.59496  0.74882  1.0000
  C   C517      1.0  0.81146  0.59670  0.75111  1.0000
  H   H824      1.0  0.54921  0.75719  0.68561  1.0000
  H   H825      1.0  0.76190  0.59364  0.73393  1.0000
  H   H826      1.0  0.82888  0.59732  0.73794  1.0000
  H   H827      1.0  0.59103  0.94342  0.72343  1.0000
  C   C518      1.0  0.94763  0.99316  0.75053  1.0000
  C   C519      1.0  0.00336  0.59038  0.64266  1.0000
  N   N52       1.0  0.79508  0.67772  0.75987  1.0000
  H   H828      1.0  0.56475  0.77526  0.71850  1.0000
  H   H829      1.0  0.73997  0.67133  0.75056  1.0000
  C   C520      1.0  0.52386  0.86514  0.73557  1.0000
  C   C521      1.0  0.97330  0.60726  0.63861  1.0000
  H   H830      1.0  0.55377  0.90104  0.76106  1.0000
  S   S215      1.0  0.02264  0.58846  0.66689  1.0000
  S   S216      1.0  0.83430  0.67390  0.55373  1.0000
  H   H831      1.0  0.77446  0.59645  0.58254  1.0000
  C   C522      1.0  0.99917  0.65144  0.55995  1.0000
  H   H832      1.0  0.77065  0.64421  0.75244  1.0000
  C   C523      1.0  0.54310  0.92063  0.76255  1.0000
  H   H833      1.0  0.54562  0.93227  0.72326  1.0000
  C   C524      1.0  0.99012  0.55902  0.72633  1.0000
  C   C525      1.0  0.78845  0.67394  0.78159  1.0000
  H   H834      1.0  0.56908  0.60814  0.70511  1.0000
  H   H835      1.0  0.77469  0.66514  0.73173  1.0000
  H   H836      1.0  0.91991  0.80008  0.56070  1.0000
  H   H837      1.0  0.71762  0.61903  0.59557  1.0000
  C   C526      1.0  0.54415  0.72862  0.71865  1.0000
  C   C527      1.0  0.92608  0.57340  0.72943  1.0000
  C   C528      1.0  0.01725  0.64890  0.59487  1.0000
  C   C529      1.0  0.75192  0.63949  0.56464  1.0000
  H   H838      1.0  0.60241  0.70109  0.70470  1.0000
  H   H839      1.0  0.76335  0.91947  0.56588  1.0000
  H   H840      1.0  0.68382  0.63223  0.57831  1.0000
  H   H841      1.0  0.83912  0.67124  0.73854  1.0000
  H   H842      1.0  0.96172  0.61881  0.65053  1.0000
  H   H843      1.0  0.62428  0.94675  0.75553  1.0000
  C   C530      1.0  0.70508  0.61671  0.58047  1.0000
  C   C531      1.0  0.95951  0.99066  0.73052  1.0000
  H   H844      1.0  0.56520  0.72597  0.67988  1.0000
  H   H845      1.0  0.91843  0.96298  0.56374  1.0000
  H   H846      1.0  0.73215  0.65582  0.56247  1.0000
  C   C532      1.0  0.00874  0.00441  0.75993  1.0000
  C   C533      1.0  0.76051  0.59522  0.56772  1.0000
  H   H847      1.0  0.71579  0.93006  0.56844  1.0000
  H   H848      1.0  0.94047  0.98555  0.71904  1.0000
  C   C534      1.0  0.86642  0.78665  0.55587  1.0000
  C   C535      1.0  0.76597  0.59538  0.78501  1.0000
  H   H849      1.0  0.02016  0.69802  0.59071  1.0000
  C   C536      1.0  0.60430  0.93494  0.76289  1.0000
  C   C537      1.0  0.00337  0.57757  0.60777  1.0000
  H   H850      1.0  0.54792  0.72422  0.73496  1.0000
  S   S217      1.0  0.83148  0.96917  0.79520  1.0000
  C   C538      1.0  0.83317  0.66857  0.75483  1.0000
  H   H851      1.0  0.53170  0.57265  0.71145  1.0000
  H   H852      1.0  0.97241  0.55227  0.68775  1.0000
  H   H853      1.0  0.75969  0.68024  0.78579  1.0000
  C   C539      1.0  0.01812  0.57537  0.62726  1.0000
  C   C540      1.0  0.76895  0.66399  0.74817  1.0000
  H   H854      1.0  0.61948  0.58977  0.77602  1.0000
  C   C541      1.0  0.94262  0.53126  0.72019  1.0000
  C   C542      1.0  0.92356  0.76067  0.55587  1.0000
  H   H855      1.0  0.00984  0.63208  0.55714  1.0000
  N   N53       1.0  0.56799  0.93746  0.75284  1.0000
  H   H856      1.0  0.54683  0.60622  0.75729  1.0000
  Fe  Fe107     1.0  0.67556  0.88043  0.72988  1.0000
  S   S218      1.0  0.65567  0.88585  0.69803  1.0000
  S   S219      1.0  0.69276  0.91313  0.74729  1.0000
  Fe  Fe108     1.0  0.65221  0.82817  0.73214  1.0000
  S   S220      1.0  0.62983  0.82919  0.70072  1.0000
  S   S221      1.0  0.64675  0.79485  0.75179  1.0000
  Fe  Fe109     1.0  0.68143  0.84767  0.69300  1.0000
  S   S222      1.0  0.71173  0.83443  0.66498  1.0000
  Fe  Fe110     1.0  0.60615  0.86701  0.70851  1.0000
  S   S223      1.0  0.70588  0.84371  0.72406  1.0000
  S   S224      1.0  0.62406  0.86446  0.74074  1.0000
  Fe  Fe111     1.0  0.92619  0.88513  0.57436  1.0000
  S   S225      1.0  0.88650  0.91679  0.58211  1.0000
  S   S226      1.0  0.98586  0.89404  0.57517  1.0000
  C   C543      1.0  0.84706  0.76576  0.55215  1.0000
  Fe  Fe112     1.0  0.88931  0.97821  0.78848  1.0000
  Fe  Fe113     1.0  0.85617  0.88905  0.59923  1.0000
  S   S227      1.0  0.83160  0.90116  0.62900  1.0000
  H   H857      1.0  0.61662  0.91563  0.76211  1.0000
  S   S228      1.0  0.89860  0.85785  0.59392  1.0000
  H   H858      1.0  0.80855  0.93016  0.59169  1.0000
  C   C544      1.0  0.00501  0.68861  0.57883  1.0000
  H   H859      1.0  0.84883  0.72098  0.61864  1.0000
  H   H860      1.0  0.85618  0.94433  0.71072  1.0000
  H   H861      1.0  0.78231  0.59447  0.55588  1.0000
  C   C545      1.0  0.99686  0.90752  0.59818  1.0000
  C   C546      1.0  0.97248  0.99966  0.76530  1.0000
  H   H862      1.0  0.71482  0.91082  0.60264  1.0000
  H   H863      1.0  0.96352  0.00162  0.78079  1.0000
  H   H864      1.0  0.78453  0.75219  0.58187  1.0000
  C   C547      1.0  0.77110  0.92280  0.78890  1.0000
  H   H865      1.0  0.63474  0.72454  0.70574  1.0000
  H   H866      1.0  0.79358  0.70751  0.73833  1.0000
  C   C548      1.0  0.79646  0.73880  0.59327  1.0000
  H   H867      1.0  0.96991  0.65071  0.56439  1.0000
  S   S229      1.0  0.82127  0.88078  0.57285  1.0000
  C   C549      1.0  0.90476  0.78406  0.55785  1.0000
  H   H868      1.0  0.72905  0.97678  0.59188  1.0000
  N   N54       1.0  0.73320  0.61627  0.56436  1.0000
  H   H869      1.0  0.93283  0.59297  0.72826  1.0000
  C   C550      1.0  0.74544  0.85294  0.65539  1.0000
  C   C551      1.0  0.76392  0.84601  0.63755  1.0000
  C   C552      1.0  0.79083  0.86052  0.62950  1.0000
  C   C553      1.0  0.79938  0.88202  0.63930  1.0000
  C   C554      1.0  0.78097  0.88895  0.65715  1.0000
  C   C555      1.0  0.75401  0.87445  0.66519  1.0000
  H   H870      1.0  0.75725  0.82943  0.62992  1.0000
  H   H871      1.0  0.80489  0.85509  0.61570  1.0000
  H   H872      1.0  0.78743  0.90563  0.66472  1.0000
  H   H873      1.0  0.73984  0.87986  0.67896  1.0000
  C   C556      1.0  0.73084  0.90767  0.76334  1.0000
  C   C557      1.0  0.73996  0.92625  0.77651  1.0000
  N   N55       1.0  0.56403  0.57866  0.77913  1.0000
  H   H874      1.0  0.95326  0.75879  0.55710  1.0000
  C   C558      1.0  0.78399  0.88212  0.77518  1.0000
  C   C559      1.0  0.75252  0.88542  0.76294  1.0000
  H   H875      1.0  0.72311  0.94341  0.77699  1.0000
  C   C560      1.0  0.97485  0.90433  0.61510  1.0000
  N   N56       1.0  0.57801  0.73761  0.70976  1.0000
  H   H876      1.0  0.74547  0.87091  0.75299  1.0000
  C   C561      1.0  0.70688  0.72760  0.72360  1.0000
  C   C562      1.0  0.71106  0.75102  0.71552  1.0000
  C   C563      1.0  0.69308  0.77180  0.72437  1.0000
  C   C564      1.0  0.67165  0.76923  0.74163  1.0000
  C   C565      1.0  0.66834  0.74584  0.75009  1.0000
  C   C566      1.0  0.68577  0.72497  0.74098  1.0000
  H   H877      1.0  0.72743  0.75309  0.70207  1.0000
  H   H878      1.0  0.69555  0.78979  0.71769  1.0000
  H   H879      1.0  0.65172  0.74386  0.76344  1.0000
  H   H880      1.0  0.69078  0.59930  0.58097  1.0000
  C   C567      1.0  0.54717  0.60335  0.77385  1.0000
  H   H881      1.0  0.82792  0.78226  0.59387  1.0000
  C   C568      1.0  0.53311  0.63377  0.72163  1.0000
  H   H882      1.0  0.80915  0.71526  0.76307  1.0000
  C   C569      1.0  0.95222  0.56417  0.69662  1.0000
  S   S230      1.0  0.54948  0.88306  0.69991  1.0000
  S   S231      1.0  0.92809  0.71059  0.54979  1.0000
  N   N57       1.0  0.81041  0.75148  0.61101  1.0000
  Fe  Fe114     1.0  0.89535  0.67734  0.55503  1.0000
  H   H883      1.0  0.81887  0.72724  0.58576  1.0000
  H   H884      1.0  0.78938  0.77633  0.63404  1.0000
  H   H885      1.0  0.86233  0.75723  0.59678  1.0000
  H   H886      1.0  0.61262  0.76770  0.71363  1.0000
  H   H887      1.0  0.79423  0.94831  0.61290  1.0000
  H   H888      1.0  0.01532  0.56620  0.59583  1.0000
  H   H889      1.0  0.54770  0.85213  0.73537  1.0000
  H   H890      1.0  0.83788  0.64852  0.75816  1.0000
  C   C570      1.0  0.58721  0.76039  0.72000  1.0000
  C   C571      1.0  0.72464  0.95942  0.60024  1.0000
  H   H891      1.0  0.79273  0.65408  0.78584  1.0000
  H   H892      1.0  0.57017  0.97632  0.74746  1.0000
  C   C572      1.0  0.82619  0.73292  0.62556  1.0000
  C   C573      1.0  0.79387  0.90106  0.78778  1.0000
  C   C574      1.0  0.98412  0.91447  0.63358  1.0000
  H   H893      1.0  0.96736  0.91141  0.64671  1.0000
  C   C575      1.0  0.01481  0.92847  0.63519  1.0000
  S   S232      1.0  0.90128  0.98890  0.75641  1.0000
  C   C576      1.0  0.94856  0.96121  0.56063  1.0000
  H   H894      1.0  0.76724  0.78060  0.61002  1.0000
  H   H895      1.0  0.58477  0.91196  0.72950  1.0000
  H   H896      1.0  0.72849  0.96300  0.61657  1.0000
  H   H897      1.0  0.76254  0.90055  0.60023  1.0000
  H   H898      1.0  0.76635  0.64188  0.57918  1.0000
  H   H899      1.0  0.74764  0.91884  0.62127  1.0000
  C   C577      1.0  0.74444  0.93481  0.57160  1.0000
  H   H900      1.0  0.68282  0.70693  0.74741  1.0000
  H   H901      1.0  0.74743  0.57737  0.56742  1.0000
  H   H902      1.0  0.89748  0.57224  0.72377  1.0000
  C   C578      1.0  0.83917  0.76774  0.60457  1.0000
  H   H903      1.0  0.85083  0.77735  0.61757  1.0000
  H   H904      1.0  0.80746  0.68422  0.79094  1.0000
  S   S233      1.0  0.72787  0.70184  0.71158  1.0000
  H   H905      1.0  0.95102  0.89360  0.61408  1.0000
  H   H906      1.0  0.75759  0.75476  0.62571  1.0000
  H   H907      1.0  0.83741  0.74172  0.63908  1.0000
  H   H908      1.0  0.96022  0.97859  0.56539  1.0000
  C   C579      1.0  0.78860  0.94527  0.59665  1.0000
  H   H909      1.0  0.80116  0.86508  0.77450  1.0000
  Fe  Fe115     1.0  0.86576  0.85122  0.56597  1.0000
  H   H910      1.0  0.75002  0.95136  0.56243  1.0000
  C   C580      1.0  0.90406  0.73975  0.55231  1.0000
  C   C581      1.0  0.54420  0.61060  0.71393  1.0000
  H   H911      1.0  0.61369  0.71394  0.72841  1.0000
  C   C582      1.0  0.77981  0.76642  0.62061  1.0000
  H   H912      1.0  0.77481  0.72627  0.59759  1.0000
  H   H913      1.0  0.91847  0.91114  0.73054  1.0000
  C   C583      1.0  0.89976  0.92356  0.73975  1.0000
  C   C584      1.0  0.99602  0.99464  0.72527  1.0000
  C   C585      1.0  0.74339  0.91635  0.60482  1.0000
  C   C586      1.0  0.02057  0.00198  0.73988  1.0000
  H   H914      1.0  0.86021  0.88901  0.75685  1.0000
  H   H915      1.0  0.82460  0.88989  0.73814  1.0000
  C   C587      1.0  0.78962  0.70422  0.75476  1.0000
  C   C588      1.0  0.85394  0.89355  0.74074  1.0000
  H   H916      1.0  0.87127  0.88054  0.73130  1.0000
  H   H917      1.0  0.82219  0.92191  0.71137  1.0000
  H   H918      1.0  0.84318  0.93196  0.76520  1.0000
  N   N58       1.0  0.86061  0.91944  0.73602  1.0000
  C   C589      1.0  0.83711  0.93586  0.74904  1.0000
  H   H919      1.0  0.90587  0.94283  0.73600  1.0000
  H   H920      1.0  0.80731  0.93336  0.74669  1.0000
  H   H921      1.0  0.90717  0.92040  0.75589  1.0000
  H   H922      1.0  0.99151  0.55403  0.74263  1.0000
  H   H923      1.0  0.84178  0.95561  0.74622  1.0000
  H   H924      1.0  0.69542  0.95522  0.59803  1.0000
  H   H925      1.0  0.60062  0.57760  0.75362  1.0000
  N   N59       1.0  0.75025  0.93895  0.59331  1.0000
  C   C590      1.0  0.85156  0.92486  0.71467  1.0000
  H   H926      1.0  0.86888  0.91284  0.70438  1.0000
  H   H927      1.0  0.60221  0.93998  0.77905  1.0000
  H   H928      1.0  0.80506  0.72046  0.63081  1.0000
  H   H929      1.0  0.79501  0.96209  0.58808  1.0000
  H   H930      1.0  0.59729  0.74957  0.68096  1.0000
  H   H931      1.0  0.56279  0.61824  0.78035  1.0000
  H   H932      1.0  0.53947  0.92448  0.77888  1.0000
  C   C591      1.0  0.54115  0.55966  0.77097  1.0000
  H   H933      1.0  0.61505  0.55717  0.77389  1.0000
  H   H934      1.0  0.76114  0.71172  0.75840  1.0000
  H   H935      1.0  0.92591  0.56850  0.74578  1.0000
  C   C592      1.0  0.57211  0.74281  0.68808  1.0000
  C   C593      1.0  0.60144  0.57564  0.77035  1.0000
  H   H936      1.0  0.85377  0.67817  0.76363  1.0000
  C   C594      1.0  0.57251  0.93110  0.73134  1.0000
  H   H937      1.0  0.96082  0.94614  0.57051  1.0000
  H   H938      1.0  0.99912  0.57803  0.72458  1.0000
  H   H939      1.0  0.77285  0.63992  0.55246  1.0000
  H   H940      1.0  0.97546  0.68925  0.58335  1.0000
  N   N60       1.0  0.02024  0.66298  0.57588  1.0000
  H   H941      1.0  0.53970  0.56062  0.75422  1.0000
  H   H942      1.0  0.55222  0.54076  0.77521  1.0000
  H   H943      1.0  0.00618  0.69969  0.56469  1.0000
  H   H944      1.0  0.53649  0.71139  0.71124  1.0000
  H   H945      1.0  0.81745  0.76772  0.55033  1.0000
  C   C595      1.0  0.55201  0.96309  0.75454  1.0000
  C   C596      1.0  0.86572  0.74238  0.55059  1.0000
  H   H946      1.0  0.54772  0.96844  0.77057  1.0000
  H   H947      1.0  0.52467  0.96548  0.74692  1.0000
  H   H948      1.0  0.74838  0.59558  0.79813  1.0000
  Fe  Fe116     1.0  0.58358  0.55137  0.92059  1.0000
  H   H949      1.0  0.57955  0.57688  0.96430  1.0000
  H   H950      1.0  0.68587  0.96094  0.86280  1.0000
  S   S234      1.0  0.71747  0.56272  0.90702  1.0000
  S   S235      1.0  0.61657  0.56082  0.89345  1.0000
  C   C597      1.0  0.02301  0.80696  0.87793  1.0000
  C   C598      1.0  0.99642  0.61165  0.87462  1.0000
  Fe  Fe117     1.0  0.96228  0.55090  0.81428  1.0000
  H   H951      1.0  0.89361  0.59281  0.93185  1.0000
  Fe  Fe118     1.0  0.88654  0.54845  0.83452  1.0000
  S   S236      1.0  0.87426  0.58934  0.83254  1.0000
  S   S237      1.0  0.79416  0.01033  0.83987  1.0000
  H   H952      1.0  0.53164  0.01686  0.01627  1.0000
  Fe  Fe119     1.0  0.93316  0.59123  0.84236  1.0000
  S   S238      1.0  0.95117  0.61790  0.86555  1.0000
  S   S239      1.0  0.94393  0.55057  0.84658  1.0000
  H   H953      1.0  0.83041  0.99221  0.90209  1.0000
  S   S240      1.0  0.52489  0.94222  0.93494  1.0000
  H   H954      1.0  0.56716  0.59424  0.99837  1.0000
  C   C599      1.0  0.66354  0.97119  0.85405  1.0000
  H   H955      1.0  0.56713  0.69578  0.99551  1.0000
  H   H956      1.0  0.90733  0.95375  0.87903  1.0000
  H   H957      1.0  0.93029  0.98404  0.91519  1.0000
  C   C600      1.0  0.75303  0.55149  0.89076  1.0000
  C   C601      1.0  0.77591  0.56814  0.88174  1.0000
  C   C602      1.0  0.80444  0.55977  0.86866  1.0000
  H   H958      1.0  0.61339  0.97557  0.82426  1.0000
  H   H959      1.0  0.89274  0.95046  0.90462  1.0000
  H   H960      1.0  0.77117  0.58763  0.88469  1.0000
  H   H961      1.0  0.82138  0.57279  0.86152  1.0000
  H   H962      1.0  0.00045  0.57351  0.86603  1.0000
  Fe  Fe120     1.0  0.66519  0.54256  0.90987  1.0000
  C   C603      1.0  0.52448  0.58616  0.95354  1.0000
  H   H963      1.0  0.94697  0.56640  0.88849  1.0000
  H   H964      1.0  0.57141  0.94629  0.97027  1.0000
  C   C604      1.0  0.56623  0.57609  0.80129  1.0000
  H   H965      1.0  0.85823  0.01627  0.90998  1.0000
  H   H966      1.0  0.88896  0.60804  0.89629  1.0000
  H   H967      1.0  0.64481  0.98413  0.80484  1.0000
  C   C605      1.0  0.70557  0.98146  0.82758  1.0000
  C   C606      1.0  0.88649  0.96066  0.89030  1.0000
  C   C607      1.0  0.01406  0.58806  0.87316  1.0000
  H   H968      1.0  0.69906  0.58027  0.82351  1.0000
  S   S241      1.0  0.90616  0.54412  0.80241  1.0000
  N   N61       1.0  0.89679  0.57003  0.90555  1.0000
  C   C608      1.0  0.93734  0.57005  0.90413  1.0000
  C   C609      1.0  0.87972  0.58960  0.89233  1.0000
  Fe  Fe121     1.0  0.89744  0.58525  0.80133  1.0000
  H   H969      1.0  0.75143  0.53669  0.81167  1.0000
  C   C610      1.0  0.88004  0.00024  0.87346  1.0000
  H   H970      1.0  0.89214  0.54206  0.88310  1.0000
  H   H971      1.0  0.85459  0.57485  0.92812  1.0000
  C   C611      1.0  0.54716  0.52973  0.84466  1.0000
  Fe  Fe122     1.0  0.57889  0.02458  0.92830  1.0000
  H   H972      1.0  0.84914  0.59056  0.89330  1.0000
  H   H973      1.0  0.94722  0.58823  0.90836  1.0000
  C   C612      1.0  0.53866  0.00118  0.97825  1.0000
  N   N62       1.0  0.70145  0.54127  0.82908  1.0000
  H   H974      1.0  0.66135  0.99050  0.85957  1.0000
  S   S242      1.0  0.95481  0.59186  0.81089  1.0000
  H   H975      1.0  0.86262  0.98670  0.92242  1.0000
  C   C613      1.0  0.55242  0.58499  0.96802  1.0000
  H   H976      1.0  0.53717  0.54417  0.87440  1.0000
  H   H977      1.0  0.70464  0.00101  0.83249  1.0000
  N   N63       1.0  0.67071  0.97018  0.83215  1.0000
  H   H978      1.0  0.70232  0.56029  0.85742  1.0000
  H   H979      1.0  0.85302  0.99596  0.86708  1.0000
  H   H980      1.0  0.64796  0.93503  0.82895  1.0000
  H   H981      1.0  0.85905  0.95559  0.88500  1.0000
  H   H982      1.0  0.55255  0.70791  0.97132  1.0000
  H   H983      1.0  0.01519  0.82659  0.88167  1.0000
  H   H984      1.0  0.94604  0.98682  0.88973  1.0000
  H   H985      1.0  0.00264  0.79555  0.88535  1.0000
  S   S243      1.0  0.91543  0.94249  0.80021  1.0000
  Fe  Fe123     1.0  0.91637  0.96173  0.82996  1.0000
  S   S244      1.0  0.89419  0.99838  0.81753  1.0000
  S   S245      1.0  0.96555  0.96484  0.85014  1.0000
  Fe  Fe124     1.0  0.83897  0.98515  0.82573  1.0000
  H   H986      1.0  0.77737  0.93693  0.79937  1.0000
  H   H987      1.0  0.76244  0.95131  0.89255  1.0000
  S   S246      1.0  0.86142  0.94971  0.83992  1.0000
  S   S247      1.0  0.53181  0.57425  0.92925  1.0000
  H   H988      1.0  0.79950  0.96503  0.86380  1.0000
  S   S248      1.0  0.59951  0.96412  0.89891  1.0000
  S   S249      1.0  0.55995  0.99624  0.85370  1.0000
  S   S250      1.0  0.69912  0.97346  0.91270  1.0000
  C   C614      1.0  0.98622  0.93870  0.86245  1.0000
  C   C615      1.0  0.88511  0.57469  0.92657  1.0000
  C   C616      1.0  0.96783  0.91715  0.86481  1.0000
  C   C617      1.0  0.64005  0.98385  0.82138  1.0000
  H   H989      1.0  0.63714  0.96316  0.85796  1.0000
  H   H990      1.0  0.88748  0.58638  0.87633  1.0000
  H   H991      1.0  0.71185  0.98117  0.81118  1.0000
  C   C618      1.0  0.74010  0.01566  0.86846  1.0000
  H   H992      1.0  0.55830  0.53129  0.97571  1.0000
  H   H993      1.0  0.02003  0.80508  0.86135  1.0000
  C   C619      1.0  0.76945  0.00036  0.86090  1.0000
  C   C620      1.0  0.72636  0.98442  0.89312  1.0000
  C   C621      1.0  0.75628  0.96935  0.88590  1.0000
  C   C622      1.0  0.77746  0.97716  0.86967  1.0000
  S   S251      1.0  0.60597  0.99050  0.94286  1.0000
  Fe  Fe125     1.0  0.63920  0.98751  0.91414  1.0000
  C   C623      1.0  0.54570  0.93911  0.97486  1.0000
  C   C624      1.0  0.98442  0.89718  0.87585  1.0000
  Fe  Fe126     1.0  0.57309  0.99954  0.88693  1.0000
  H   H994      1.0  0.63640  0.00332  0.82654  1.0000
  Fe  Fe127     1.0  0.56380  0.97064  0.92595  1.0000
  S   S252      1.0  0.83602  0.89805  0.80082  1.0000
  C   C625      1.0  0.53954  0.93342  0.99522  1.0000
  S   S253      1.0  0.63293  0.53671  0.93854  1.0000
  H   H995      1.0  0.94074  0.91597  0.85834  1.0000
  H   H996      1.0  0.57944  0.55783  0.80586  1.0000
  H   H997      1.0  0.90157  0.99465  0.86219  1.0000
  C   C626      1.0  0.54536  0.59482  0.98727  1.0000
  C   C627      1.0  0.67366  0.94422  0.82560  1.0000
  C   C628      1.0  0.54435  0.70644  0.98741  1.0000
  C   C629      1.0  0.92386  0.99325  0.90047  1.0000
  Fe  Fe128     1.0  0.85773  0.93447  0.80873  1.0000
  N   N64       1.0  0.88719  0.98756  0.89297  1.0000
  C   C630      1.0  0.71839  0.00763  0.88439  1.0000
  C   C631      1.0  0.01969  0.89855  0.88414  1.0000
  H   H998      1.0  0.56040  0.93642  0.00636  1.0000
  H   H999      1.0  0.85458  0.54495  0.90056  1.0000
  H   H1000     1.0  0.97001  0.88063  0.87789  1.0000
  C   C632      1.0  0.81089  0.53460  0.86491  1.0000
  H   H1001     1.0  0.53519  0.65773  0.98893  1.0000
  H   H1002     1.0  0.00135  0.64866  0.88504  1.0000
  C   C633      1.0  0.88495  0.54586  0.89914  1.0000
  H   H1003     1.0  0.69673  0.93349  0.83343  1.0000
  H   H1004     1.0  0.89744  0.56023  0.93697  1.0000
  H   H1005     1.0  0.72932  0.97148  0.83537  1.0000
  H   H1006     1.0  0.53829  0.57776  0.80827  1.0000
  C   C634      1.0  0.85841  0.99606  0.90755  1.0000
  C   C635      1.0  0.01484  0.63037  0.88379  1.0000
  H   H1007     1.0  0.95138  0.55573  0.91404  1.0000
  H   H1008     1.0  0.69570  0.01952  0.89003  1.0000
  H   H1009     1.0  0.67905  0.94273  0.80912  1.0000
  H   H1010     1.0  0.92566  0.01341  0.90241  1.0000
  H   H1011     1.0  0.87962  0.02060  0.87491  1.0000
  H   H1012     1.0  0.69563  0.56195  0.80133  1.0000
  H   H1013     1.0  0.54208  0.72539  0.99372  1.0000
  S   S254      1.0  0.53450  0.00463  0.91307  1.0000
  H   H1014     1.0  0.55503  0.01632  0.97266  1.0000
  C   C636      1.0  0.02133  0.94007  0.87085  1.0000
  H   H1015     1.0  0.55653  0.98965  0.98875  1.0000
  C   C637      1.0  0.68765  0.56335  0.81753  1.0000
  H   H1016     1.0  0.58251  0.59048  0.80803  1.0000
  H   H1017     1.0  0.75509  0.55435  0.83418  1.0000
  H   H1018     1.0  0.65709  0.56603  0.81831  1.0000
  S   S255      1.0  0.61515  0.02299  0.90053  1.0000
  H   H1019     1.0  0.53259  0.98965  0.96505  1.0000
  S   S256      1.0  0.01934  0.53724  0.80447  1.0000
  C   C638      1.0  0.74207  0.53835  0.82760  1.0000
  H   H1020     1.0  0.65998  0.54657  0.85210  1.0000
  C   C639      1.0  0.69046  0.54410  0.85043  1.0000
  H   H1021     1.0  0.81588  0.59731  0.80223  1.0000
  C   C640      1.0  0.52564  0.54145  0.85966  1.0000
  H   H1022     1.0  0.52754  0.97483  0.81900  1.0000
  H   H1023     1.0  0.52412  0.93357  0.89153  1.0000
  H   H1024     1.0  0.89818  0.53052  0.90834  1.0000
