data_image0
_chemical_formula_structural       FeS2FeSFeCSHSC6H5CSC2H3CHCH5SH3C2HNC3H9C2HC2S2NH3CHSCFeHCHCSHSCFeSFeHCSH5CFeSH2FeCH3C3H2C2NH2CH2C2HCHC2SHNCH8NCH4C2H6FeS2H3S3H2SCHC6H6Fe2HCHNH2Fe2H2CH4NCHNH5CHCH3C2H3C2HNHC2SH4C2HC2FeSFeSFeS4CHC5HFeH5CSCH3CHCHCH4NH3C2H2C2H2CSHCH4NH5CHC2H2CHCFeSH2FeS2FeS3CSCHC3FeH3C2H2CH3C2SFeSCHSCH2SH2CHCSCHSHC7H5CHC2HC2HCFeH9NH5SHNHFeHCHFeH3C3NHCH2CHC4HNH2CFeHCH6CH3CSHCNHSHSFeSFeSFeNFeC4SHCHC3H2CHS2H2C2HSH2C5H2C2HCH3FeCH5CH2C5HCHCHNS4HC4SH4CH8C2HSH2FeCS2H4CSC2HC4H3NCH4CH5CFeCSHFeCH2CHFeSHSFeCHFeSCH2SHC6H4FeHSFeS2H4SHSH2CHC5HC4H2NH3CH3CFeSHCHC3FeH2CNHNH4S2C2H2CH3SCHFeCH3CHFeHCS2HFeHNSCSH4SC2H2C2H3SHSCSHFeS2FeC5FeHSCSH2SHSFeS2HSHCSH2C7H6CHCHCHCH6CNH2C2H2CHC2NC2H6CH2FeC2SH4CSCHCH2CHC2H7FeSFeCSFeH2NC2HC2HCH3CSHCH3SFeS2C4SH5CH2FeSCSCH2CH2C5H7SCNCFeHNCH2CHCH2CHFeS2FeSCFe2S4CH5C2H3CSC4HSNCHCH2C2HC2H2CFeCSHC4H2NC4H14CHSHFeS2HSHCH2FeCH2S2HCH4NCS2H6C2SC2HCHC3H2C3NHSH3CH7CH2SHC2H5CH3Fe3SC3SH2FeH4CHC4H2CNSH3S2CHCHSHCHCFeS2FeC2SC3H5CNH2CHCH4CH3FeS2FeHFeS4HS2H3CS2HC3H2CFe2CHC2HC3H3Fe2HC2SH3NHSH4CSFeHC2HSH3C2H3CHCHNSC4H2SH2CH3CHFeCH3C5H3SCHCH2FeH2SNH2NHSCHCH3CHC3HCH4SHSHCSH2CHCH4CHCHSH2FeH2C6FeSH4CHSHC2H2CH2NHCH4SH4CH4CH2CH2C4HCSHFeSC2HCH3NH2CH3C2HSHCH2CNSH4C2H3Fe2HSH2S2H2CSHC3H4C2HSFeCFe2S2FeHCSCFeC4H4S2H4FeH5C2NHNSFeCSC2HCH3CH5C2HSHCHCSH2FeS2H2FeSHCSHC3H2SC2HFeSFeS2H2C3H2SCFeSC2FeHSC4HCFeH2CNCSH3CHCH4CHCHCH5CH2CFeS2FeSFeCS3C6H4C3H2CH3C3HCHC3H2CH2FeH3FeHNH2SH3SCH3C3SHNCH4C2SHSCHCHCSHCFeSFeHCS2CH3CSCH2CHC3FeSH2CH2S2H5CHFeCH2C2H2NH2C2H2CH3S2C3H5S2FeCH3CH3CHC2HFeHCNH2CSH2CH3CHNSC5H5CHFeS2FeSHS2HSC6H6FeH2C3HFeHSC3H4SHC2NH4FeHSH4NCFeCH2CHSHFeSH2CH2C2HSFeHCNH2CH3CH2CHCH2CH6CFeCFeCSFeSHNHCSC2HFeCHS2C2SH5C2HCFeSHC3H5SH6C2H3CHNH2CHFeS2FeSHSHSHSC4H3NFeH2FeH2CSC2HCHC2FeS3H5CHSH2C6HSH3CHNCH2CHCH4NH5CSCNH2FeSFe2SFeS3CHSH2C6H2CH3FeH2CSCHC3H4CHNHC2H3CH2CHCH2CH2CH5CH6CH5CHNSHS2HCFeCH2CH4C4HCH3C2NC2H4C3HSH2CHCHNHS2HCHSH2CNH5FeS2FeSFeHSHFeHS2HCSC6H4CH3C6H6CH4NCHCHCH3SH5CHCH2CFeCH3NH2CNCHCHCH2C2HCH4CH2NH3C3H3CHCHCHFeCHC2H4CNH2C2SCH5CHNHFe2SFeHFeS2FeHS3C6H4CHC3HC3H2CH2CH4SH2S2H4CHSH2NCHSC2FeH2CHSHCH2NHCH6C2H2CH5C2H2SHSH3NCH
_chemical_formula_sum              "Fe144 S288 C720 H1152 N72"
_cell_length_a       52.5665
_cell_length_b       52.458
_cell_length_c       70.7762
_cell_angle_alpha    90.6053
_cell_angle_beta     91.8397
_cell_angle_gamma    116.427

_space_group_name_H-M_alt    "P 1"
_space_group_IT_number       1

loop_
  _space_group_symop_operation_xyz
  'x, y, z'

loop_
  _atom_site_type_symbol
  _atom_site_label
  _atom_site_symmetry_multiplicity
  _atom_site_fract_x
  _atom_site_fract_y
  _atom_site_fract_z
  _atom_site_occupancy
  Fe  Fe1       1.0  0.20554  0.04972  0.11617  1.0000
  S   S1        1.0  0.25042  0.06656  0.10726  1.0000
  S   S2        1.0  0.18682  0.07983  0.12379  1.0000
  Fe  Fe2       1.0  0.25498  0.03798  0.12915  1.0000
  S   S3        1.0  0.29699  0.05972  0.14661  1.0000
  Fe  Fe3       1.0  0.23375  0.02930  0.08671  1.0000
  C   C1        1.0  0.12007  0.25739  0.11976  1.0000
  S   S4        1.0  0.21051  0.02250  0.13908  1.0000
  H   H1        1.0  0.23616  0.08264  0.01460  1.0000
  S   S5        1.0  0.25532  0.21113  0.10653  1.0000
  C   C2        1.0  0.20459  0.11599  0.11758  1.0000
  C   C3        1.0  0.19468  0.13529  0.12395  1.0000
  C   C4        1.0  0.20956  0.16451  0.12021  1.0000
  C   C5        1.0  0.23465  0.17456  0.11030  1.0000
  C   C6        1.0  0.24440  0.15526  0.10384  1.0000
  C   C7        1.0  0.22922  0.12609  0.10721  1.0000
  H   H2        1.0  0.17552  0.12764  0.13186  1.0000
  H   H3        1.0  0.20183  0.17925  0.12520  1.0000
  H   H4        1.0  0.26364  0.16286  0.09602  1.0000
  H   H5        1.0  0.23668  0.11150  0.10175  1.0000
  H   H6        1.0  0.05652  0.22346  0.14577  1.0000
  C   C8        1.0  0.15513  0.27712  0.07776  1.0000
  S   S6        1.0  0.99513  0.24692  0.08871  1.0000
  C   C9        1.0  0.30567  0.06522  0.17129  1.0000
  C   C10       1.0  0.28681  0.04920  0.18493  1.0000
  H   H7        1.0  0.27177  0.12126  0.19572  1.0000
  H   H8        1.0  0.24714  0.10388  0.13720  1.0000
  H   H9        1.0  0.11588  0.29567  0.08366  1.0000
  C   C11       1.0  0.01234  0.18868  0.12240  1.0000
  H   H10       1.0  0.21901  0.11905  0.15844  1.0000
  C   C12       1.0  0.11599  0.28741  0.06911  1.0000
  H   H11       1.0  0.28612  0.27920  0.14662  1.0000
  H   H12       1.0  0.26200  0.27867  0.04671  1.0000
  H   H13       1.0  0.12060  0.32053  0.13236  1.0000
  H   H14       1.0  0.08370  0.22147  0.10731  1.0000
  H   H15       1.0  0.25048  0.15040  0.16568  1.0000
  S   S7        1.0  0.18809  0.01423  0.09393  1.0000
  H   H16       1.0  0.22924  0.12606  0.18311  1.0000
  H   H17       1.0  0.27887  0.10301  0.14622  1.0000
  H   H18       1.0  0.26607  0.03261  0.18054  1.0000
  C   C13       1.0  0.26103  0.27810  0.01608  1.0000
  C   C14       1.0  0.23763  0.12751  0.16872  1.0000
  H   H19       1.0  0.00578  0.20479  0.11694  1.0000
  N   N1        1.0  0.25451  0.11139  0.16711  1.0000
  C   C15       1.0  0.27890  0.12288  0.18095  1.0000
  C   C16       1.0  0.23629  0.08110  0.17084  1.0000
  C   C17       1.0  0.26506  0.11389  0.14780  1.0000
  H   H20       1.0  0.27758  0.13648  0.14394  1.0000
  H   H21       1.0  0.29328  0.14561  0.17843  1.0000
  H   H22       1.0  0.29182  0.11090  0.18006  1.0000
  H   H23       1.0  0.17603  0.27866  0.07386  1.0000
  H   H24       1.0  0.21691  0.07224  0.16124  1.0000
  H   H25       1.0  0.18633  0.32726  0.06198  1.0000
  H   H26       1.0  0.19003  0.00993  0.04752  1.0000
  H   H27       1.0  0.14018  0.25406  0.07831  1.0000
  H   H28       1.0  0.99415  0.31936  0.14797  1.0000
  C   C18       1.0  0.29517  0.05405  0.20432  1.0000
  C   C19       1.0  0.03465  0.21802  0.15034  1.0000
  H   H29       1.0  0.05221  0.24564  0.10717  1.0000
  C   C20       1.0  0.22540  0.30441  0.01878  1.0000
  C   C21       1.0  0.24508  0.02475  0.01873  1.0000
  S   S8        1.0  0.25096  0.03420  0.05713  1.0000
  S   S9        1.0  0.14105  0.23876  0.12068  1.0000
  N   N2        1.0  0.01403  0.18930  0.14330  1.0000
  H   H30       1.0  0.02897  0.23478  0.14492  1.0000
  H   H31       1.0  0.03563  0.21964  0.16605  1.0000
  H   H32       1.0  0.10086  0.26434  0.06864  1.0000
  C   C22       1.0  0.09176  0.24312  0.11275  1.0000
  H   H33       1.0  0.28062  0.04116  0.21473  1.0000
  S   S10       1.0  0.20096  0.24278  0.09077  1.0000
  C   C23       1.0  0.23081  0.02260  0.03554  1.0000
  Fe  Fe4       1.0  0.23625  0.24204  0.10902  1.0000
  H   H34       1.0  0.27600  0.24300  0.13993  1.0000
  C   C24       1.0  0.20114  0.01105  0.03473  1.0000
  H   H35       1.0  0.00835  0.14619  0.14475  1.0000
  C   C25       1.0  0.11253  0.29897  0.12671  1.0000
  S   S11       1.0  0.26688  0.28692  0.10240  1.0000
  H   H36       1.0  0.31177  0.22638  0.13491  1.0000
  S   S12       1.0  0.21695  0.30503  0.11171  1.0000
  C   C26       1.0  0.13057  0.28559  0.12641  1.0000
  Fe  Fe5       1.0  0.23037  0.28861  0.08613  1.0000
  S   S13       1.0  0.22815  0.30787  0.05766  1.0000
  Fe  Fe6       1.0  0.25114  0.29895  0.12865  1.0000
  H   H37       1.0  0.13666  0.29180  0.03426  1.0000
  C   C27       1.0  0.02345  0.16809  0.14986  1.0000
  S   S14       1.0  0.22191  0.25378  0.13592  1.0000
  H   H38       1.0  0.26695  0.28964  0.17766  1.0000
  H   H39       1.0  0.28879  0.28781  0.20899  1.0000
  H   H40       1.0  0.10744  0.29830  0.05917  1.0000
  H   H41       1.0  0.04478  0.17269  0.14458  1.0000
  H   H42       1.0  0.13018  0.25775  0.04360  1.0000
  C   C28       1.0  0.32484  0.27924  0.12373  1.0000
  Fe  Fe7       1.0  0.18895  0.25890  0.11698  1.0000
  S   S15       1.0  0.06155  0.30133  0.12179  1.0000
  H   H43       1.0  0.28840  0.25525  0.16375  1.0000
  H   H44       1.0  0.24782  0.06799  0.16857  1.0000
  Fe  Fe8       1.0  0.01470  0.27840  0.11295  1.0000
  C   C29       1.0  0.16429  0.32297  0.06543  1.0000
  H   H45       1.0  0.15233  0.29679  0.13188  1.0000
  H   H46       1.0  0.03313  0.19311  0.11637  1.0000
  H   H47       1.0  0.99632  0.16758  0.11659  1.0000
  C   C30       1.0  0.23600  0.29752  0.03546  1.0000
  C   C31       1.0  0.25355  0.28395  0.03401  1.0000
  C   C32       1.0  0.08401  0.28443  0.12015  1.0000
  H   H48       1.0  0.16597  0.28446  0.04092  1.0000
  H   H49       1.0  0.26804  0.03363  0.01926  1.0000
  C   C33       1.0  0.29942  0.30607  0.20025  1.0000
  C   C34       1.0  0.28701  0.30699  0.18243  1.0000
  N   N3        1.0  0.14489  0.29213  0.06428  1.0000
  H   H50       1.0  0.21199  0.31509  0.01971  1.0000
  H   H51       1.0  0.22909  0.07806  0.18562  1.0000
  C   C35       1.0  0.07388  0.25668  0.11273  1.0000
  H   H52       1.0  0.15799  0.28636  0.09231  1.0000
  H   H53       1.0  0.27519  0.26825  0.01513  1.0000
  C   C36       1.0  0.29165  0.26129  0.14869  1.0000
  C   C37       1.0  0.14432  0.28104  0.04490  1.0000
  H   H54       1.0  0.02500  0.16797  0.16558  1.0000
  C   C38       1.0  0.18589  0.00091  0.01733  1.0000
  H   H55       1.0  0.30951  0.26264  0.11363  1.0000
  C   C39       1.0  0.32527  0.32861  0.20693  1.0000
  C   C40       1.0  0.32228  0.07513  0.21032  1.0000
  S   S16       1.0  0.24252  0.00201  0.10767  1.0000
  H   H56       1.0  0.32129  0.29858  0.12235  1.0000
  N   N4        1.0  0.32110  0.26919  0.14334  1.0000
  C   C41       1.0  0.30028  0.33056  0.17100  1.0000
  H   H57       1.0  0.02163  0.33117  0.16622  1.0000
  H   H58       1.0  0.32382  0.23576  0.15924  1.0000
  H   H59       1.0  0.03041  0.33153  0.14183  1.0000
  H   H60       1.0  0.20949  0.09527  0.01343  1.0000
  H   H61       1.0  0.26231  0.08158  0.49430  1.0000
  H   H62       1.0  0.27423  0.05592  0.46908  1.0000
  H   H63       1.0  0.30947  0.13494  0.47727  1.0000
  H   H64       1.0  0.29781  0.04970  0.48537  1.0000
  N   N5        1.0  0.30434  0.09323  0.48472  1.0000
  C   C42       1.0  0.28464  0.08993  0.49997  1.0000
  H   H65       1.0  0.31070  0.06691  0.46368  1.0000
  H   H66       1.0  0.28112  0.10585  0.46430  1.0000
  H   H67       1.0  0.29029  0.11065  0.50743  1.0000
  H   H68       1.0  0.31751  0.11635  0.45904  1.0000
  C   C43       1.0  0.29628  0.06522  0.47531  1.0000
  C   C44       1.0  0.30291  0.11339  0.47076  1.0000
  H   H69       1.0  0.28527  0.07478  0.51069  1.0000
  H   H70       1.0  0.31797  0.30347  0.50752  1.0000
  H   H71       1.0  0.32500  0.27660  0.49585  1.0000
  H   H72       1.0  0.30452  0.32128  0.26643  1.0000
  H   H73       1.0  0.26180  0.33000  0.26620  1.0000
  H   H74       1.0  0.24044  0.31467  0.86119  1.0000
  Fe  Fe9       1.0  0.21670  0.05615  0.92421  1.0000
  S   S17       1.0  0.23745  0.03094  0.93757  1.0000
  S   S18       1.0  0.24191  0.10422  0.92750  1.0000
  H   H75       1.0  0.22396  0.30332  0.98816  1.0000
  H   H76       1.0  0.13394  0.18368  0.89182  1.0000
  H   H77       1.0  0.14798  0.21370  0.90788  1.0000
  S   S19       1.0  0.19355  0.24053  0.94319  1.0000
  S   S20       1.0  0.17558  0.03131  0.93811  1.0000
  S   S21       1.0  0.20328  0.02972  0.89717  1.0000
  H   H78       1.0  0.03134  0.30770  0.88129  1.0000
  H   H79       1.0  0.08982  0.29175  0.86733  1.0000
  S   S22       1.0  0.19245  0.19063  0.90308  1.0000
  C   C45       1.0  0.10573  0.19466  0.93190  1.0000
  H   H80       1.0  0.27263  0.10789  0.87081  1.0000
  C   C46       1.0  0.22708  0.12763  0.92138  1.0000
  C   C47       1.0  0.20155  0.11824  0.91068  1.0000
  C   C48       1.0  0.19114  0.13776  0.90529  1.0000
  C   C49       1.0  0.20585  0.16670  0.91080  1.0000
  C   C50       1.0  0.23100  0.17593  0.92193  1.0000
  C   C51       1.0  0.24167  0.15650  0.92705  1.0000
  H   H81       1.0  0.19013  0.09609  0.90618  1.0000
  H   H82       1.0  0.17174  0.13044  0.89662  1.0000
  H   H83       1.0  0.24256  0.19815  0.92623  1.0000
  H   H84       1.0  0.26147  0.16401  0.93529  1.0000
  H   H85       1.0  0.13485  0.15208  0.91673  1.0000
  H   H86       1.0  0.28146  0.04206  0.86189  1.0000
  Fe  Fe10      1.0  0.20945  0.23598  0.91495  1.0000
  Fe  Fe11      1.0  0.22136  0.00268  0.91117  1.0000
  H   H87       1.0  0.08988  0.26629  0.94844  1.0000
  C   C52       1.0  0.06136  0.24099  0.90440  1.0000
  H   H88       1.0  0.25525  0.07346  0.98580  1.0000
  N   N6        1.0  0.28799  0.07797  0.87990  1.0000
  H   H89       1.0  0.26787  0.04997  0.90244  1.0000
  H   H90       1.0  0.28557  0.11264  0.89508  1.0000
  Fe  Fe12      1.0  0.16379  0.00231  0.91249  1.0000
  Fe  Fe13      1.0  0.99949  0.24373  0.90509  1.0000
  H   H91       1.0  0.13170  0.25901  0.89897  1.0000
  H   H92       1.0  0.04376  0.24557  0.93055  1.0000
  C   C53       1.0  0.23223  0.29783  0.00084  1.0000
  H   H93       1.0  0.03843  0.30405  0.85711  1.0000
  H   H94       1.0  0.28612  0.32019  0.94188  1.0000
  H   H95       1.0  0.24109  0.01597  0.98856  1.0000
  H   H96       1.0  0.20614  0.09669  0.96065  1.0000
  N   N7        1.0  0.07558  0.32247  0.87593  1.0000
  C   C54       1.0  0.27148  0.05639  0.86502  1.0000
  H   H97       1.0  0.26968  0.06637  0.85157  1.0000
  N   N8        1.0  0.22595  0.09184  0.98654  1.0000
  H   H98       1.0  0.04080  0.28033  0.87439  1.0000
  H   H99       1.0  0.07156  0.16318  0.90292  1.0000
  H   H100      1.0  0.14990  0.18177  0.93300  1.0000
  H   H101      1.0  0.24953  0.04254  0.86943  1.0000
  H   H102      1.0  0.11815  0.15089  0.93874  1.0000
  C   C55       1.0  0.12789  0.19572  0.90237  1.0000
  H   H103      1.0  0.12551  0.21313  0.93747  1.0000
  C   C56       1.0  0.21778  0.08195  0.00592  1.0000
  H   H104      1.0  0.08915  0.14105  0.89926  1.0000
  H   H105      1.0  0.19197  0.10361  0.98180  1.0000
  H   H106      1.0  0.22045  0.05136  0.97549  1.0000
  C   C57       1.0  0.28946  0.06348  0.89740  1.0000
  C   C58       1.0  0.08510  0.15438  0.90998  1.0000
  H   H107      1.0  0.09168  0.20342  0.92563  1.0000
  H   H108      1.0  0.30162  0.07895  0.90905  1.0000
  H   H109      1.0  0.07253  0.14014  0.92125  1.0000
  C   C59       1.0  0.12936  0.16492  0.92702  1.0000
  C   C60       1.0  0.22986  0.01488  0.00131  1.0000
  H   H110      1.0  0.09483  0.18191  0.94420  1.0000
  N   N9        1.0  0.11202  0.17741  0.91784  1.0000
  H   H111      1.0  0.11522  0.20492  0.89475  1.0000
  C   C61       1.0  0.04526  0.30280  0.87197  1.0000
  C   C62       1.0  0.23715  0.07374  0.97735  1.0000
  S   S23       1.0  0.02890  0.22874  0.89135  1.0000
  H   H112      1.0  0.08513  0.23849  0.88078  1.0000
  H   H113      1.0  0.29958  0.04906  0.89509  1.0000
  H   H114      1.0  0.31673  0.10661  0.86032  1.0000
  H   H115      1.0  0.24047  0.13605  0.99426  1.0000
  C   C63       1.0  0.11383  0.26392  0.92492  1.0000
  C   C64       1.0  0.08618  0.24434  0.89559  1.0000
  H   H116      1.0  0.24488  0.08144  0.96309  1.0000
  C   C65       1.0  0.08303  0.32142  0.89613  1.0000
  C   C66       1.0  0.11248  0.25594  0.90583  1.0000
  Fe  Fe14      1.0  0.24137  0.30083  0.90988  1.0000
  S   S24       1.0  0.19740  0.26772  0.90052  1.0000
  Fe  Fe15      1.0  0.23732  0.27532  0.94946  1.0000
  S   S25       1.0  0.26205  0.27914  0.97720  1.0000
  Fe  Fe16      1.0  0.18457  0.27412  0.92946  1.0000
  S   S26       1.0  0.14580  0.27794  0.93858  1.0000
  S   S27       1.0  0.25440  0.26838  0.92200  1.0000
  S   S28       1.0  0.22716  0.30944  0.93798  1.0000
  S   S29       1.0  0.02020  0.28459  0.92197  1.0000
  C   C67       1.0  0.24811  0.12172  0.98734  1.0000
  H   H117      1.0  0.00596  0.24250  0.01158  1.0000
  C   C68       1.0  0.20077  0.08986  0.97546  1.0000
  C   C69       1.0  0.06284  0.24868  0.92350  1.0000
  C   C70       1.0  0.08898  0.26027  0.93366  1.0000
  C   C71       1.0  0.27400  0.09642  0.88364  1.0000
  C   C72       1.0  0.25041  0.28496  0.99941  1.0000
  H   H118      1.0  0.25452  0.12973  0.97285  1.0000
  Fe  Fe17      1.0  0.19501  0.00410  0.94971  1.0000
  H   H119      1.0  0.25194  0.08390  0.88835  1.0000
  H   H120      1.0  0.07078  0.32883  0.90541  1.0000
  H   H121      1.0  0.18352  0.06761  0.97470  1.0000
  H   H122      1.0  0.11632  0.32815  0.86672  1.0000
  H   H123      1.0  0.26753  0.12393  0.99543  1.0000
  C   C73       1.0  0.20018  0.00273  0.00057  1.0000
  S   S30       1.0  0.99809  0.25707  0.97387  1.0000
  C   C74       1.0  0.09326  0.31381  0.86415  1.0000
  H   H124      1.0  0.07829  0.29938  0.90022  1.0000
  H   H125      1.0  0.08805  0.31422  0.84882  1.0000
  H   H126      1.0  0.31541  0.32178  0.95608  1.0000
  C   C75       1.0  0.31706  0.09548  0.87357  1.0000
  H   H127      1.0  0.20093  0.05952  0.00572  1.0000
  C   C76       1.0  0.99420  0.25493  0.01234  1.0000
  H   H128      1.0  0.05219  0.40764  0.15331  1.0000
  C   C77       1.0  0.01068  0.36886  0.13076  1.0000
  H   H129      1.0  0.30028  0.38426  0.24591  1.0000
  H   H130      1.0  0.00356  0.39154  0.16390  1.0000
  H   H131      1.0  0.06362  0.38224  0.14462  1.0000
  H   H132      1.0  0.01230  0.39059  0.12913  1.0000
  N   N10       1.0  0.01914  0.36470  0.15017  1.0000
  H   H133      1.0  0.05591  0.38281  0.16914  1.0000
  H   H134      1.0  0.29665  0.34903  0.24092  1.0000
  H   H135      1.0  0.02425  0.36574  0.12010  1.0000
  C   C78       1.0  0.01626  0.33545  0.15163  1.0000
  C   C79       1.0  0.04906  0.38530  0.15450  1.0000
  H   H136      1.0  0.01901  0.63748  0.19524  1.0000
  H   H137      1.0  0.00459  0.36401  0.17842  1.0000
  C   C80       1.0  0.30827  0.36862  0.24999  1.0000
  C   C81       1.0  0.00057  0.36917  0.16373  1.0000
  H   H138      1.0  0.00609  0.66215  0.22065  1.0000
  H   H139      1.0  0.00317  0.61392  0.22595  1.0000
  C   C82       1.0  0.32607  0.35315  0.17772  1.0000
  S   S31       1.0  0.28596  0.33273  0.14818  1.0000
  H   H140      1.0  0.15731  0.33500  0.05538  1.0000
  C   C83       1.0  0.99633  0.62748  0.19011  1.0000
  H   H141      1.0  0.16541  0.33199  0.07992  1.0000
  H   H142      1.0  0.99389  0.64155  0.17925  1.0000
  H   H143      1.0  0.00898  0.41009  0.49830  1.0000
  H   H144      1.0  0.01722  0.60802  0.50672  1.0000
  N   N11       1.0  0.30490  0.36223  0.27033  1.0000
  H   H145      1.0  0.31324  0.40486  0.27890  1.0000
  H   H146      1.0  0.28683  0.46320  0.49159  1.0000
  H   H147      1.0  0.26546  0.36514  0.27129  1.0000
  H   H148      1.0  0.29618  0.36521  0.51091  1.0000
  H   H149      1.0  0.27511  0.42694  0.49843  1.0000
  C   C84       1.0  0.32100  0.38867  0.28182  1.0000
  H   H150      1.0  0.25363  0.44491  0.50302  1.0000
  C   C85       1.0  0.27448  0.35004  0.27461  1.0000
  C   C86       1.0  0.27593  0.44778  0.50278  1.0000
  H   H151      1.0  0.27125  0.34493  0.28985  1.0000
  H   H152      1.0  0.31414  0.33633  0.29021  1.0000
  C   C87       1.0  0.31589  0.34147  0.27493  1.0000
  H   H153      1.0  0.31946  0.38449  0.29726  1.0000
  C   C88       1.0  0.99347  0.40383  0.50917  1.0000
  Fe  Fe18      1.0  0.28794  0.46920  0.58466  1.0000
  S   S32       1.0  0.28594  0.42627  0.59011  1.0000
  H   H154      1.0  0.17997  0.44279  0.74098  1.0000
  H   H155      1.0  0.16148  0.47483  0.57968  1.0000
  Fe  Fe19      1.0  0.09759  0.44019  0.59414  1.0000
  S   S33       1.0  0.05314  0.41443  0.60407  1.0000
  S   S34       1.0  0.12660  0.41850  0.59467  1.0000
  Fe  Fe20      1.0  0.03892  0.43405  0.58028  1.0000
  S   S35       1.0  0.11160  0.53986  0.58390  1.0000
  S   S36       1.0  0.30233  0.48637  0.61417  1.0000
  S   S37       1.0  0.08297  0.45697  0.56891  1.0000
  C   C89       1.0  0.17387  0.46298  0.58026  1.0000
  S   S38       1.0  0.31870  0.48791  0.75917  1.0000
  C   C90       1.0  0.21880  0.46075  0.57578  1.0000
  H   H156      1.0  0.02538  0.42127  0.53203  1.0000
  C   C91       1.0  0.16159  0.43497  0.58647  1.0000
  C   C92       1.0  0.17789  0.41983  0.58705  1.0000
  C   C93       1.0  0.20648  0.43273  0.58197  1.0000
  Fe  Fe21      1.0  0.08869  0.49271  0.58930  1.0000
  H   H157      1.0  0.21883  0.42085  0.58252  1.0000
  H   H158      1.0  0.08862  0.51358  0.66039  1.0000
  H   H159      1.0  0.03062  0.46185  0.68870  1.0000
  C   C94       1.0  0.15640  0.43054  0.74063  1.0000
  C   C95       1.0  0.16105  0.38683  0.74097  1.0000
  H   H160      1.0  0.05546  0.62017  0.55400  1.0000
  H   H161      1.0  0.21156  0.49726  0.56973  1.0000
  C   C96       1.0  0.10336  0.53321  0.65322  1.0000
  H   H162      1.0  0.09741  0.58649  0.62945  1.0000
  H   H163      1.0  0.16831  0.39798  0.59150  1.0000
  H   H164      1.0  0.01044  0.57517  0.55380  1.0000
  C   C97       1.0  0.20228  0.47567  0.57469  1.0000
  C   C98       1.0  0.10835  0.57450  0.63585  1.0000
  S   S39       1.0  0.04406  0.47127  0.59876  1.0000
  Fe  Fe22      1.0  0.32219  0.44734  0.75517  1.0000
  S   S40       1.0  0.25431  0.47711  0.56855  1.0000
  C   C99       1.0  0.00287  0.41025  0.52832  1.0000
  H   H165      1.0  0.01776  0.64804  0.55110  1.0000
  S   S41       1.0  0.04174  0.61022  0.59467  1.0000
  C   C100      1.0  0.04886  0.62342  0.53945  1.0000
  H   H166      1.0  0.05033  0.51047  0.63823  1.0000
  H   H167      1.0  0.18545  0.39264  0.64331  1.0000
  S   S42       1.0  0.28097  0.42340  0.64608  1.0000
  H   H168      1.0  0.25926  0.41222  0.68342  1.0000
  H   H169      1.0  0.18700  0.46415  0.64528  1.0000
  C   C101      1.0  0.00685  0.62444  0.55149  1.0000
  H   H170      1.0  0.09149  0.57150  0.67169  1.0000
  C   C102      1.0  0.20330  0.40948  0.63594  1.0000
  S   S43       1.0  0.04313  0.45404  0.65049  1.0000
  C   C103      1.0  0.00998  0.61787  0.51802  1.0000
  H   H171      1.0  0.01227  0.56981  0.52886  1.0000
  S   S44       1.0  0.09304  0.43686  0.73023  1.0000
  H   H172      1.0  0.00101  0.42077  0.61156  1.0000
  C   C104      1.0  0.00474  0.58037  0.53951  1.0000
  C   C105      1.0  0.05808  0.45016  0.67250  1.0000
  C   C106      1.0  0.04742  0.45527  0.68935  1.0000
  C   C107      1.0  0.05823  0.45180  0.70713  1.0000
  C   C108      1.0  0.07962  0.44285  0.70823  1.0000
  C   C109      1.0  0.09037  0.43786  0.69136  1.0000
  C   C110      1.0  0.07981  0.44166  0.67357  1.0000
  H   H173      1.0  0.25204  0.45683  0.63402  1.0000
  H   H174      1.0  0.10688  0.43090  0.69204  1.0000
  H   H175      1.0  0.08817  0.43759  0.66073  1.0000
  H   H176      1.0  0.17635  0.44041  0.62506  1.0000
  H   H177      1.0  0.14777  0.44395  0.74773  1.0000
  C   C111      1.0  0.21779  0.44135  0.66326  1.0000
  H   H178      1.0  0.04974  0.45569  0.71998  1.0000
  C   C112      1.0  0.06569  0.53034  0.63167  1.0000
  C   C113      1.0  0.29850  0.43110  0.66876  1.0000
  H   H179      1.0  0.12047  0.54649  0.66375  1.0000
  C   C114      1.0  0.29536  0.42772  0.70318  1.0000
  C   C115      1.0  0.28219  0.42286  0.68496  1.0000
  H   H180      1.0  0.28257  0.42093  0.71551  1.0000
  C   C116      1.0  0.18331  0.44256  0.64026  1.0000
  Fe  Fe23      1.0  0.30329  0.44476  0.61947  1.0000
  H   H181      1.0  0.30224  0.49360  0.54069  1.0000
  H   H182      1.0  0.12553  0.58929  0.64580  1.0000
  H   H183      1.0  0.12944  0.60021  0.58627  1.0000
  H   H184      1.0  0.22224  0.40540  0.63805  1.0000
  H   H185      1.0  0.28649  0.44340  0.54995  1.0000
  H   H186      1.0  0.14862  0.42775  0.72558  1.0000
  H   H187      1.0  0.26938  0.48343  0.52772  1.0000
  H   H188      1.0  0.23783  0.48186  0.63741  1.0000
  H   H189      1.0  0.22226  0.46278  0.66909  1.0000
  N   N12       1.0  0.20915  0.43830  0.64296  1.0000
  H   H190      1.0  0.30415  0.39099  0.54199  1.0000
  H   H191      1.0  0.11866  0.56868  0.62413  1.0000
  H   H192      1.0  0.15511  0.38277  0.72562  1.0000
  H   H193      1.0  0.25354  0.43404  0.53723  1.0000
  H   H194      1.0  0.23757  0.43871  0.66558  1.0000
  S   S45       1.0  0.10628  0.47747  0.61368  1.0000
  H   H195      1.0  0.07504  0.52405  0.61967  1.0000
  N   N13       1.0  0.01760  0.61149  0.53709  1.0000
  H   H196      1.0  0.18470  0.39881  0.74240  1.0000
  Fe  Fe24      1.0  0.06103  0.45317  0.62175  1.0000
  H   H197      1.0  0.22685  0.45842  0.61700  1.0000
  C   C117      1.0  0.23245  0.45982  0.63238  1.0000
  H   H198      1.0  0.19762  0.40671  0.62056  1.0000
  Fe  Fe25      1.0  0.08263  0.44857  0.75925  1.0000
  H   H199      1.0  0.20102  0.42511  0.67171  1.0000
  H   H200      1.0  0.16517  0.42659  0.64793  1.0000
  H   H201      1.0  0.11334  0.52639  0.64183  1.0000
  C   C118      1.0  0.29130  0.48541  0.52664  1.0000
  C   C119      1.0  0.07515  0.55750  0.66096  1.0000
  C   C120      1.0  0.09130  0.60558  0.58914  1.0000
  N   N14       1.0  0.14733  0.40288  0.74987  1.0000
  H   H202      1.0  0.05968  0.53858  0.66839  1.0000
  C   C121      1.0  0.10648  0.58954  0.58659  1.0000
  H   H203      1.0  0.10835  0.36535  0.75439  1.0000
  H   H204      1.0  0.05349  0.54131  0.62566  1.0000
  C   C122      1.0  0.06172  0.59169  0.59012  1.0000
  H   H205      1.0  0.10250  0.62853  0.59076  1.0000
  C   C123      1.0  0.11609  0.38642  0.74767  1.0000
  C   C124      1.0  0.06244  0.54608  0.58514  1.0000
  C   C125      1.0  0.04733  0.56200  0.58789  1.0000
  C   C126      1.0  0.09208  0.55970  0.58496  1.0000
  H   H206      1.0  0.05112  0.52325  0.58330  1.0000
  N   N15       1.0  0.08817  0.54892  0.64546  1.0000
  H   H207      1.0  0.02440  0.55121  0.58847  1.0000
  H   H208      1.0  0.06351  0.56940  0.65553  1.0000
  C   C127      1.0  0.32501  0.44004  0.70534  1.0000
  Fe  Fe26      1.0  0.06004  0.65816  0.59387  1.0000
  H   H209      1.0  0.27444  0.41546  0.53219  1.0000
  C   C128      1.0  0.27563  0.43667  0.53577  1.0000
  H   H210      1.0  0.05927  0.64675  0.53703  1.0000
  H   H211      1.0  0.15483  0.36589  0.74767  1.0000
  H   H212      1.0  0.10519  0.39803  0.75424  1.0000
  H   H213      1.0  0.20150  0.49342  0.75372  1.0000
  H   H214      1.0  0.10881  0.38280  0.73250  1.0000
  H   H215      1.0  0.01045  0.61863  0.56601  1.0000
  C   C129      1.0  0.32192  0.39479  0.53325  1.0000
  H   H216      1.0  0.05764  0.61336  0.52931  1.0000
  H   H217      1.0  0.32070  0.44128  0.51565  1.0000
  H   H218      1.0  0.01186  0.39125  0.63436  1.0000
  C   C130      1.0  0.31751  0.38009  0.51567  1.0000
  S   S46       1.0  0.24146  0.47099  0.75908  1.0000
  H   H219      1.0  0.01998  0.64126  0.51578  1.0000
  C   C131      1.0  0.32027  0.46133  0.52050  1.0000
  N   N16       1.0  0.29081  0.45782  0.52143  1.0000
  H   H220      1.0  0.30245  0.50195  0.51615  1.0000
  S   S47       1.0  0.99391  0.40867  0.56705  1.0000
  H   H221      1.0  0.27301  0.57700  0.78829  1.0000
  S   S48       1.0  0.10604  0.49296  0.77192  1.0000
  Fe  Fe27      1.0  0.29846  0.42643  0.79451  1.0000
  S   S49       1.0  0.15465  0.48306  0.81356  1.0000
  Fe  Fe28      1.0  0.11320  0.47146  0.79746  1.0000
  S   S50       1.0  0.09273  0.42773  0.78417  1.0000
  Fe  Fe29      1.0  0.06462  0.48432  0.78512  1.0000
  N   N17       1.0  0.31144  0.36092  0.95515  1.0000
  Fe  Fe30      1.0  0.05277  0.42411  0.79692  1.0000
  C   C132      1.0  0.00095  0.34295  0.83764  1.0000
  C   C133      1.0  0.29125  0.57877  0.79761  1.0000
  C   C134      1.0  0.17963  0.48063  0.79882  1.0000
  C   C135      1.0  0.21790  0.46750  0.79371  1.0000
  S   S51       1.0  0.29353  0.46624  0.80091  1.0000
  H   H222      1.0  0.23169  0.45854  0.79890  1.0000
  C   C136      1.0  0.19847  0.47030  0.80574  1.0000
  H   H223      1.0  0.31116  0.59210  0.79032  1.0000
  C   C137      1.0  0.20063  0.48681  0.76821  1.0000
  C   C138      1.0  0.18070  0.48879  0.78003  1.0000
  C   C139      1.0  0.99758  0.33325  0.85636  1.0000
  H   H224      1.0  0.04375  0.60683  0.78446  1.0000
  H   H225      1.0  0.00487  0.49743  0.82202  1.0000
  C   C140      1.0  0.26242  0.53329  0.81112  1.0000
  H   H226      1.0  0.26088  0.54387  0.82444  1.0000
  S   S52       1.0  0.07396  0.46673  0.81194  1.0000
  S   S53       1.0  0.04058  0.44101  0.77067  1.0000
  H   H227      1.0  0.16634  0.49695  0.77466  1.0000
  H   H228      1.0  0.07417  0.35329  0.85657  1.0000
  C   C141      1.0  0.01893  0.37154  0.83372  1.0000
  C   C142      1.0  0.05551  0.59501  0.78819  1.0000
  H   H229      1.0  0.27896  0.36323  0.93697  1.0000
  S   S54       1.0  0.00751  0.34140  0.89547  1.0000
  H   H230      1.0  0.31388  0.38081  0.92834  1.0000
  H   H231      1.0  0.27113  0.34048  0.96831  1.0000
  C   C143      1.0  0.01167  0.35222  0.87150  1.0000
  C   C144      1.0  0.27657  0.37442  0.83539  1.0000
  C   C145      1.0  0.29434  0.39223  0.85004  1.0000
  C   C146      1.0  0.29289  0.38196  0.86859  1.0000
  C   C147      1.0  0.27346  0.35393  0.87285  1.0000
  H   H232      1.0  0.03219  0.48639  0.82526  1.0000
  H   H233      1.0  0.10348  0.36717  0.87376  1.0000
  C   C148      1.0  0.28978  0.53588  0.78381  1.0000
  C   C149      1.0  0.30168  0.37618  0.94150  1.0000
  H   H234      1.0  0.29549  0.37390  0.97924  1.0000
  C   C150      1.0  0.08067  0.35180  0.87150  1.0000
  H   H235      1.0  0.01969  0.43523  0.82974  1.0000
  H   H236      1.0  0.27218  0.53369  0.77371  1.0000
  H   H237      1.0  0.11821  0.60392  0.80891  1.0000
  Fe  Fe31      1.0  0.27636  0.46125  0.77096  1.0000
  C   C151      1.0  0.03369  0.39034  0.84882  1.0000
  H   H238      1.0  0.30950  0.41373  0.84703  1.0000
  H   H239      1.0  0.30376  0.39666  0.94761  1.0000
  H   H240      1.0  0.04778  0.41233  0.84611  1.0000
  H   H241      1.0  0.19751  0.46379  0.82027  1.0000
  H   H242      1.0  0.17942  0.41882  0.77232  1.0000
  C   C152      1.0  0.02974  0.38080  0.86758  1.0000
  H   H243      1.0  0.32104  0.33811  0.93320  1.0000
  H   H244      1.0  0.04083  0.39567  0.87916  1.0000
  C   C153      1.0  0.25540  0.33629  0.85826  1.0000
  C   C154      1.0  0.21891  0.47574  0.77492  1.0000
  C   C155      1.0  0.30857  0.33416  0.94620  1.0000
  C   C156      1.0  0.04340  0.56539  0.78444  1.0000
  C   C157      1.0  0.99825  0.43204  0.83384  1.0000
  H   H245      1.0  0.29119  0.59045  0.81082  1.0000
  C   C158      1.0  0.31357  0.55360  0.81427  1.0000
  H   H246      1.0  0.28719  0.51401  0.78627  1.0000
  C   C159      1.0  0.25711  0.34643  0.83968  1.0000
  H   H247      1.0  0.24353  0.52968  0.80182  1.0000
  N   N18       1.0  0.28925  0.55039  0.80171  1.0000
  S   S55       1.0  0.27813  0.38540  0.81142  1.0000
  S   S56       1.0  0.02092  0.38289  0.80991  1.0000
  S   S57       1.0  0.04151  0.51215  0.78505  1.0000
  S   S58       1.0  0.09788  0.64598  0.80332  1.0000
  H   H248      1.0  0.09716  0.55189  0.80167  1.0000
  C   C160      1.0  0.08248  0.60908  0.79714  1.0000
  C   C161      1.0  0.09739  0.59330  0.80194  1.0000
  C   C162      1.0  0.08550  0.56377  0.79784  1.0000
  C   C163      1.0  0.05831  0.54962  0.78921  1.0000
  S   S59       1.0  0.27329  0.34181  0.89641  1.0000
  H   H249      1.0  0.01125  0.48607  0.84491  1.0000
  H   H250      1.0  0.14735  0.42134  0.77721  1.0000
  H   H251      1.0  0.02235  0.55467  0.77778  1.0000
  H   H252      1.0  0.30704  0.39583  0.87969  1.0000
  C   C164      1.0  0.29399  0.35430  0.97206  1.0000
  H   H253      1.0  0.26066  0.51201  0.81486  1.0000
  H   H254      1.0  0.30057  0.34245  0.98255  1.0000
  H   H255      1.0  0.14815  0.38747  0.77786  1.0000
  H   H256      1.0  0.31026  0.54747  0.77671  1.0000
  H   H257      1.0  0.31333  0.53261  0.81704  1.0000
  H   H258      1.0  0.31343  0.56361  0.82818  1.0000
  H   H259      1.0  0.01075  0.45210  0.79886  1.0000
  H   H260      1.0  0.06822  0.35908  0.88068  1.0000
  C   C165      1.0  0.15588  0.40781  0.77020  1.0000
  C   C166      1.0  0.01033  0.48174  0.82942  1.0000
  H   H261      1.0  0.10601  0.33514  0.89949  1.0000
  S   S60       1.0  0.27832  0.42023  0.76491  1.0000
  H   H262      1.0  0.99892  0.43462  0.84950  1.0000
  H   H263      1.0  0.24332  0.33238  0.82850  1.0000
  Fe  Fe32      1.0  0.19728  0.98851  0.11601  1.0000
  C   C167      1.0  0.15139  0.94327  0.06630  1.0000
  S   S61       1.0  0.01950  0.78522  0.10792  1.0000
  S   S62       1.0  0.03652  0.86923  0.11836  1.0000
  H   H264      1.0  0.12573  0.95777  0.12001  1.0000
  H   H265      1.0  0.07321  0.92924  0.11991  1.0000
  H   H266      1.0  0.13472  0.88048  0.11570  1.0000
  H   H267      1.0  0.21632  0.94390  0.06494  1.0000
  C   C168      1.0  0.16266  0.90369  0.07012  1.0000
  S   S63       1.0  0.17156  0.94050  0.11856  1.0000
  C   C169      1.0  0.08660  0.91856  0.11867  1.0000
  C   C170      1.0  0.11638  0.93479  0.11875  1.0000
  H   H268      1.0  0.08217  0.85204  0.11487  1.0000
  C   C171      1.0  0.07401  0.88863  0.11727  1.0000
  C   C172      1.0  0.09155  0.87505  0.11579  1.0000
  C   C173      1.0  0.12135  0.89125  0.11627  1.0000
  C   C174      1.0  0.13391  0.92117  0.11784  1.0000
  H   H269      1.0  0.14068  0.88834  0.06532  1.0000
  H   H270      1.0  0.01224  0.81693  0.04151  1.0000
  H   H271      1.0  0.15145  0.94672  0.08184  1.0000
  N   N19       1.0  0.17148  0.93174  0.06143  1.0000
  C   C175      1.0  0.20041  0.95151  0.06867  1.0000
  H   H272      1.0  0.16284  0.90553  0.08581  1.0000
  H   H273      1.0  0.17853  0.94931  0.03371  1.0000
  H   H274      1.0  0.20128  0.95384  0.08434  1.0000
  H   H275      1.0  0.18623  0.91956  0.03652  1.0000
  C   C176      1.0  0.17147  0.92846  0.04066  1.0000
  H   H276      1.0  0.15703  0.96416  0.05972  1.0000
  H   H277      1.0  0.20756  0.97317  0.06289  1.0000
  H   H278      1.0  0.14988  0.91400  0.03469  1.0000
  H   H279      1.0  0.17721  0.89424  0.06668  1.0000
  H   H280      1.0  0.12917  0.92850  0.06163  1.0000
  C   C177      1.0  0.01017  0.80476  0.02863  1.0000
  Fe  Fe33      1.0  0.00917  0.82273  0.10966  1.0000
  C   C178      1.0  0.00707  0.77692  0.02962  1.0000
  S   S64       1.0  0.00492  0.76019  0.05162  1.0000
  H   H281      1.0  0.16291  0.99169  0.01686  1.0000
  Fe  Fe34      1.0  0.99617  0.77697  0.07934  1.0000
  C   C179      1.0  0.00480  0.76162  0.01267  1.0000
  H   H282      1.0  0.00273  0.74017  0.01326  1.0000
  H   H283      1.0  0.01964  0.69667  0.50003  1.0000
  C   C180      1.0  0.00053  0.68303  0.50709  1.0000
  H   H284      1.0  0.32380  0.99556  0.49562  1.0000
  Fe  Fe35      1.0  0.04979  0.70063  0.56996  1.0000
  S   S65       1.0  0.08338  0.68496  0.56984  1.0000
  H   H285      1.0  0.23572  0.85818  0.74495  1.0000
  S   S66       1.0  0.07581  0.73735  0.59040  1.0000
  Fe  Fe36      1.0  0.10742  0.71953  0.59183  1.0000
  C   C181      1.0  0.11545  0.78850  0.66054  1.0000
  H   H286      1.0  0.12500  0.78112  0.61395  1.0000
  Fe  Fe37      1.0  0.31794  0.96682  0.57785  1.0000
  S   S67       1.0  0.08740  0.69053  0.61593  1.0000
  C   C182      1.0  0.27799  0.85547  0.53881  1.0000
  H   H287      1.0  0.13566  0.74995  0.65849  1.0000
  H   H288      1.0  0.26562  0.85873  0.57483  1.0000
  S   S68       1.0  0.07604  0.69419  0.72359  1.0000
  H   H289      1.0  0.12459  0.78541  0.67422  1.0000
  C   C183      1.0  0.05159  0.71413  0.66418  1.0000
  C   C184      1.0  0.04630  0.72664  0.68035  1.0000
  C   C185      1.0  0.05330  0.72071  0.69872  1.0000
  C   C186      1.0  0.06580  0.70223  0.70106  1.0000
  C   C187      1.0  0.07109  0.68983  0.68488  1.0000
  C   C188      1.0  0.06391  0.69557  0.66661  1.0000
  H   H290      1.0  0.26970  0.87145  0.54083  1.0000
  H   H291      1.0  0.09229  0.77362  0.66014  1.0000
  H   H292      1.0  0.08061  0.67540  0.68652  1.0000
  H   H293      1.0  0.17207  0.85189  0.71730  1.0000
  Fe  Fe38      1.0  0.05498  0.70716  0.61399  1.0000
  H   H294      1.0  0.10375  0.73780  0.64397  1.0000
  S   S69       1.0  0.15534  0.74674  0.59572  1.0000
  Fe  Fe39      1.0  0.26954  0.90872  0.58863  1.0000
  S   S70       1.0  0.28487  0.95371  0.60007  1.0000
  S   S71       1.0  0.22264  0.87980  0.58172  1.0000
  H   H295      1.0  0.26951  0.80145  0.53308  1.0000
  H   H296      1.0  0.27351  0.84805  0.52374  1.0000
  H   H297      1.0  0.18022  0.88418  0.74504  1.0000
  H   H298      1.0  0.16610  0.83841  0.57090  1.0000
  S   S72       1.0  0.29999  0.92272  0.56484  1.0000
  H   H299      1.0  0.21116  0.82127  0.74704  1.0000
  S   S73       1.0  0.29761  0.89835  0.60858  1.0000
  H   H300      1.0  0.21776  0.89486  0.74464  1.0000
  H   H301      1.0  0.23705  0.84092  0.60405  1.0000
  C   C189      1.0  0.18950  0.84731  0.72305  1.0000
  H   H302      1.0  0.17097  0.80143  0.65809  1.0000
  C   C190      1.0  0.17319  0.78392  0.59233  1.0000
  C   C191      1.0  0.16056  0.79819  0.58206  1.0000
  C   C192      1.0  0.17582  0.82766  0.57924  1.0000
  C   C193      1.0  0.20368  0.84320  0.58684  1.0000
  C   C194      1.0  0.21595  0.82909  0.59766  1.0000
  H   H303      1.0  0.13925  0.78645  0.57591  1.0000
  C   C195      1.0  0.27283  0.84228  0.57149  1.0000
  C   C196      1.0  0.30732  0.95347  0.70294  1.0000
  C   C197      1.0  0.20095  0.79951  0.60011  1.0000
  C   C198      1.0  0.19736  0.87868  0.75011  1.0000
  H   H304      1.0  0.28599  0.90756  0.65635  1.0000
  H   H305      1.0  0.22282  0.80080  0.55884  1.0000
  N   N20       1.0  0.26483  0.83154  0.55176  1.0000
  H   H306      1.0  0.18536  0.82563  0.71793  1.0000
  H   H307      1.0  0.26562  0.79174  0.55748  1.0000
  H   H308      1.0  0.04900  0.73034  0.71102  1.0000
  C   C199      1.0  0.00109  0.68253  0.52700  1.0000
  H   H309      1.0  0.17085  0.79955  0.63275  1.0000
  H   H310      1.0  0.22658  0.80992  0.53430  1.0000
  H   H311      1.0  0.21080  0.78865  0.60821  1.0000
  C   C200      1.0  0.31234  0.94893  0.66895  1.0000
  Fe  Fe40      1.0  0.29086  0.92004  0.75464  1.0000
  S   S74       1.0  0.27118  0.90886  0.72456  1.0000
  H   H312      1.0  0.16306  0.82577  0.64414  1.0000
  C   C201      1.0  0.11579  0.78630  0.62651  1.0000
  H   H313      1.0  0.06778  0.68541  0.65444  1.0000
  C   C202      1.0  0.29207  0.92041  0.66928  1.0000
  C   C203      1.0  0.27970  0.90846  0.68641  1.0000
  C   C204      1.0  0.28749  0.92481  0.70337  1.0000
  Fe  Fe41      1.0  0.07198  0.70259  0.75492  1.0000
  H   H314      1.0  0.20966  0.86283  0.71687  1.0000
  H   H315      1.0  0.11744  0.81051  0.66052  1.0000
  C   C205      1.0  0.12647  0.75366  0.64504  1.0000
  N   N21       1.0  0.19161  0.84952  0.74393  1.0000
  H   H316      1.0  0.09254  0.77187  0.62587  1.0000
  N   N22       1.0  0.12944  0.78300  0.64427  1.0000
  H   H317      1.0  0.29626  0.85217  0.57417  1.0000
  H   H318      1.0  0.26330  0.82486  0.58169  1.0000
  H   H319      1.0  0.31251  0.96663  0.71570  1.0000
  H   H320      1.0  0.22525  0.83443  0.55169  1.0000
  S   S75       1.0  0.03346  0.70418  0.54003  1.0000
  S   S76       1.0  0.04382  0.72321  0.64121  1.0000
  C   C206      1.0  0.23352  0.81855  0.54898  1.0000
  C   C207      1.0  0.27508  0.81003  0.54788  1.0000
  H   H321      1.0  0.29867  0.81935  0.54997  1.0000
  H   H322      1.0  0.03663  0.74093  0.67868  1.0000
  C   C208      1.0  0.15994  0.80338  0.64491  1.0000
  H   H323      1.0  0.11843  0.80843  0.62505  1.0000
  H   H324      1.0  0.26408  0.88637  0.68651  1.0000
  H   H325      1.0  0.13718  0.74885  0.63317  1.0000
  S   S77       1.0  0.02564  0.67259  0.59340  1.0000
  C   C209      1.0  0.21507  0.84339  0.75084  1.0000
  H   H326      1.0  0.30155  0.86677  0.54129  1.0000
  Fe  Fe42      1.0  0.31521  0.94427  0.61842  1.0000
  C   C210      1.0  0.16465  0.82879  0.75175  1.0000
  H   H327      1.0  0.14630  0.83236  0.74660  1.0000
  H   H328      1.0  0.31600  0.97953  0.52879  1.0000
  H   H329      1.0  0.15995  0.80645  0.74788  1.0000
  C   C211      1.0  0.31991  0.96535  0.68588  1.0000
  H   H330      1.0  0.17026  0.76391  0.78170  1.0000
  Fe  Fe43      1.0  0.04242  0.70541  0.79156  1.0000
  H   H331      1.0  0.10495  0.77730  0.84886  1.0000
  C   C212      1.0  0.00841  0.70558  0.86212  1.0000
  S   S78       1.0  0.31640  0.92137  0.80789  1.0000
  S   S79       1.0  0.07974  0.71079  0.81011  1.0000
  H   H332      1.0  0.28849  0.96889  0.87935  1.0000
  Fe  Fe44      1.0  0.10538  0.74200  0.78873  1.0000
  H   H333      1.0  0.16991  0.69186  0.84548  1.0000
  N   N23       1.0  0.17423  0.71219  0.81872  1.0000
  S   S80       1.0  0.00733  0.71328  0.80462  1.0000
  C   C213      1.0  0.15094  0.71999  0.82208  1.0000
  S   S81       1.0  0.31825  0.96069  0.77093  1.0000
  H   H334      1.0  0.00328  0.76177  0.98201  1.0000
  H   H335      1.0  0.22863  0.98143  0.82844  1.0000
  H   H336      1.0  0.04494  0.78082  0.82200  1.0000
  H   H337      1.0  0.21992  0.73167  0.82157  1.0000
  S   S82       1.0  0.04252  0.66878  0.77415  1.0000
  C   C214      1.0  0.00406  0.71714  0.82926  1.0000
  C   C215      1.0  0.00814  0.80163  0.99399  1.0000
  H   H338      1.0  0.09343  0.86750  0.96934  1.0000
  H   H339      1.0  0.12988  0.70182  0.81849  1.0000
  C   C216      1.0  0.11504  0.92430  0.96521  1.0000
  C   C217      1.0  0.01331  0.70346  0.84278  1.0000
  H   H340      1.0  0.03959  0.78630  0.85663  1.0000
  H   H341      1.0  0.19085  0.69838  0.79544  1.0000
  H   H342      1.0  0.07972  0.79048  0.81322  1.0000
  S   S83       1.0  0.11184  0.70934  0.77171  1.0000
  H   H343      1.0  0.06249  0.82891  0.83766  1.0000
  S   S84       1.0  0.00066  0.83783  0.92339  1.0000
  C   C218      1.0  0.20177  0.73653  0.82425  1.0000
  S   S85       1.0  0.00953  0.81867  0.97222  1.0000
  H   H344      1.0  0.09303  0.84186  0.85355  1.0000
  Fe  Fe45      1.0  0.28850  0.88386  0.78879  1.0000
  S   S86       1.0  0.26082  0.90332  0.77834  1.0000
  S   S87       1.0  0.26840  0.83661  0.79379  1.0000
  Fe  Fe46      1.0  0.29010  0.94207  0.79573  1.0000
  C   C219      1.0  0.17215  0.79932  0.79828  1.0000
  C   C220      1.0  0.18400  0.78410  0.78860  1.0000
  C   C221      1.0  0.21369  0.79528  0.78769  1.0000
  C   C222      1.0  0.23148  0.82205  0.79599  1.0000
  C   C223      1.0  0.21951  0.83754  0.80522  1.0000
  Fe  Fe47      1.0  0.08232  0.67704  0.79133  1.0000
  H   H345      1.0  0.22293  0.78355  0.78019  1.0000
  S   S88       1.0  0.25209  0.98876  0.89728  1.0000
  C   C224      1.0  0.18993  0.82609  0.80648  1.0000
  S   S89       1.0  0.13524  0.78603  0.80005  1.0000
  H   H346      1.0  0.02320  0.69033  0.83827  1.0000
  H   H347      1.0  0.23312  0.85829  0.81155  1.0000
  S   S90       1.0  0.11846  0.98490  0.90152  1.0000
  H   H348      1.0  0.18085  0.83811  0.81381  1.0000
  S   S91       1.0  0.26749  0.96514  0.81032  1.0000
  Fe  Fe48      1.0  0.02622  0.82631  0.90332  1.0000
  S   S92       1.0  0.06639  0.85193  0.88815  1.0000
  S   S93       1.0  0.02906  0.79371  0.92225  1.0000
  H   H349      1.0  0.05667  0.76388  0.86118  1.0000
  S   S94       1.0  0.18066  0.97335  0.92473  1.0000
  H   H350      1.0  0.01338  0.83865  0.01038  1.0000
  C   C225      1.0  0.06611  0.78173  0.82556  1.0000
  S   S95       1.0  0.06811  0.73819  0.77061  1.0000
  H   H351      1.0  0.13112  0.91811  0.97147  1.0000
  H   H352      1.0  0.10441  0.92929  0.97704  1.0000
  C   C226      1.0  0.26233  0.96965  0.83471  1.0000
  C   C227      1.0  0.07991  0.88905  0.89010  1.0000
  C   C228      1.0  0.06243  0.90179  0.89462  1.0000
  C   C229      1.0  0.07419  0.93149  0.89725  1.0000
  C   C230      1.0  0.10353  0.94832  0.89596  1.0000
  C   C231      1.0  0.12086  0.93558  0.89106  1.0000
  C   C232      1.0  0.10900  0.90603  0.88790  1.0000
  H   H353      1.0  0.03988  0.88879  0.89608  1.0000
  H   H354      1.0  0.06070  0.94135  0.90085  1.0000
  H   H355      1.0  0.14342  0.94853  0.88964  1.0000
  H   H356      1.0  0.12257  0.89626  0.88429  1.0000
  H   H357      1.0  0.12109  0.91520  0.92853  1.0000
  H   H358      1.0  0.06168  0.91544  0.95538  1.0000
  C   C233      1.0  0.27520  0.97146  0.86829  1.0000
  H   H359      1.0  0.08487  0.93121  0.93628  1.0000
  C   C234      1.0  0.23751  0.98348  0.85860  1.0000
  H   H360      1.0  0.19904  0.88111  0.76583  1.0000
  C   C235      1.0  0.08318  0.82837  0.84056  1.0000
  H   H361      1.0  0.06282  0.75935  0.82697  1.0000
  C   C236      1.0  0.27892  0.96588  0.84925  1.0000
  H   H362      1.0  0.17705  0.72311  0.78939  1.0000
  H   H363      1.0  0.07003  0.79857  0.87251  1.0000
  H   H364      1.0  0.29497  0.95917  0.84581  1.0000
  H   H365      1.0  0.06308  0.85788  0.95348  1.0000
  H   H366      1.0  0.01470  0.69409  0.87238  1.0000
  H   H367      1.0  0.09713  0.83861  0.82862  1.0000
  C   C237      1.0  0.06061  0.78631  0.85903  1.0000
  N   N24       1.0  0.07925  0.79890  0.84305  1.0000
  H   H368      1.0  0.06656  0.87865  0.97445  1.0000
  H   H369      1.0  0.15267  0.73816  0.81335  1.0000
  C   C238      1.0  0.25458  0.98039  0.87311  1.0000
  C   C239      1.0  0.24165  0.97852  0.83955  1.0000
  H   H370      1.0  0.11769  0.81192  0.86022  1.0000
  H   H371      1.0  0.12540  0.88897  0.94254  1.0000
  C   C240      1.0  0.17388  0.70485  0.79845  1.0000
  H   H372      1.0  0.12178  0.80872  0.83529  1.0000
  C   C241      1.0  0.10951  0.89588  0.93696  1.0000
  C   C242      1.0  0.10717  0.79924  0.84708  1.0000
  N   N25       1.0  0.09429  0.90168  0.95235  1.0000
  C   C243      1.0  0.07877  0.87536  0.96290  1.0000
  C   C244      1.0  0.07384  0.91122  0.94421  1.0000
  H   H373      1.0  0.12697  0.94445  0.95760  1.0000
  H   H374      1.0  0.09454  0.87874  0.92704  1.0000
  H   H375      1.0  0.05812  0.89483  0.93422  1.0000
  H   H376      1.0  0.16548  0.83044  0.76749  1.0000
  H   H377      1.0  0.15320  0.68681  0.79376  1.0000
  H   H378      1.0  0.15080  0.72614  0.83715  1.0000
  C   C245      1.0  0.01081  0.81703  0.01093  1.0000
  H   H379      1.0  0.20516  0.75581  0.81619  1.0000
  H   H380      1.0  0.20290  0.74237  0.83953  1.0000
  Fe  Fe49      1.0  0.00031  0.80244  0.94143  1.0000
  C   C246      1.0  0.17023  0.68731  0.83012  1.0000
  C   C247      1.0  0.00504  0.77377  0.99493  1.0000
  S   S96       1.0  0.18009  0.98859  0.97919  1.0000
  H   H381      1.0  0.22127  0.98993  0.86202  1.0000
  H   H382      1.0  0.18744  0.68083  0.82802  1.0000
  H   H383      1.0  0.21783  0.84585  0.76644  1.0000
  H   H384      1.0  0.14968  0.66853  0.82615  1.0000
  C   C248      1.0  0.99524  0.72223  0.86820  1.0000
  S   S97       1.0  0.31690  0.89811  0.76422  1.0000
  C   C249      1.0  0.33271  0.08637  0.17731  1.0000
  H   H385      1.0  0.34612  0.99904  0.21898  1.0000
  C   C250      1.0  0.51429  0.10162  0.24643  1.0000
  H   H386      1.0  0.33827  0.28585  0.17132  1.0000
  H   H387      1.0  0.64256  0.04785  0.16279  1.0000
  C   C251      1.0  0.38240  0.04207  0.24187  1.0000
  H   H388      1.0  0.36168  0.10804  0.20100  1.0000
  C   C252      1.0  0.40334  0.02509  0.21801  1.0000
  C   C253      1.0  0.39620  0.06675  0.21258  1.0000
  H   H389      1.0  0.55477  0.10118  0.24231  1.0000
  H   H390      1.0  0.40362  0.05590  0.24870  1.0000
  H   H391      1.0  0.40548  0.02227  0.20263  1.0000
  H   H392      1.0  0.34100  0.03027  0.21528  1.0000
  H   H393      1.0  0.39799  0.06505  0.19705  1.0000
  H   H394      1.0  0.37372  0.02128  0.24901  1.0000
  H   H395      1.0  0.38235  0.07739  0.21485  1.0000
  Fe  Fe50      1.0  0.42029  0.17385  0.24705  1.0000
  S   S98       1.0  0.42615  0.21279  0.23093  1.0000
  Fe  Fe51      1.0  0.37458  0.11275  0.24805  1.0000
  C   C254      1.0  0.45078  0.25097  0.26067  1.0000
  S   S99       1.0  0.41333  0.13392  0.23106  1.0000
  Fe  Fe52      1.0  0.43689  0.12623  0.25570  1.0000
  H   H396      1.0  0.34747  0.09892  0.16689  1.0000
  H   H397      1.0  0.36359  0.29838  0.15295  1.0000
  N   N26       1.0  0.38439  0.03856  0.22131  1.0000
  C   C255      1.0  0.43264  0.24338  0.24454  1.0000
  C   C256      1.0  0.49954  0.11830  0.24740  1.0000
  H   H398      1.0  0.55473  0.18283  0.23924  1.0000
  C   C257      1.0  0.34088  0.09152  0.19668  1.0000
  C   C258      1.0  0.34110  0.29223  0.15627  1.0000
  H   H399      1.0  0.41780  0.08101  0.21874  1.0000
  C   C259      1.0  0.35572  0.02057  0.21281  1.0000
  H   H400      1.0  0.36816  0.05211  0.24486  1.0000
  H   H401      1.0  0.34664  0.28482  0.11903  1.0000
  H   H402      1.0  0.42512  0.03842  0.22431  1.0000
  C   C260      1.0  0.42615  0.28620  0.24899  1.0000
  S   S100      1.0  0.46289  0.10164  0.25208  1.0000
  H   H403      1.0  0.41638  0.29956  0.24451  1.0000
  C   C261      1.0  0.42043  0.26109  0.23868  1.0000
  H   H404      1.0  0.40640  0.25523  0.22619  1.0000
  H   H405      1.0  0.34867  0.24908  0.14068  1.0000
  H   H406      1.0  0.64515  0.07221  0.19373  1.0000
  S   S101      1.0  0.33940  0.32632  0.22977  1.0000
  Fe  Fe53      1.0  0.62667  0.14409  0.24717  1.0000
  S   S102      1.0  0.59529  0.16040  0.23695  1.0000
  S   S103      1.0  0.62133  0.09913  0.24942  1.0000
  C   C262      1.0  0.55838  0.14355  0.24069  1.0000
  C   C263      1.0  0.54362  0.11420  0.24315  1.0000
  C   C264      1.0  0.51426  0.14762  0.24482  1.0000
  C   C265      1.0  0.54350  0.16013  0.24132  1.0000
  S   S104      1.0  0.33241  0.07928  0.23483  1.0000
  H   H407      1.0  0.35629  0.01788  0.19723  1.0000
  H   H408      1.0  0.50300  0.07887  0.24821  1.0000
  H   H409      1.0  0.33772  0.31169  0.15518  1.0000
  H   H410      1.0  0.50311  0.16066  0.24540  1.0000
  H   H411      1.0  0.39519  0.00378  0.22446  1.0000
  C   C266      1.0  0.32664  0.24399  0.14464  1.0000
  H   H412      1.0  0.36018  0.23853  0.29499  1.0000
  H   H413      1.0  0.49789  0.16188  0.36937  1.0000
  Fe  Fe54      1.0  0.40702  0.14543  0.28510  1.0000
  S   S105      1.0  0.40712  0.16112  0.31540  1.0000
  C   C267      1.0  0.45724  0.27656  0.27062  1.0000
  S   S106      1.0  0.39159  0.09436  0.39243  1.0000
  C   C268      1.0  0.39808  0.21732  0.29377  1.0000
  H   H414      1.0  0.41028  0.17874  0.35430  1.0000
  H   H415      1.0  0.39002  0.07713  0.35367  1.0000
  C   C269      1.0  0.39817  0.11369  0.33664  1.0000
  H   H416      1.0  0.39618  0.10241  0.32337  1.0000
  H   H417      1.0  0.40409  0.15345  0.38456  1.0000
  C   C270      1.0  0.40362  0.14232  0.33666  1.0000
  C   C271      1.0  0.40604  0.15659  0.35408  1.0000
  C   C272      1.0  0.40260  0.14232  0.37129  1.0000
  C   C273      1.0  0.39664  0.11354  0.37124  1.0000
  C   C274      1.0  0.39467  0.09940  0.35385  1.0000
  H   H418      1.0  0.41984  0.21866  0.29462  1.0000
  H   H419      1.0  0.56119  0.04815  0.50417  1.0000
  H   H420      1.0  0.41098  0.27508  0.32195  1.0000
  H   H421      1.0  0.60473  0.13746  0.30882  1.0000
  H   H422      1.0  0.38887  0.32427  0.35698  1.0000
  H   H423      1.0  0.48017  0.18249  0.40560  1.0000
  H   H424      1.0  0.38188  0.19720  0.32848  1.0000
  S   S107      1.0  0.64628  0.05516  0.47545  1.0000
  C   C275      1.0  0.39727  0.22015  0.32779  1.0000
  N   N27       1.0  0.39325  0.23251  0.30993  1.0000
  C   C276      1.0  0.41365  0.26302  0.30977  1.0000
  Fe  Fe55      1.0  0.65565  0.11610  0.41641  1.0000
  H   H425      1.0  0.41081  0.27313  0.29664  1.0000
  N   N28       1.0  0.48791  0.14692  0.39765  1.0000
  C   C277      1.0  0.36392  0.22946  0.30836  1.0000
  H   H426      1.0  0.43602  0.26606  0.31049  1.0000
  H   H427      1.0  0.46810  0.12651  0.42292  1.0000
  C   C278      1.0  0.62465  0.01719  0.50422  1.0000
  H   H428      1.0  0.50390  0.17633  0.42148  1.0000
  C   C279      1.0  0.46308  0.12654  0.40758  1.0000
  H   H429      1.0  0.51767  0.13819  0.41454  1.0000
  H   H430      1.0  0.51601  0.19186  0.39903  1.0000
  C   C280      1.0  0.49747  0.17570  0.40625  1.0000
  H   H431      1.0  0.45523  0.10438  0.40182  1.0000
  Fe  Fe56      1.0  0.38875  0.14989  0.45314  1.0000
  S   S108      1.0  0.36088  0.10550  0.44159  1.0000
  S   S109      1.0  0.36561  0.17699  0.45792  1.0000
  Fe  Fe57      1.0  0.44060  0.13872  0.45491  1.0000
  S   S110      1.0  0.41609  0.09361  0.44409  1.0000
  C   C281      1.0  0.33395  0.01084  0.50715  1.0000
  Fe  Fe58      1.0  0.39665  0.11201  0.42273  1.0000
  Fe  Fe59      1.0  0.38263  0.09111  0.46406  1.0000
  S   S111      1.0  0.35465  0.04994  0.47904  1.0000
  S   S112      1.0  0.42293  0.15745  0.43257  1.0000
  S   S113      1.0  0.40868  0.13522  0.47658  1.0000
  S   S114      1.0  0.48838  0.16035  0.46029  1.0000
  C   C282      1.0  0.38425  0.21470  0.45955  1.0000
  H   H432      1.0  0.49937  0.07497  0.44334  1.0000
  H   H433      1.0  0.50443  0.11650  0.39344  1.0000
  H   H434      1.0  0.53029  0.15322  0.39211  1.0000
  H   H435      1.0  0.42529  0.21656  0.46622  1.0000
  H   H436      1.0  0.34661  0.22021  0.45340  1.0000
  C   C283      1.0  0.35132  0.03953  0.50311  1.0000
  C   C284      1.0  0.50805  0.14128  0.45571  1.0000
  H   H437      1.0  0.57663  0.15286  0.44961  1.0000
  H   H438      1.0  0.63039  0.00336  0.49579  1.0000
  H   H439      1.0  0.47168  0.10033  0.45269  1.0000
  C   C285      1.0  0.36915  0.23088  0.45699  1.0000
  S   S115      1.0  0.63988  0.14774  0.42487  1.0000
  C   C286      1.0  0.41343  0.22875  0.46411  1.0000
  C   C287      1.0  0.51112  0.13835  0.39944  1.0000
  C   C288      1.0  0.53780  0.15593  0.45510  1.0000
  C   C289      1.0  0.55375  0.14141  0.45022  1.0000
  H   H440      1.0  0.58216  0.11040  0.32395  1.0000
  S   S116      1.0  0.45390  0.32630  0.27733  1.0000
  N   N29       1.0  0.36068  0.30842  0.51194  1.0000
  C   C290      1.0  0.54895  0.02619  0.49809  1.0000
  H   H441      1.0  0.38292  0.19426  0.29346  1.0000
  C   C291      1.0  0.42722  0.25866  0.46643  1.0000
  H   H442      1.0  0.37122  0.27296  0.45672  1.0000
  H   H443      1.0  0.39433  0.23133  0.34036  1.0000
  C   C292      1.0  0.49443  0.11197  0.45183  1.0000
  C   C293      1.0  0.41218  0.27487  0.46377  1.0000
  H   H444      1.0  0.44969  0.26929  0.47029  1.0000
  C   C294      1.0  0.51024  0.09757  0.44670  1.0000
  C   C295      1.0  0.62973  0.04413  0.49748  1.0000
  H   H445      1.0  0.34802  0.20664  0.30842  1.0000
  H   H446      1.0  0.56174  0.01439  0.50103  1.0000
  C   C296      1.0  0.38309  0.26083  0.45886  1.0000
  Fe  Fe60      1.0  0.64063  0.11343  0.27902  1.0000
  C   C297      1.0  0.38216  0.30449  0.50096  1.0000
  S   S117      1.0  0.61964  0.08899  0.30514  1.0000
  H   H447      1.0  0.53090  0.12346  0.31968  1.0000
  C   C298      1.0  0.63568  0.09969  0.32817  1.0000
  C   C299      1.0  0.61923  0.08862  0.34407  1.0000
  C   C300      1.0  0.63145  0.09629  0.36257  1.0000
  C   C301      1.0  0.44494  0.29417  0.26479  1.0000
  H   H448      1.0  0.59699  0.07377  0.34209  1.0000
  H   H449      1.0  0.61861  0.08743  0.37466  1.0000
  N   N30       1.0  0.56025  0.11952  0.30081  1.0000
  C   C302      1.0  0.53265  0.10748  0.31004  1.0000
  C   C303      1.0  0.58363  0.12863  0.31536  1.0000
  C   C304      1.0  0.56314  0.14431  0.28970  1.0000
  C   C305      1.0  0.56151  0.09756  0.28814  1.0000
  H   H450      1.0  0.47153  0.12533  0.37076  1.0000
  H   H451      1.0  0.52912  0.01574  0.50604  1.0000
  H   H452      1.0  0.56412  0.16206  0.29889  1.0000
  H   H453      1.0  0.34875  0.10593  0.48191  1.0000
  H   H454      1.0  0.58275  0.15272  0.28137  1.0000
  H   H455      1.0  0.56085  0.07915  0.29618  1.0000
  H   H456      1.0  0.58153  0.10619  0.28028  1.0000
  H   H457      1.0  0.54345  0.08916  0.27754  1.0000
  H   H458      1.0  0.58356  0.14528  0.32517  1.0000
  H   H459      1.0  0.47192  0.28274  0.28278  1.0000
  H   H460      1.0  0.52977  0.08865  0.31847  1.0000
  H   H461      1.0  0.51456  0.10041  0.29937  1.0000
  H   H462      1.0  0.46229  0.15354  0.37578  1.0000
  H   H463      1.0  0.44515  0.13217  0.40617  1.0000
  C   C306      1.0  0.47968  0.14697  0.37748  1.0000
  H   H464      1.0  0.54480  0.13859  0.27948  1.0000
  S   S118      1.0  0.63179  0.12186  0.46756  1.0000
  H   H465      1.0  0.52066  0.04289  0.45904  1.0000
  Fe  Fe61      1.0  0.60622  0.11180  0.44011  1.0000
  S   S119      1.0  0.55836  0.09320  0.43854  1.0000
  S   S120      1.0  0.61988  0.07935  0.42967  1.0000
  H   H466      1.0  0.54849  0.17861  0.45822  1.0000
  S   S121      1.0  0.39751  0.10262  0.27219  1.0000
  H   H467      1.0  0.58249  0.02795  0.46940  1.0000
  C   C307      1.0  0.53988  0.11222  0.44583  1.0000
  H   H468      1.0  0.35951  0.24063  0.32035  1.0000
  H   H469      1.0  0.37488  0.28185  0.49640  1.0000
  Fe  Fe62      1.0  0.64644  0.09056  0.45682  1.0000
  C   C308      1.0  0.33362  0.10435  0.49291  1.0000
  H   H470      1.0  0.58317  0.06213  0.47313  1.0000
  H   H471      1.0  0.40271  0.31145  0.50914  1.0000
  S   S122      1.0  0.43006  0.31232  0.46783  1.0000
  S   S123      1.0  0.64338  0.15711  0.27705  1.0000
  H   H472      1.0  0.50620  0.03390  0.48206  1.0000
  C   C309      1.0  0.56973  0.04003  0.46766  1.0000
  H   H473      1.0  0.38685  0.31715  0.48793  1.0000
  H   H474      1.0  0.39555  0.22617  0.27999  1.0000
  H   H475      1.0  0.56584  0.04135  0.45222  1.0000
  H   H476      1.0  0.41893  0.22127  0.32915  1.0000
  N   N31       1.0  0.54276  0.02652  0.47759  1.0000
  C   C310      1.0  0.52632  0.04287  0.47434  1.0000
  S   S124      1.0  0.44796  0.16862  0.27008  1.0000
  S   S125      1.0  0.36611  0.32665  0.44806  1.0000
  H   H477      1.0  0.53876  0.06560  0.47902  1.0000
  H   H478      1.0  0.62580  0.08245  0.50365  1.0000
  H   H479      1.0  0.33841  0.31175  0.48682  1.0000
  H   H480      1.0  0.33536  0.09005  0.50384  1.0000
  H   H481      1.0  0.34105  0.12601  0.49945  1.0000
  H   H482      1.0  0.46050  0.23753  0.26510  1.0000
  C   C311      1.0  0.33430  0.29956  0.50008  1.0000
  C   C312      1.0  0.62222  0.06175  0.50860  1.0000
  S   S126      1.0  0.38003  0.15324  0.26265  1.0000
  C   C313      1.0  0.61226  0.00792  0.52184  1.0000
  C   C314      1.0  0.35935  0.04993  0.53705  1.0000
  H   H483      1.0  0.38332  0.02261  0.59298  1.0000
  C   C315      1.0  0.60539  0.02581  0.53317  1.0000
  H   H484      1.0  0.36913  0.06527  0.54857  1.0000
  C   C316      1.0  0.38412  0.07218  0.62466  1.0000
  C   C317      1.0  0.32951  0.00165  0.52598  1.0000
  C   C318      1.0  0.38519  0.02751  0.63098  1.0000
  H   H485      1.0  0.37427  0.07191  0.63839  1.0000
  H   H486      1.0  0.37501  0.02564  0.64479  1.0000
  C   C319      1.0  0.36428  0.05900  0.51820  1.0000
  C   C320      1.0  0.38928  0.04430  0.59905  1.0000
  C   C321      1.0  0.34198  0.02120  0.54108  1.0000
  N   N32       1.0  0.37579  0.04298  0.61727  1.0000
  H   H487      1.0  0.37787  0.08109  0.51538  1.0000
  S   S127      1.0  0.59086  0.01605  0.55589  1.0000
  H   H488      1.0  0.40865  0.03824  0.63358  1.0000
  H   H489      1.0  0.41288  0.05546  0.60060  1.0000
  H   H490      1.0  0.33847  0.29343  0.53754  1.0000
  C   C322      1.0  0.61055  0.05280  0.52643  1.0000
  H   H491      1.0  0.38240  0.05554  0.58827  1.0000
  H   H492      1.0  0.60531  0.06681  0.53507  1.0000
  H   H493      1.0  0.37923  0.00538  0.62580  1.0000
  H   H494      1.0  0.34649  0.26793  0.52512  1.0000
  H   H495      1.0  0.33659  0.03880  0.60401  1.0000
  H   H496      1.0  0.37724  0.08433  0.61461  1.0000
  H   H497      1.0  0.40760  0.08420  0.62696  1.0000
  C   C323      1.0  0.34453  0.02795  0.61441  1.0000
  H   H498      1.0  0.33756  0.00597  0.60875  1.0000
  H   H499      1.0  0.33356  0.02610  0.62789  1.0000
  S   S128      1.0  0.33538  0.01125  0.56513  1.0000
  H   H500      1.0  0.37421  0.29719  0.53817  1.0000
  C   C324      1.0  0.35466  0.29094  0.52897  1.0000
  C   C325      1.0  0.65740  0.01596  0.83770  1.0000
  H   H501      1.0  0.33012  0.11198  0.88448  1.0000
  H   H502      1.0  0.56193  0.00421  0.82874  1.0000
  H   H503      1.0  0.52395  0.00351  0.84936  1.0000
  H   H504      1.0  0.32817  0.08212  0.87068  1.0000
  H   H505      1.0  0.47524  0.36130  0.21636  1.0000
  C   C326      1.0  0.54621  0.51599  0.24259  1.0000
  H   H506      1.0  0.46750  0.33777  0.23582  1.0000
  H   H507      1.0  0.33097  0.37761  0.24621  1.0000
  H   H508      1.0  0.35838  0.36976  0.20042  1.0000
  Fe  Fe63      1.0  0.43774  0.40829  0.25441  1.0000
  Fe  Fe64      1.0  0.64370  0.63204  0.24117  1.0000
  Fe  Fe65      1.0  0.38102  0.35449  0.24642  1.0000
  S   S129      1.0  0.42646  0.36606  0.23949  1.0000
  C   C327      1.0  0.33858  0.35217  0.19552  1.0000
  C   C328      1.0  0.56251  0.50469  0.25202  1.0000
  C   C329      1.0  0.51654  0.49968  0.24016  1.0000
  S   S130      1.0  0.46577  0.45179  0.24288  1.0000
  H   H509      1.0  0.33652  0.37156  0.16907  1.0000
  H   H510      1.0  0.63168  0.63755  0.08627  1.0000
  Fe  Fe66      1.0  0.62531  0.57144  0.25517  1.0000
  H   H511      1.0  0.48725  0.33405  0.21674  1.0000
  H   H512      1.0  0.55658  0.53677  0.23644  1.0000
  H   H513      1.0  0.52606  0.33833  0.23903  1.0000
  H   H514      1.0  0.53666  0.37179  0.21235  1.0000
  C   C330      1.0  0.53199  0.38617  0.22178  1.0000
  H   H515      1.0  0.55241  0.40149  0.22891  1.0000
  C   C331      1.0  0.50280  0.47227  0.24754  1.0000
  C   C332      1.0  0.52174  0.35376  0.24763  1.0000
  C   C333      1.0  0.50513  0.38990  0.24775  1.0000
  C   C334      1.0  0.48405  0.34991  0.22566  1.0000
  H   H516      1.0  0.50422  0.50813  0.23218  1.0000
  H   H517      1.0  0.50615  0.34127  0.25829  1.0000
  C   C335      1.0  0.54870  0.47756  0.25982  1.0000
  N   N33       1.0  0.51074  0.36992  0.23570  1.0000
  S   S131      1.0  0.39197  0.39778  0.25905  1.0000
  H   H518      1.0  0.52437  0.39878  0.21267  1.0000
  H   H519      1.0  0.52488  0.40549  0.25540  1.0000
  H   H520      1.0  0.49641  0.40222  0.23925  1.0000
  S   S132      1.0  0.60602  0.60188  0.25737  1.0000
  S   S133      1.0  0.60012  0.52308  0.25363  1.0000
  C   C336      1.0  0.51891  0.46166  0.25792  1.0000
  H   H521      1.0  0.54179  0.36816  0.25553  1.0000
  C   C337      1.0  0.65515  0.64670  0.08868  1.0000
  H   H522      1.0  0.48944  0.37847  0.25860  1.0000
  S   S134      1.0  0.64264  0.66484  0.22048  1.0000
  H   H523      1.0  0.65941  0.63485  0.10035  1.0000
  C   C338      1.0  0.55166  0.49293  0.45775  1.0000
  H   H524      1.0  0.56551  0.58088  0.32354  1.0000
  C   C339      1.0  0.60292  0.65118  0.49583  1.0000
  Fe  Fe67      1.0  0.39834  0.38065  0.28689  1.0000
  S   S135      1.0  0.38021  0.39210  0.31255  1.0000
  S   S136      1.0  0.44482  0.39453  0.28314  1.0000
  Fe  Fe68      1.0  0.43036  0.35157  0.26880  1.0000
  C   C340      1.0  0.38018  0.37760  0.33507  1.0000
  C   C341      1.0  0.38673  0.35473  0.33747  1.0000
  S   S137      1.0  0.37153  0.33561  0.39282  1.0000
  C   C342      1.0  0.37655  0.35341  0.37108  1.0000
  C   C343      1.0  0.37061  0.37669  0.36875  1.0000
  C   C344      1.0  0.37237  0.38868  0.35082  1.0000
  H   H525      1.0  0.52723  0.56875  0.28806  1.0000
  H   H526      1.0  0.36355  0.38472  0.38061  1.0000
  H   H527      1.0  0.36702  0.40621  0.34906  1.0000
  H   H528      1.0  0.49760  0.50790  0.44309  1.0000
  H   H529      1.0  0.44084  0.42782  0.36029  1.0000
  C   C345      1.0  0.45369  0.41980  0.36897  1.0000
  N   N34       1.0  0.45633  0.42924  0.38901  1.0000
  H   H530      1.0  0.33284  0.47815  0.51053  1.0000
  H   H531      1.0  0.49549  0.42654  0.39495  1.0000
  C   C346      1.0  0.42767  0.41829  0.39664  1.0000
  H   H532      1.0  0.49208  0.46978  0.38492  1.0000
  C   C347      1.0  0.47344  0.41807  0.39996  1.0000
  H   H533      1.0  0.47486  0.42735  0.36268  1.0000
  H   H534      1.0  0.44274  0.39610  0.36748  1.0000
  H   H535      1.0  0.46382  0.39440  0.39885  1.0000
  H   H536      1.0  0.56506  0.58993  0.28955  1.0000
  C   C348      1.0  0.47036  0.46069  0.39054  1.0000
  H   H537      1.0  0.42853  0.42571  0.41146  1.0000
  H   H538      1.0  0.61407  0.62271  0.38015  1.0000
  H   H539      1.0  0.51890  0.61734  0.49323  1.0000
  Fe  Fe69      1.0  0.42654  0.40353  0.44777  1.0000
  S   S138      1.0  0.38167  0.39200  0.43739  1.0000
  S   S139      1.0  0.45551  0.45048  0.44490  1.0000
  Fe  Fe70      1.0  0.36929  0.36594  0.46363  1.0000
  H   H540      1.0  0.41695  0.39463  0.39655  1.0000
  Fe  Fe71      1.0  0.38340  0.35447  0.42290  1.0000
  S   S140      1.0  0.41407  0.37939  0.47466  1.0000
  S   S141      1.0  0.42901  0.36769  0.43170  1.0000
  S   S142      1.0  0.59692  0.58048  0.43783  1.0000
  S   S143      1.0  0.63788  0.59051  0.47706  1.0000
  H   H541      1.0  0.52827  0.51129  0.28351  1.0000
  S   S144      1.0  0.58871  0.50944  0.46284  1.0000
  S   S145      1.0  0.60746  0.64702  0.47139  1.0000
  H   H542      1.0  0.47267  0.46822  0.40559  1.0000
  H   H543      1.0  0.47512  0.42413  0.41526  1.0000
  H   H544      1.0  0.45787  0.46990  0.38269  1.0000
  C   C349      1.0  0.64024  0.60174  0.33443  1.0000
  S   S146      1.0  0.38450  0.33660  0.27482  1.0000
  S   S147      1.0  0.65223  0.56684  0.43787  1.0000
  H   H545      1.0  0.41387  0.42553  0.38836  1.0000
  C   C350      1.0  0.53769  0.50878  0.45159  1.0000
  C   C351      1.0  0.53584  0.46347  0.46004  1.0000
  C   C352      1.0  0.50624  0.44999  0.45617  1.0000
  H   H546      1.0  0.49420  0.42733  0.45805  1.0000
  H   H547      1.0  0.54652  0.45110  0.46489  1.0000
  C   C353      1.0  0.49240  0.46602  0.45007  1.0000
  Fe  Fe72      1.0  0.63411  0.61849  0.28377  1.0000
  Fe  Fe73      1.0  0.41173  0.34181  0.45740  1.0000
  C   C354      1.0  0.50821  0.49538  0.44773  1.0000
  H   H548      1.0  0.59616  0.56949  0.30268  1.0000
  C   C355      1.0  0.62530  0.61804  0.33303  1.0000
  C   C356      1.0  0.54788  0.56779  0.28731  1.0000
  H   H549      1.0  0.52884  0.50419  0.30821  1.0000
  C   C357      1.0  0.63632  0.60046  0.36877  1.0000
  C   C358      1.0  0.62133  0.61676  0.36746  1.0000
  C   C359      1.0  0.61574  0.62540  0.34961  1.0000
  H   H550      1.0  0.55127  0.54520  0.33176  1.0000
  H   H551      1.0  0.52781  0.55915  0.32246  1.0000
  H   H552      1.0  0.60413  0.63799  0.34867  1.0000
  Fe  Fe74      1.0  0.63691  0.59433  0.42158  1.0000
  Fe  Fe75      1.0  0.61397  0.55555  0.45526  1.0000
  H   H553      1.0  0.58073  0.54093  0.28556  1.0000
  C   C360      1.0  0.54859  0.55878  0.32066  1.0000
  C   C361      1.0  0.57826  0.54800  0.29993  1.0000
  S   S148      1.0  0.61725  0.62841  0.31072  1.0000
  H   H554      1.0  0.33868  0.35009  0.27175  1.0000
  H   H555      1.0  0.58097  0.53344  0.31022  1.0000
  H   H556      1.0  0.54948  0.53146  0.45006  1.0000
  N   N35       1.0  0.55051  0.54849  0.30148  1.0000
  H   H557      1.0  0.38595  0.40657  0.50237  1.0000
  S   S149      1.0  0.65176  0.58686  0.28232  1.0000
  H   H558      1.0  0.65694  0.58009  0.35298  1.0000
  H   H559      1.0  0.64776  0.59591  0.32188  1.0000
  H   H560      1.0  0.50609  0.51895  0.29895  1.0000
  H   H561      1.0  0.51721  0.58765  0.50655  1.0000
  C   C362      1.0  0.52738  0.51944  0.29794  1.0000
  S   S150      1.0  0.64437  0.58877  0.39053  1.0000
  Fe  Fe76      1.0  0.62301  0.61634  0.45877  1.0000
  H   H562      1.0  0.47016  0.60682  0.50353  1.0000
  C   C363      1.0  0.34053  0.38406  0.50441  1.0000
  C   C364      1.0  0.36800  0.40311  0.51085  1.0000
  H   H563      1.0  0.60950  0.61547  0.50491  1.0000
  S   S151      1.0  0.33423  0.36392  0.48289  1.0000
  H   H564      1.0  0.34406  0.39849  0.27894  1.0000
  H   H565      1.0  0.54935  0.56069  0.27267  1.0000
  H   H566      1.0  0.56116  0.46884  0.26734  1.0000
  C   C365      1.0  0.60533  0.63301  0.50933  1.0000
  C   C366      1.0  0.64556  0.59290  0.35216  1.0000
  H   H567      1.0  0.37627  0.35243  0.50514  1.0000
  H   H568      1.0  0.39265  0.34592  0.32545  1.0000
  H   H569      1.0  0.50842  0.44113  0.26429  1.0000
  C   C367      1.0  0.38462  0.34252  0.35535  1.0000
  H   H570      1.0  0.51120  0.65531  0.50850  1.0000
  C   C368      1.0  0.52290  0.61077  0.50748  1.0000
  H   H571      1.0  0.54615  0.62226  0.51071  1.0000
  N   N36       1.0  0.50682  0.61708  0.52206  1.0000
  S   S152      1.0  0.35682  0.43161  0.56216  1.0000
  C   C369      1.0  0.51358  0.60875  0.54074  1.0000
  C   C370      1.0  0.34948  0.41363  0.53974  1.0000
  C   C371      1.0  0.37242  0.41756  0.52846  1.0000
  C   C372      1.0  0.48752  0.54496  0.62139  1.0000
  H   H572      1.0  0.39384  0.43194  0.53338  1.0000
  H   H573      1.0  0.50221  0.65324  0.53284  1.0000
  S   S153      1.0  0.34886  0.46055  0.61170  1.0000
  H   H574      1.0  0.51723  0.62914  0.68015  1.0000
  H   H575      1.0  0.40053  0.48953  0.71931  1.0000
  C   C373      1.0  0.53306  0.65110  0.68137  1.0000
  H   H576      1.0  0.53755  0.66070  0.52694  1.0000
  H   H577      1.0  0.41722  0.56363  0.75319  1.0000
  H   H578      1.0  0.38237  0.48426  0.75086  1.0000
  C   C374      1.0  0.34133  0.44836  0.68917  1.0000
  H   H579      1.0  0.36425  0.45763  0.69066  1.0000
  Fe  Fe77      1.0  0.33173  0.44627  0.58166  1.0000
  C   C375      1.0  0.60253  0.63762  0.52868  1.0000
  H   H580      1.0  0.45605  0.63667  0.60249  1.0000
  H   H581      1.0  0.33171  0.46726  0.53459  1.0000
  H   H582      1.0  0.43764  0.56378  0.63712  1.0000
  C   C376      1.0  0.43964  0.61075  0.57709  1.0000
  C   C377      1.0  0.40214  0.56911  0.60078  1.0000
  C   C378      1.0  0.44082  0.61629  0.59653  1.0000
  C   C379      1.0  0.40090  0.56349  0.58132  1.0000
  C   C380      1.0  0.41946  0.58441  0.56946  1.0000
  H   H583      1.0  0.38575  0.54306  0.57542  1.0000
  H   H584      1.0  0.41838  0.58005  0.55441  1.0000
  H   H585      1.0  0.53659  0.62108  0.54486  1.0000
  S   S154      1.0  0.46362  0.63630  0.56229  1.0000
  C   C381      1.0  0.42194  0.59565  0.60830  1.0000
  H   H586      1.0  0.50138  0.61276  0.55199  1.0000
  C   C382      1.0  0.44619  0.54945  0.63134  1.0000
  H   H587      1.0  0.44011  0.53115  0.64089  1.0000
  H   H588      1.0  0.43488  0.54091  0.61741  1.0000
  Fe  Fe78      1.0  0.34669  0.50112  0.60456  1.0000
  H   H589      1.0  0.48268  0.52644  0.63062  1.0000
  H   H590      1.0  0.42277  0.60027  0.62330  1.0000
  S   S155      1.0  0.38052  0.54313  0.61637  1.0000
  N   N37       1.0  0.47728  0.56468  0.62940  1.0000
  H   H591      1.0  0.43549  0.51042  0.72973  1.0000
  H   H592      1.0  0.60487  0.62368  0.53902  1.0000
  N   N38       1.0  0.40435  0.52437  0.73734  1.0000
  H   H593      1.0  0.48442  0.59102  0.65436  1.0000
  S   S156      1.0  0.53055  0.64535  0.58804  1.0000
  C   C383      1.0  0.42565  0.55365  0.74271  1.0000
  H   H594      1.0  0.46327  0.60520  0.52826  1.0000
  C   C384      1.0  0.48406  0.58876  0.61665  1.0000
  H   H595      1.0  0.38365  0.53784  0.71567  1.0000
  H   H596      1.0  0.44529  0.55393  0.74935  1.0000
  H   H597      1.0  0.47772  0.60473  0.62261  1.0000
  C   C385      1.0  0.41631  0.51165  0.72360  1.0000
  H   H598      1.0  0.51494  0.58750  0.64713  1.0000
  C   C386      1.0  0.51480  0.64791  0.52255  1.0000
  C   C387      1.0  0.39665  0.50693  0.75439  1.0000
  C   C388      1.0  0.59670  0.66004  0.53475  1.0000
  H   H599      1.0  0.51095  0.55584  0.61973  1.0000
  C   C389      1.0  0.49142  0.57568  0.64815  1.0000
  H   H600      1.0  0.48678  0.55823  0.65825  1.0000
  H   H601      1.0  0.47300  0.58163  0.60251  1.0000
  H   H602      1.0  0.50732  0.60024  0.61458  1.0000
  H   H603      1.0  0.36916  0.53468  0.73869  1.0000
  S   S157      1.0  0.33255  0.48821  0.57436  1.0000
  H   H604      1.0  0.53467  0.65189  0.71202  1.0000
  S   S158      1.0  0.53159  0.64905  0.64244  1.0000
  H   H605      1.0  0.46919  0.57755  0.51707  1.0000
  C   C390      1.0  0.37872  0.52516  0.72872  1.0000
  S   S159      1.0  0.34240  0.44393  0.72784  1.0000
  H   H606      1.0  0.43199  0.56756  0.73024  1.0000
  H   H607      1.0  0.47728  0.53646  0.60718  1.0000
  C   C391      1.0  0.54291  0.66394  0.69946  1.0000
  H   H608      1.0  0.34095  0.45053  0.65862  1.0000
  C   C392      1.0  0.32817  0.44430  0.67097  1.0000
  H   H609      1.0  0.36205  0.50337  0.72471  1.0000
  H   H610      1.0  0.42241  0.52421  0.71053  1.0000
  H   H611      1.0  0.50835  0.58575  0.54083  1.0000
  H   H612      1.0  0.35596  0.34270  0.52589  1.0000
  C   C393      1.0  0.47600  0.60091  0.51749  1.0000
  H   H613      1.0  0.39173  0.34638  0.52648  1.0000
  C   C394      1.0  0.37165  0.33876  0.51769  1.0000
  H   H614      1.0  0.41573  0.50749  0.76203  1.0000
  S   S160      1.0  0.34328  0.45076  0.78412  1.0000
  H   H615      1.0  0.61468  0.65301  0.83506  1.0000
  H   H616      1.0  0.59193  0.60808  0.80292  1.0000
  Fe  Fe79      1.0  0.52437  0.65202  0.78182  1.0000
  H   H617      1.0  0.56445  0.57610  0.82807  1.0000
  H   H618      1.0  0.55320  0.63798  0.84426  1.0000
  C   C395      1.0  0.46213  0.58612  0.79001  1.0000
  C   C396      1.0  0.44975  0.55660  0.79278  1.0000
  C   C397      1.0  0.42033  0.54110  0.79528  1.0000
  C   C398      1.0  0.40291  0.55492  0.79486  1.0000
  C   C399      1.0  0.41534  0.58451  0.79234  1.0000
  C   C400      1.0  0.44479  0.60004  0.78981  1.0000
  Fe  Fe80      1.0  0.33677  0.49013  0.78851  1.0000
  S   S161      1.0  0.36569  0.53622  0.79775  1.0000
  H   H619      1.0  0.46301  0.54567  0.79314  1.0000
  H   H620      1.0  0.40215  0.59551  0.79226  1.0000
  H   H621      1.0  0.45408  0.62279  0.78781  1.0000
  H   H622      1.0  0.41116  0.51848  0.79773  1.0000
  C   C401      1.0  0.59970  0.63063  0.83830  1.0000
  H   H623      1.0  0.59585  0.64380  0.80224  1.0000
  S   S162      1.0  0.49922  0.60443  0.78672  1.0000
  H   H624      1.0  0.56188  0.61430  0.79632  1.0000
  C   C402      1.0  0.34158  0.37893  0.96082  1.0000
  C   C403      1.0  0.58112  0.62160  0.80600  1.0000
  H   H625      1.0  0.34956  0.36791  0.97107  1.0000
  H   H626      1.0  0.33424  0.56706  0.80786  1.0000
  C   C404      1.0  0.55428  0.59041  0.83043  1.0000
  H   H627      1.0  0.61121  0.61747  0.83633  1.0000
  H   H628      1.0  0.54800  0.58858  0.84542  1.0000
  N   N39       1.0  0.57355  0.62017  0.82602  1.0000
  H   H629      1.0  0.53436  0.58217  0.82132  1.0000
  C   C405      1.0  0.55901  0.63819  0.82926  1.0000
  H   H630      1.0  0.59490  0.63043  0.85352  1.0000
  H   H631      1.0  0.35528  0.38420  0.94836  1.0000
  H   H632      1.0  0.34456  0.39933  0.96766  1.0000
  H   H633      1.0  0.53910  0.63085  0.82026  1.0000
  S   S163      1.0  0.56845  0.66354  0.77187  1.0000
  H   H634      1.0  0.57289  0.66070  0.82585  1.0000
  H   H635      1.0  0.38524  0.51432  0.76434  1.0000
  H   H636      1.0  0.64579  0.94964  0.17971  1.0000
  H   H637      1.0  0.63189  0.67419  0.10899  1.0000
  C   C406      1.0  0.65531  0.68218  0.11075  1.0000
  H   H638      1.0  0.63851  0.68468  0.07465  1.0000
  H   H639      1.0  0.65387  0.71498  0.19944  1.0000
  H   H640      1.0  0.65966  0.67134  0.12302  1.0000
  H   H641      1.0  0.59517  0.68780  0.49157  1.0000
  C   C407      1.0  0.59703  0.67357  0.50188  1.0000
  H   H642      1.0  0.53789  0.98408  0.47261  1.0000
  H   H643      1.0  0.50548  0.98620  0.47731  1.0000
  C   C408      1.0  0.52609  0.99699  0.47024  1.0000
  H   H644      1.0  0.52131  0.99647  0.45475  1.0000
  H   H645      1.0  0.37124  0.95399  0.69417  1.0000
  C   C409      1.0  0.42595  0.93553  0.60644  1.0000
  C   C410      1.0  0.38896  0.90642  0.58334  1.0000
  C   C411      1.0  0.43719  0.91125  0.58118  1.0000
  C   C412      1.0  0.39767  0.92424  0.59948  1.0000
  H   H646      1.0  0.40206  0.88586  0.56182  1.0000
  C   C413      1.0  0.40871  0.89972  0.57429  1.0000
  S   S164      1.0  0.35342  0.89221  0.57452  1.0000
  H   H647      1.0  0.38253  0.92909  0.60675  1.0000
  Fe  Fe81      1.0  0.57437  0.94587  0.61025  1.0000
  S   S165      1.0  0.34918  0.95985  0.59693  1.0000
  C   C414      1.0  0.61344  0.88063  0.58846  1.0000
  C   C415      1.0  0.40668  0.96195  0.72443  1.0000
  H   H648      1.0  0.38095  0.92517  0.69487  1.0000
  C   C416      1.0  0.37229  0.91447  0.73175  1.0000
  H   H649      1.0  0.58515  0.85726  0.62034  1.0000
  H   H650      1.0  0.59960  0.89033  0.58322  1.0000
  H   H651      1.0  0.57285  0.98092  0.64934  1.0000
  N   N40       1.0  0.37649  0.94088  0.72217  1.0000
  H   H652      1.0  0.63168  0.88742  0.57901  1.0000
  H   H653      1.0  0.43250  0.94934  0.61892  1.0000
  C   C417      1.0  0.35862  0.95268  0.73074  1.0000
  H   H654      1.0  0.48438  0.94758  0.64837  1.0000
  H   H655      1.0  0.58449  0.93231  0.70657  1.0000
  H   H656      1.0  0.55423  0.78237  0.69633  1.0000
  C   C418      1.0  0.36823  0.93448  0.70185  1.0000
  C   C419      1.0  0.58199  0.94296  0.69415  1.0000
  H   H657      1.0  0.58380  0.89003  0.61492  1.0000
  S   S166      1.0  0.53038  0.90493  0.75160  1.0000
  H   H658      1.0  0.36072  0.97225  0.72359  1.0000
  C   C420      1.0  0.44582  0.92926  0.59726  1.0000
  H   H659      1.0  0.41062  0.98224  0.71748  1.0000
  H   H660      1.0  0.45238  0.90622  0.57407  1.0000
  C   C421      1.0  0.53969  0.78209  0.70753  1.0000
  N   N41       1.0  0.48988  0.91085  0.65652  1.0000
  S   S167      1.0  0.48087  0.94392  0.60692  1.0000
  H   H661      1.0  0.59895  0.92225  0.67526  1.0000
  H   H662      1.0  0.52751  0.90839  0.64762  1.0000
  H   H663      1.0  0.50558  0.88012  0.66251  1.0000
  H   H664      1.0  0.45390  0.89934  0.63704  1.0000
  C   C422      1.0  0.51350  0.90322  0.65992  1.0000
  C   C423      1.0  0.47158  0.89365  0.64033  1.0000
  H   H665      1.0  0.46214  0.87046  0.64301  1.0000
  H   H666      1.0  0.48381  0.89737  0.62726  1.0000
  H   H667      1.0  0.46381  0.88229  0.67723  1.0000
  Fe  Fe82      1.0  0.54870  0.72485  0.59184  1.0000
  Fe  Fe83      1.0  0.56709  0.68150  0.57520  1.0000
  H   H668      1.0  0.34533  0.91906  0.69977  1.0000
  S   S168      1.0  0.54039  0.70177  0.56337  1.0000
  H   H669      1.0  0.33581  0.93694  0.73003  1.0000
  H   H670      1.0  0.59011  0.69575  0.52568  1.0000
  S   S169      1.0  0.51012  0.69093  0.60495  1.0000
  S   S170      1.0  0.57847  0.70718  0.60282  1.0000
  H   H671      1.0  0.49622  0.75591  0.73064  1.0000
  H   H672      1.0  0.37757  0.91847  0.74722  1.0000
  C   C424      1.0  0.64066  0.92003  0.61018  1.0000
  S   S171      1.0  0.57784  0.70926  0.72353  1.0000
  H   H673      1.0  0.64706  0.87959  0.63004  1.0000
  C   C425      1.0  0.56423  0.69484  0.66668  1.0000
  C   C426      1.0  0.57446  0.70749  0.68475  1.0000
  C   C427      1.0  0.56395  0.69212  0.70121  1.0000
  H   H674      1.0  0.57269  0.70684  0.65413  1.0000
  H   H675      1.0  0.59079  0.72927  0.68594  1.0000
  H   H676      1.0  0.52401  0.71605  0.72350  1.0000
  H   H677      1.0  0.50390  0.72575  0.70650  1.0000
  C   C428      1.0  0.52549  0.73232  0.71304  1.0000
  C   C429      1.0  0.59796  0.88073  0.62023  1.0000
  H   H678      1.0  0.53934  0.73138  0.70174  1.0000
  S   S172      1.0  0.53230  0.90832  0.60394  1.0000
  Fe  Fe84      1.0  0.51778  0.94026  0.59370  1.0000
  C   C430      1.0  0.56786  0.97635  0.67955  1.0000
  Fe  Fe85      1.0  0.56179  0.69419  0.75284  1.0000
  Fe  Fe86      1.0  0.54775  0.90931  0.57471  1.0000
  S   S173      1.0  0.59120  0.94524  0.58134  1.0000
  S   S174      1.0  0.54450  0.86997  0.55882  1.0000
  Fe  Fe87      1.0  0.57189  0.97414  0.57204  1.0000
  H   H679      1.0  0.34982  0.89790  0.73007  1.0000
  C   C431      1.0  0.54401  0.81430  0.59873  1.0000
  S   S175      1.0  0.52921  0.93809  0.56356  1.0000
  C   C432      1.0  0.54966  0.79457  0.58831  1.0000
  Fe  Fe88      1.0  0.32904  0.91505  0.58552  1.0000
  C   C433      1.0  0.54122  0.83683  0.58977  1.0000
  C   C434      1.0  0.54427  0.83997  0.57026  1.0000
  C   C435      1.0  0.54878  0.81957  0.55971  1.0000
  C   C436      1.0  0.55145  0.79694  0.56868  1.0000
  H   H680      1.0  0.58035  0.76742  0.72031  1.0000
  H   H681      1.0  0.53719  0.85203  0.59799  1.0000
  H   H682      1.0  0.55101  0.82174  0.54459  1.0000
  H   H683      1.0  0.55600  0.78202  0.56050  1.0000
  S   S176      1.0  0.32924  0.96481  0.64794  1.0000
  S   S177      1.0  0.55864  0.77040  0.60079  1.0000
  H   H684      1.0  0.60094  0.85712  0.58655  1.0000
  H   H685      1.0  0.62838  0.93172  0.60570  1.0000
  H   H686      1.0  0.54221  0.81234  0.61388  1.0000
  H   H687      1.0  0.60853  0.98716  0.52682  1.0000
  Fe  Fe89      1.0  0.53926  0.67239  0.61452  1.0000
  H   H688      1.0  0.51388  0.95510  0.66462  1.0000
  H   H689      1.0  0.38602  0.90534  0.72602  1.0000
  H   H690      1.0  0.52711  0.91513  0.67245  1.0000
  H   H691      1.0  0.42093  0.95379  0.71825  1.0000
  H   H692      1.0  0.52606  0.78285  0.74376  1.0000
  C   C437      1.0  0.47293  0.90517  0.67360  1.0000
  C   C438      1.0  0.56548  0.76844  0.73083  1.0000
  N   N42       1.0  0.62296  0.88888  0.60845  1.0000
  H   H693      1.0  0.41328  0.96719  0.73968  1.0000
  N   N43       1.0  0.53712  0.76107  0.72201  1.0000
  S   S178      1.0  0.59621  0.94234  0.63781  1.0000
  Fe  Fe90      1.0  0.56022  0.95052  0.74610  1.0000
  C   C439      1.0  0.54370  0.66645  0.66489  1.0000
  S   S179      1.0  0.55899  0.96985  0.71755  1.0000
  C   C440      1.0  0.58649  0.95057  0.66003  1.0000
  C   C441      1.0  0.57530  0.97014  0.66172  1.0000
  H   H694      1.0  0.56419  0.75333  0.74209  1.0000
  C   C442      1.0  0.57075  0.96255  0.69581  1.0000
  H   H695      1.0  0.51566  0.74592  0.74788  1.0000
  H   H696      1.0  0.45503  0.91087  0.67150  1.0000
  H   H697      1.0  0.64815  0.92700  0.62510  1.0000
  C   C443      1.0  0.51789  0.76146  0.73667  1.0000
  H   H698      1.0  0.57519  0.79021  0.73743  1.0000
  H   H699      1.0  0.51870  0.77710  0.70050  1.0000
  H   H700      1.0  0.48624  0.91783  0.68608  1.0000
  H   H701      1.0  0.36467  0.95863  0.74587  1.0000
  H   H702      1.0  0.60432  0.88843  0.63516  1.0000
  C   C444      1.0  0.50153  0.94142  0.65230  1.0000
  C   C445      1.0  0.59010  0.93726  0.67637  1.0000
  H   H703      1.0  0.54834  0.80401  0.71389  1.0000
  S   S180      1.0  0.55918  0.97791  0.60181  1.0000
  H   H704      1.0  0.51595  0.94692  0.64020  1.0000
  C   C446      1.0  0.59396  0.67801  0.52121  1.0000
  H   H705      1.0  0.33524  0.98754  0.68572  1.0000
  C   C447      1.0  0.63974  0.87407  0.61496  1.0000
  S   S181      1.0  0.59787  0.94918  0.76106  1.0000
  H   H706      1.0  0.62688  0.85047  0.61373  1.0000
  H   H707      1.0  0.55966  0.99190  0.68073  1.0000
  Fe  Fe91      1.0  0.50442  0.66650  0.57771  1.0000
  S   S182      1.0  0.59520  0.66589  0.55939  1.0000
  S   S183      1.0  0.51670  0.68043  0.76101  1.0000
  H   H708      1.0  0.65882  0.87977  0.60641  1.0000
  H   H709      1.0  0.65960  0.92718  0.60133  1.0000
  Fe  Fe92      1.0  0.34273  0.93735  0.78206  1.0000
  S   S184      1.0  0.58567  0.87322  0.76592  1.0000
  H   H710      1.0  0.61943  0.94998  0.86832  1.0000
  C   C448      1.0  0.45271  0.91973  0.78547  1.0000
  S   S185      1.0  0.61772  0.99617  0.80787  1.0000
  H   H711      1.0  0.51550  0.92685  0.82221  1.0000
  C   C449      1.0  0.41399  0.94360  0.78168  1.0000
  C   C450      1.0  0.40529  0.91667  0.78932  1.0000
  C   C451      1.0  0.42469  0.90497  0.79141  1.0000
  H   H712      1.0  0.38385  0.90517  0.79410  1.0000
  H   H713      1.0  0.41797  0.88444  0.79779  1.0000
  S   S186      1.0  0.47688  0.90506  0.78970  1.0000
  C   C452      1.0  0.65114  0.72543  0.87526  1.0000
  C   C453      1.0  0.57969  0.82014  0.77357  1.0000
  H   H714      1.0  0.64345  0.77665  0.87230  1.0000
  Fe  Fe93      1.0  0.58337  0.69759  0.79492  1.0000
  S   S187      1.0  0.53972  0.68476  0.80573  1.0000
  Fe  Fe94      1.0  0.53629  0.71437  0.78402  1.0000
  S   S188      1.0  0.58095  0.72942  0.77496  1.0000
  S   S189      1.0  0.51702  0.74462  0.78938  1.0000
  H   H715      1.0  0.62164  0.94287  0.80921  1.0000
  H   H716      1.0  0.60705  0.71423  0.87963  1.0000
  C   C454      1.0  0.62263  0.71677  0.86925  1.0000
  C   C455      1.0  0.61414  0.71173  0.84989  1.0000
  C   C456      1.0  0.63401  0.71458  0.83635  1.0000
  H   H717      1.0  0.62210  0.90921  0.81274  1.0000
  H   H718      1.0  0.59221  0.70542  0.84551  1.0000
  S   S190      1.0  0.62437  0.70634  0.81194  1.0000
  C   C457      1.0  0.46112  0.94626  0.77723  1.0000
  Fe  Fe95      1.0  0.58425  0.96228  0.78783  1.0000
  S   S191      1.0  0.55575  0.91762  0.79594  1.0000
  C   C458      1.0  0.50760  0.97365  0.81647  1.0000
  C   C459      1.0  0.62883  0.92767  0.80326  1.0000
  Fe  Fe96      1.0  0.52141  0.92240  0.77845  1.0000
  H   H719      1.0  0.60154  0.82823  0.76955  1.0000
  S   S192      1.0  0.54912  0.96817  0.77220  1.0000
  C   C460      1.0  0.53662  0.78089  0.78402  1.0000
  C   C461      1.0  0.52335  0.79896  0.78407  1.0000
  C   C462      1.0  0.53819  0.82753  0.77878  1.0000
  C   C463      1.0  0.56637  0.83807  0.77338  1.0000
  H   H720      1.0  0.50145  0.79076  0.78802  1.0000
  C   C464      1.0  0.56493  0.79176  0.77894  1.0000
  Fe  Fe97      1.0  0.56723  0.90460  0.76841  1.0000
  H   H721      1.0  0.49273  0.97064  0.85261  1.0000
  H   H722      1.0  0.57561  0.77843  0.77920  1.0000
  C   C465      1.0  0.65340  0.79554  0.86324  1.0000
  N   N44       1.0  0.52183  0.96779  0.83304  1.0000
  C   C466      1.0  0.44195  0.95827  0.77560  1.0000
  S   S193      1.0  0.39101  0.96004  0.77976  1.0000
  H   H723      1.0  0.52775  0.84126  0.77869  1.0000
  H   H724      1.0  0.55797  0.97180  0.81765  1.0000
  H   H725      1.0  0.48254  0.95779  0.77247  1.0000
  C   C467      1.0  0.51087  0.93665  0.83484  1.0000
  H   H726      1.0  0.56441  0.97701  0.84275  1.0000
  C   C468      1.0  0.55284  0.98076  0.83048  1.0000
  H   H727      1.0  0.48734  0.92596  0.83603  1.0000
  H   H728      1.0  0.51155  0.96458  0.80326  1.0000
  H   H729      1.0  0.59845  0.95219  0.83679  1.0000
  H   H730      1.0  0.61703  0.91971  0.78950  1.0000
  C   C469      1.0  0.63022  0.96841  0.85975  1.0000
  H   H731      1.0  0.44890  0.97916  0.76972  1.0000
  C   C470      1.0  0.61825  0.96962  0.84183  1.0000
  H   H732      1.0  0.65405  0.78740  0.84874  1.0000
  C   C471      1.0  0.51597  0.98003  0.85030  1.0000
  H   H733      1.0  0.52060  0.93130  0.84742  1.0000
  H   H734      1.0  0.48410  0.96391  0.81777  1.0000
  H   H735      1.0  0.65661  0.91233  0.77822  1.0000
  H   H736      1.0  0.63900  0.80592  0.86259  1.0000
  H   H737      1.0  0.52645  0.97604  0.86308  1.0000
  C   C472      1.0  0.63178  0.99347  0.83066  1.0000
  H   H738      1.0  0.51531  0.99690  0.81454  1.0000
  H   H739      1.0  0.65671  0.95925  0.77418  1.0000
  C   C473      1.0  0.65590  0.99087  0.86679  1.0000
  Fe  Fe98      1.0  0.78673  0.07284  0.12718  1.0000
  S   S194      1.0  0.75151  0.07343  0.10869  1.0000
  S   S195      1.0  0.81891  0.11512  0.13967  1.0000
  Fe  Fe99      1.0  0.72280  0.03891  0.12749  1.0000
  S   S196      1.0  0.68422  0.03880  0.14163  1.0000
  Fe  Fe100     1.0  0.75479  0.03864  0.09148  1.0000
  C   C474      1.0  0.81258  0.13222  0.09294  1.0000
  S   S197      1.0  0.75793  0.04024  0.14667  1.0000
  S   S198      1.0  0.79223  0.04052  0.10915  1.0000
  S   S199      1.0  0.94354  0.17590  0.10986  1.0000
  C   C475      1.0  0.85374  0.13123  0.13167  1.0000
  C   C476      1.0  0.86989  0.16070  0.13442  1.0000
  C   C477      1.0  0.89744  0.17451  0.12770  1.0000
  C   C478      1.0  0.90917  0.15880  0.11850  1.0000
  C   C479      1.0  0.89323  0.12922  0.11599  1.0000
  C   C480      1.0  0.86538  0.11546  0.12238  1.0000
  H   H740      1.0  0.86096  0.17296  0.14165  1.0000
  H   H741      1.0  0.90964  0.19730  0.12982  1.0000
  H   H742      1.0  0.90230  0.11699  0.10892  1.0000
  H   H743      1.0  0.85305  0.09268  0.12033  1.0000
  C   C481      1.0  0.75126  0.04216  0.03782  1.0000
  C   C482      1.0  0.72641  0.04556  0.03557  1.0000
  C   C483      1.0  0.75241  0.26537  0.23662  1.0000
  H   H744      1.0  0.78881  0.10876  0.05928  1.0000
  H   H745      1.0  0.79007  0.12856  0.09144  1.0000
  C   C484      1.0  0.68711  0.05805  0.16321  1.0000
  H   H746      1.0  0.74440  0.26919  0.22323  1.0000
  H   H747      1.0  0.74912  0.14323  0.21223  1.0000
  H   H748      1.0  0.83638  0.18305  0.07676  1.0000
  C   C485      1.0  0.71421  0.08493  0.19130  1.0000
  C   C486      1.0  0.71296  0.07180  0.17358  1.0000
  C   C487      1.0  0.76571  0.04127  0.02162  1.0000
  H   H749      1.0  0.73201  0.07203  0.16810  1.0000
  C   C488      1.0  0.82547  0.16426  0.06692  1.0000
  H   H750      1.0  0.83599  0.16992  0.05315  1.0000
  C   C489      1.0  0.81178  0.11416  0.06137  1.0000
  C   C490      1.0  0.93736  0.32292  0.20407  1.0000
  C   C491      1.0  0.68989  0.08538  0.19875  1.0000
  H   H751      1.0  0.86825  0.16204  0.08804  1.0000
  H   H752      1.0  0.80309  0.16081  0.06456  1.0000
  C   C492      1.0  0.85661  0.14419  0.07760  1.0000
  H   H753      1.0  0.81256  0.11270  0.09897  1.0000
  H   H754      1.0  0.82132  0.11829  0.04726  1.0000
  Fe  Fe101     1.0  0.75963  0.00735  0.12679  1.0000
  H   H755      1.0  0.82353  0.14986  0.10361  1.0000
  H   H756      1.0  0.81270  0.09469  0.06676  1.0000
  H   H757      1.0  0.71509  0.04639  0.04788  1.0000
  Fe  Fe102     1.0  0.96072  0.22363  0.10901  1.0000
  H   H758      1.0  0.78504  0.03883  0.02320  1.0000
  N   N45       1.0  0.82662  0.13873  0.07467  1.0000
  H   H759      1.0  0.86817  0.14980  0.06421  1.0000
  H   H760      1.0  0.85816  0.12513  0.08313  1.0000
  S   S200      1.0  0.76541  0.03874  0.06027  1.0000
  H   H761      1.0  0.78385  0.22864  0.23434  1.0000
  H   H762      1.0  0.98591  0.18231  0.16628  1.0000
  H   H763      1.0  0.90217  0.31819  0.16186  1.0000
  S   S201      1.0  0.95886  0.28316  0.05303  1.0000
  C   C493      1.0  0.97042  0.27624  0.03118  1.0000
  H   H764      1.0  0.73425  0.09477  0.19930  1.0000
  H   H765      1.0  0.73060  0.17640  0.24151  1.0000
  H   H766      1.0  0.96944  0.16103  0.14520  1.0000
  C   C494      1.0  0.91681  0.31582  0.17197  1.0000
  C   C495      1.0  0.96379  0.28681  0.01451  1.0000
  C   C496      1.0  0.71608  0.04775  0.01728  1.0000
  S   S202      1.0  0.80233  0.31276  0.22974  1.0000
  H   H767      1.0  0.76241  0.18800  0.25598  1.0000
  N   N46       1.0  0.76791  0.18443  0.22617  1.0000
  C   C497      1.0  0.98567  0.18234  0.15056  1.0000
  H   H768      1.0  0.71389  0.22736  0.24199  1.0000
  H   H769      1.0  0.73066  0.16416  0.20764  1.0000
  H   H770      1.0  0.75258  0.21493  0.21895  1.0000
  H   H771      1.0  0.96731  0.29210  0.17484  1.0000
  C   C498      1.0  0.75093  0.17481  0.24320  1.0000
  C   C499      1.0  0.75226  0.16536  0.20990  1.0000
  S   S203      1.0  0.69318  0.10183  0.22150  1.0000
  H   H772      1.0  0.76375  0.17254  0.19658  1.0000
  S   S204      1.0  0.67048  0.16096  0.23533  1.0000
  C   C500      1.0  0.91790  0.32490  0.19094  1.0000
  H   H773      1.0  0.80792  0.19818  0.24155  1.0000
  C   C501      1.0  0.79546  0.18367  0.22951  1.0000
  H   H774      1.0  0.79234  0.16182  0.23292  1.0000
  C   C502      1.0  0.73518  0.24165  0.24718  1.0000
  S   S205      1.0  0.72232  0.00346  0.10843  1.0000
  H   H775      1.0  0.95220  0.29940  0.01533  1.0000
  C   C503      1.0  0.77295  0.21383  0.22209  1.0000
  Fe  Fe103     1.0  0.96980  0.27089  0.08183  1.0000
  S   S206      1.0  0.93469  0.29648  0.14130  1.0000
  Fe  Fe104     1.0  0.95813  0.27712  0.12396  1.0000
  H   H776      1.0  0.80866  0.19040  0.21684  1.0000
  C   C504      1.0  0.78012  0.28386  0.24327  1.0000
  S   S207      1.0  0.87017  0.30982  0.25411  1.0000
  S   S208      1.0  0.93390  0.24522  0.10051  1.0000
  C   C505      1.0  0.95363  0.30135  0.17915  1.0000
  H   H777      1.0  0.97017  0.30924  0.20813  1.0000
  H   H778      1.0  0.78643  0.22219  0.20968  1.0000
  H   H779      1.0  0.69678  0.05025  0.01567  1.0000
  C   C506      1.0  0.93475  0.30418  0.16589  1.0000
  S   S209      1.0  0.98226  0.25326  0.13399  1.0000
  C   C507      1.0  0.95516  0.31102  0.19805  1.0000
  H   H780      1.0  0.74534  0.15215  0.24616  1.0000
  H   H781      1.0  0.71152  0.01749  0.17611  1.0000
  C   C508      1.0  0.66270  0.05837  0.17064  1.0000
  H   H782      1.0  0.97791  0.19792  0.14589  1.0000
  C   C509      1.0  0.66410  0.07218  0.18821  1.0000
  C   C510      1.0  0.79025  0.27887  0.26065  1.0000
  C   C511      1.0  0.98568  0.26026  0.03002  1.0000
  Fe  Fe105     1.0  0.66669  0.11689  0.23968  1.0000
  S   S210      1.0  0.99214  0.30457  0.10455  1.0000
  H   H783      1.0  0.99090  0.25202  0.04272  1.0000
  H   H784      1.0  0.67436  0.00247  0.18019  1.0000
  C   C512      1.0  0.69362  0.99884  0.18212  1.0000
  H   H785      1.0  0.69839  0.99912  0.19757  1.0000
  H   H786      1.0  0.84082  0.31577  0.34529  1.0000
  S   S211      1.0  0.67740  0.12377  0.38820  1.0000
  S   S212      1.0  0.72547  0.20696  0.27806  1.0000
  H   H787      1.0  0.92742  0.27208  0.40220  1.0000
  H   H788      1.0  0.73843  0.20758  0.36418  1.0000
  H   H789      1.0  0.92491  0.30420  0.40815  1.0000
  H   H790      1.0  0.78115  0.25176  0.28464  1.0000
  H   H791      1.0  0.76893  0.24157  0.38988  1.0000
  C   C513      1.0  0.71514  0.23411  0.38545  1.0000
  H   H792      1.0  0.73037  0.17800  0.37954  1.0000
  Fe  Fe106     1.0  0.66759  0.15439  0.45115  1.0000
  C   C514      1.0  0.77807  0.26184  0.45551  1.0000
  H   H793      1.0  0.69941  0.13928  0.35127  1.0000
  H   H794      1.0  0.88924  0.23420  0.38262  1.0000
  C   C515      1.0  0.75373  0.22736  0.40011  1.0000
  C   C516      1.0  0.69195  0.16309  0.50695  1.0000
  H   H795      1.0  0.72919  0.24811  0.37460  1.0000
  H   H796      1.0  0.71775  0.15799  0.47597  1.0000
  N   N47       1.0  0.72454  0.21274  0.39167  1.0000
  H   H797      1.0  0.71534  0.24800  0.39754  1.0000
  H   H798      1.0  0.74508  0.15214  0.48808  1.0000
  C   C517      1.0  0.72397  0.19479  0.37525  1.0000
  C   C518      1.0  0.91222  0.28081  0.40548  1.0000
  H   H799      1.0  0.85933  0.27613  0.40811  1.0000
  H   H800      1.0  0.69308  0.22370  0.37913  1.0000
  C   C519      1.0  0.70514  0.19457  0.40589  1.0000
  H   H801      1.0  0.75474  0.24070  0.41275  1.0000
  H   H802      1.0  0.71169  0.17830  0.41106  1.0000
  H   H803      1.0  0.81139  0.29308  0.26606  1.0000
  S   S213      1.0  0.69778  0.19915  0.46196  1.0000
  S   S214      1.0  0.68430  0.12380  0.44248  1.0000
  C   C520      1.0  0.73403  0.21731  0.45602  1.0000
  C   C521      1.0  0.77731  0.21786  0.44428  1.0000
  C   C522      1.0  0.74824  0.20295  0.44809  1.0000
  H   H804      1.0  0.78818  0.20645  0.43842  1.0000
  H   H805      1.0  0.73702  0.18031  0.44509  1.0000
  H   H806      1.0  0.78938  0.28457  0.45838  1.0000
  H   H807      1.0  0.70746  0.10727  0.50012  1.0000
  H   H808      1.0  0.88206  0.30945  0.39823  1.0000
  S   S215      1.0  0.86515  0.31833  0.30945  1.0000
  S   S216      1.0  0.68500  0.12700  0.26970  1.0000
  Fe  Fe107     1.0  0.85648  0.31324  0.44450  1.0000
  C   C523      1.0  0.74913  0.24680  0.45973  1.0000
  H   H809      1.0  0.70446  0.20725  0.41841  1.0000
  H   H810      1.0  0.70217  0.18344  0.36860  1.0000
  H   H811      1.0  0.68310  0.18275  0.39976  1.0000
  C   C524      1.0  0.73010  0.16169  0.48961  1.0000
  H   H812      1.0  0.73840  0.25815  0.46588  1.0000
  H   H813      1.0  0.91864  0.31169  0.37508  1.0000
  H   H814      1.0  0.85861  0.23849  0.37465  1.0000
  C   C525      1.0  0.90512  0.28845  0.37256  1.0000
  H   H815      1.0  0.76150  0.21178  0.40480  1.0000
  C   C526      1.0  0.79236  0.24739  0.44786  1.0000
  C   C527      1.0  0.69388  0.11840  0.50181  1.0000
  H   H816      1.0  0.67746  0.12703  0.31884  1.0000
  Fe  Fe108     1.0  0.68637  0.16985  0.26556  1.0000
  H   H817      1.0  0.70417  0.18653  0.50944  1.0000
  C   C528      1.0  0.87483  0.24366  0.38644  1.0000
  N   N48       1.0  0.89073  0.27476  0.38989  1.0000
  H   H818      1.0  0.88957  0.28604  0.36077  1.0000
  H   H819      1.0  0.85447  0.28252  0.38365  1.0000
  C   C529      1.0  0.87073  0.28615  0.39517  1.0000
  S   S217      1.0  0.82875  0.26511  0.44232  1.0000
  H   H820      1.0  0.91927  0.27932  0.36759  1.0000
  H   H821      1.0  0.86352  0.23280  0.39925  1.0000
  C   C530      1.0  0.67688  0.12557  0.34939  1.0000
  H   H822      1.0  0.90207  0.27149  0.41895  1.0000
  H   H823      1.0  0.68035  0.11396  0.48862  1.0000
  H   H824      1.0  0.67884  0.15998  0.49369  1.0000
  C   C531      1.0  0.77303  0.25542  0.27122  1.0000
  H   H825      1.0  0.74287  0.18518  0.49154  1.0000
  N   N49       1.0  0.71103  0.14934  0.50541  1.0000
  S   S218      1.0  0.90302  0.32783  0.43920  1.0000
  C   C532      1.0  0.66450  0.11854  0.33094  1.0000
  C   C533      1.0  0.86354  0.32872  0.34723  1.0000
  C   C534      1.0  0.74559  0.23662  0.26448  1.0000
  C   C535      1.0  0.66046  0.11456  0.36531  1.0000
  C   C536      1.0  0.72817  0.15422  0.52324  1.0000
  H   H826      1.0  0.71438  0.14520  0.53545  1.0000
  H   H827      1.0  0.74273  0.14402  0.52256  1.0000
  H   H828      1.0  0.74144  0.17738  0.52632  1.0000
  H   H829      1.0  0.67949  0.10818  0.51356  1.0000
  H   H830      1.0  0.67709  0.15426  0.51866  1.0000
  C   C537      1.0  0.66950  0.01463  0.85558  1.0000
  H   H831      1.0  0.86266  0.17022  0.97281  1.0000
  Fe  Fe109     1.0  0.77287  0.04904  0.91978  1.0000
  S   S219      1.0  0.73375  0.05655  0.92197  1.0000
  S   S220      1.0  0.81897  0.07522  0.91178  1.0000
  Fe  Fe110     1.0  0.72951  0.03591  0.95049  1.0000
  S   S221      1.0  0.71578  0.04767  0.97826  1.0000
  H   H832      1.0  0.90075  0.22050  0.00025  1.0000
  S   S222      1.0  0.95718  0.27787  0.92967  1.0000
  S   S223      1.0  0.76970  0.03148  0.94888  1.0000
  H   H833      1.0  0.90817  0.16931  0.96633  1.0000
  S   S224      1.0  0.89153  0.21055  0.91282  1.0000
  C   C538      1.0  0.83886  0.11291  0.91293  1.0000
  C   C539      1.0  0.82607  0.13090  0.91586  1.0000
  C   C540      1.0  0.84251  0.16071  0.91576  1.0000
  C   C541      1.0  0.87193  0.17287  0.91301  1.0000
  C   C542      1.0  0.88486  0.15489  0.91058  1.0000
  C   C543      1.0  0.86835  0.12507  0.91040  1.0000
  H   H834      1.0  0.80340  0.12187  0.91772  1.0000
  H   H835      1.0  0.83228  0.17443  0.91758  1.0000
  H   H836      1.0  0.90744  0.16393  0.90837  1.0000
  H   H837      1.0  0.87845  0.11138  0.90800  1.0000
  H   H838      1.0  0.91234  0.19108  0.94619  1.0000
  H   H839      1.0  0.86890  0.04279  0.94784  1.0000
  Fe  Fe111     1.0  0.98867  0.29586  0.90652  1.0000
  H   H840      1.0  0.98350  0.31125  0.85909  1.0000
  H   H841      1.0  0.96782  0.29047  0.98421  1.0000
  C   C544      1.0  0.73031  0.04635  0.00107  1.0000
  C   C545      1.0  0.85269  0.03977  0.93643  1.0000
  C   C546      1.0  0.75532  0.04330  0.00338  1.0000
  H   H842      1.0  0.90638  0.24963  0.97283  1.0000
  Fe  Fe112     1.0  0.93984  0.23630  0.91281  1.0000
  H   H843      1.0  0.86124  0.20380  0.97524  1.0000
  S   S225      1.0  0.96862  0.22079  0.92727  1.0000
  C   C547      1.0  0.91648  0.19170  0.96176  1.0000
  C   C548      1.0  0.90976  0.20822  0.99227  1.0000
  C   C549      1.0  0.87199  0.19256  0.96801  1.0000
  H   H844      1.0  0.76669  0.04253  0.99110  1.0000
  H   H845      1.0  0.68915  0.03215  0.86078  1.0000
  H   H846      1.0  0.86335  0.05503  0.92508  1.0000
  H   H847      1.0  0.86652  0.19172  0.95257  1.0000
  S   S226      1.0  0.96907  0.25557  0.88861  1.0000
  H   H848      1.0  0.90818  0.23664  0.94963  1.0000
  C   C550      1.0  0.97248  0.28163  0.99684  1.0000
  C   C551      1.0  0.91438  0.23653  0.96480  1.0000
  N   N50       1.0  0.90311  0.20722  0.97174  1.0000
  H   H849      1.0  0.94000  0.20213  0.96441  1.0000
  H   H850      1.0  0.87148  0.01651  0.90951  1.0000
  H   H851      1.0  0.93317  0.21882  0.99536  1.0000
  H   H852      1.0  0.93800  0.24745  0.96605  1.0000
  Fe  Fe113     1.0  0.70929  0.01167  0.90932  1.0000
  H   H853      1.0  0.66803  0.03460  0.82928  1.0000
  S   S227      1.0  0.74865  0.00560  0.90539  1.0000
  H   H854      1.0  0.83691  0.04619  0.94232  1.0000
  H   H855      1.0  0.90130  0.18649  0.99807  1.0000
  H   H856      1.0  0.98932  0.32822  0.82611  1.0000
  H   H857      1.0  0.87655  0.00413  0.93227  1.0000
  N   N51       1.0  0.83874  0.01005  0.92896  1.0000
  C   C552      1.0  0.98761  0.26551  0.99568  1.0000
  Fe  Fe114     1.0  0.98708  0.26277  0.94328  1.0000
  C   C553      1.0  0.86025  0.00234  0.92122  1.0000
  H   H858      1.0  0.82773  0.02208  0.90205  1.0000
  H   H859      1.0  0.80138  0.01316  0.91933  1.0000
  C   C554      1.0  0.81770  0.00741  0.91380  1.0000
  H   H860      1.0  0.85704  0.40803  0.23235  1.0000
  S   S228      1.0  0.87907  0.60045  0.22058  1.0000
  H   H861      1.0  0.79130  0.38959  0.25814  1.0000
  Fe  Fe115     1.0  0.90857  0.34621  0.24271  1.0000
  S   S229      1.0  0.88425  0.36838  0.22980  1.0000
  H   H862      1.0  0.83245  0.37438  0.22165  1.0000
  H   H863      1.0  0.80425  0.36493  0.25048  1.0000
  C   C555      1.0  0.90488  0.46703  0.23583  1.0000
  H   H864      1.0  0.90808  0.45059  0.22844  1.0000
  H   H865      1.0  0.96665  0.60103  0.23193  1.0000
  C   C556      1.0  0.90810  0.49180  0.22640  1.0000
  C   C557      1.0  0.83710  0.39719  0.22343  1.0000
  H   H866      1.0  0.82345  0.44042  0.21947  1.0000
  S   S230      1.0  0.80121  0.57428  0.23753  1.0000
  Fe  Fe116     1.0  0.89189  0.39133  0.25810  1.0000
  H   H867      1.0  0.80227  0.43350  0.23998  1.0000
  C   C558      1.0  0.94739  0.61008  0.19837  1.0000
  N   N52       1.0  0.81325  0.40001  0.23208  1.0000
  H   H868      1.0  0.94134  0.58866  0.19180  1.0000
  H   H869      1.0  0.76851  0.38583  0.22629  1.0000
  C   C559      1.0  0.78705  0.38428  0.22019  1.0000
  H   H870      1.0  0.74155  0.55806  0.23789  1.0000
  H   H871      1.0  0.83947  0.44277  0.24255  1.0000
  H   H872      1.0  0.90413  0.33404  0.19530  1.0000
  C   C560      1.0  0.89836  0.46408  0.25494  1.0000
  H   H873      1.0  0.98819  0.35336  0.12705  1.0000
  H   H874      1.0  0.91361  0.49421  0.21171  1.0000
  C   C561      1.0  0.73709  0.59268  0.25163  1.0000
  H   H875      1.0  0.78944  0.39263  0.20563  1.0000
  C   C562      1.0  0.98380  0.65136  0.21483  1.0000
  H   H876      1.0  0.84139  0.40671  0.20921  1.0000
  H   H877      1.0  0.70821  0.65929  0.23523  1.0000
  C   C563      1.0  0.90455  0.51360  0.23594  1.0000
  H   H878      1.0  0.67349  0.64399  0.19574  1.0000
  H   H879      1.0  0.66412  0.64247  0.07564  1.0000
  H   H880      1.0  0.78170  0.36118  0.21891  1.0000
  H   H881      1.0  0.71409  0.58216  0.25060  1.0000
  H   H882      1.0  0.97773  0.35545  0.15995  1.0000
  H   H883      1.0  0.91476  0.65050  0.18875  1.0000
  C   C564      1.0  0.80917  0.38793  0.25115  1.0000
  Fe  Fe117     1.0  0.84852  0.59274  0.24374  1.0000
  C   C565      1.0  0.81982  0.43048  0.23357  1.0000
  Fe  Fe118     1.0  0.90838  0.63863  0.23824  1.0000
  C   C566      1.0  0.89754  0.51033  0.25494  1.0000
  S   S231      1.0  0.90964  0.54493  0.22398  1.0000
  Fe  Fe119     1.0  0.89677  0.57619  0.23833  1.0000
  S   S232      1.0  0.92811  0.61480  0.25489  1.0000
  H   H884      1.0  0.96967  0.64917  0.22672  1.0000
  N   N53       1.0  0.97716  0.62341  0.20583  1.0000
  H   H885      1.0  0.93254  0.60689  0.20990  1.0000
  C   C567      1.0  0.78118  0.63315  0.26159  1.0000
  S   S233      1.0  0.87626  0.63258  0.26064  1.0000
  C   C568      1.0  0.78246  0.59243  0.24590  1.0000
  C   C569      1.0  0.75265  0.57908  0.24447  1.0000
  H   H886      1.0  0.94359  0.62346  0.18763  1.0000
  Fe  Fe120     1.0  0.84666  0.33353  0.24305  1.0000
  C   C570      1.0  0.79671  0.61963  0.25431  1.0000
  H   H887      1.0  0.82865  0.39922  0.26046  1.0000
  S   S234      1.0  0.66104  0.60019  0.23685  1.0000
  S   S235      1.0  0.86352  0.56508  0.25974  1.0000
  C   C571      1.0  0.75137  0.61964  0.26034  1.0000
  C   C572      1.0  0.98098  0.60467  0.21994  1.0000
  S   S236      1.0  0.94139  0.33657  0.22769  1.0000
  H   H888      1.0  0.97567  0.58322  0.21368  1.0000
  H   H889      1.0  0.99177  0.60680  0.18295  1.0000
  H   H890      1.0  0.81965  0.63028  0.25510  1.0000
  H   H891      1.0  0.70042  0.66405  0.16689  1.0000
  H   H892      1.0  0.74258  0.66156  0.23125  1.0000
  C   C573      1.0  0.67533  0.66400  0.19047  1.0000
  C   C574      1.0  0.95040  0.64876  0.50509  1.0000
  H   H893      1.0  0.96167  0.44182  0.50094  1.0000
  C   C575      1.0  0.72119  0.60286  0.37953  1.0000
  Fe  Fe121     1.0  0.68524  0.61827  0.26444  1.0000
  S   S237      1.0  0.92110  0.36678  0.39083  1.0000
  H   H894      1.0  0.73698  0.53983  0.45141  1.0000
  C   C576      1.0  0.75421  0.60200  0.40378  1.0000
  C   C577      1.0  0.92211  0.36128  0.35238  1.0000
  C   C578      1.0  0.90484  0.35538  0.36807  1.0000
  H   H895      1.0  0.97237  0.47937  0.50052  1.0000
  H   H896      1.0  0.83228  0.62956  0.48682  1.0000
  H   H897      1.0  0.79021  0.59786  0.50306  1.0000
  H   H898      1.0  0.94494  0.37343  0.35439  1.0000
  H   H899      1.0  0.72209  0.61610  0.42666  1.0000
  S   S238      1.0  0.89464  0.43398  0.26787  1.0000
  H   H900      1.0  0.93059  0.41577  0.33725  1.0000
  H   H901      1.0  0.86250  0.43731  0.32513  1.0000
  H   H902      1.0  0.92508  0.43997  0.35283  1.0000
  H   H903      1.0  0.86089  0.41531  0.34481  1.0000
  H   H904      1.0  0.89908  0.39505  0.30879  1.0000
  H   H905      1.0  0.88548  0.45250  0.34576  1.0000
  C   C579      1.0  0.88331  0.40090  0.31530  1.0000
  C   C580      1.0  0.87559  0.43321  0.33626  1.0000
  H   H906      1.0  0.90023  0.40299  0.35182  1.0000
  H   H907      1.0  0.92842  0.47029  0.32588  1.0000
  H   H908      1.0  0.86856  0.38207  0.32312  1.0000
  C   C581      1.0  0.91407  0.42110  0.34309  1.0000
  H   H909      1.0  0.90439  0.45637  0.30568  1.0000
  N   N54       1.0  0.89737  0.42652  0.32785  1.0000
  H   H910      1.0  0.93224  0.44598  0.30935  1.0000
  H   H911      1.0  0.87079  0.40437  0.30349  1.0000
  C   C582      1.0  0.91649  0.45087  0.31676  1.0000
  H   H912      1.0  0.88954  0.48375  0.27916  1.0000
  Fe  Fe122     1.0  0.86397  0.37379  0.44588  1.0000
  S   S239      1.0  0.91023  0.39227  0.44009  1.0000
  S   S240      1.0  0.84250  0.40184  0.45170  1.0000
  Fe  Fe123     1.0  0.91232  0.36205  0.46160  1.0000
  S   S241      1.0  0.95409  0.38195  0.47949  1.0000
  H   H913      1.0  0.86184  0.33525  0.37728  1.0000
  S   S242      1.0  0.86622  0.34511  0.46874  1.0000
  H   H914      1.0  0.75870  0.58644  0.39545  1.0000
  S   S243      1.0  0.91759  0.62790  0.49233  1.0000
  H   H915      1.0  0.85768  0.50121  0.45043  1.0000
  S   S244      1.0  0.85080  0.34081  0.42223  1.0000
  C   C583      1.0  0.85061  0.45728  0.45070  1.0000
  C   C584      1.0  0.85991  0.43743  0.44453  1.0000
  C   C585      1.0  0.88344  0.44639  0.43315  1.0000
  C   C586      1.0  0.89795  0.47507  0.42832  1.0000
  H   H916      1.0  0.83229  0.45044  0.45940  1.0000
  H   H917      1.0  0.89026  0.43122  0.42782  1.0000
  H   H918      1.0  0.82982  0.55801  0.48933  1.0000
  N   N55       1.0  0.93458  0.45369  0.48360  1.0000
  Fe  Fe124     1.0  0.67463  0.60407  0.45775  1.0000
  H   H919      1.0  0.80185  0.56125  0.32967  1.0000
  H   H920      1.0  0.86384  0.62456  0.48773  1.0000
  Fe  Fe125     1.0  0.89759  0.35710  0.41830  1.0000
  H   H921      1.0  0.91620  0.48187  0.41955  1.0000
  H   H922      1.0  0.73546  0.64151  0.40832  1.0000
  C   C587      1.0  0.86495  0.48601  0.44567  1.0000
  S   S245      1.0  0.66165  0.63258  0.44076  1.0000
  C   C588      1.0  0.87541  0.33954  0.36537  1.0000
  C   C589      1.0  0.83879  0.57159  0.50239  1.0000
  H   H923      1.0  0.90365  0.65114  0.32169  1.0000
  C   C590      1.0  0.72006  0.61928  0.41131  1.0000
  H   H924      1.0  0.75759  0.59865  0.41895  1.0000
  C   C591      1.0  0.90981  0.42542  0.48436  1.0000
  C   C592      1.0  0.95030  0.45507  0.46638  1.0000
  Fe  Fe126     1.0  0.89341  0.60533  0.27564  1.0000
  S   S246      1.0  0.89511  0.59474  0.30688  1.0000
  S   S247      1.0  0.90052  0.64362  0.39111  1.0000
  S   S248      1.0  0.73271  0.63689  0.27012  1.0000
  H   H925      1.0  0.91647  0.40804  0.48482  1.0000
  H   H926      1.0  0.83363  0.60072  0.47368  1.0000
  H   H927      1.0  0.96951  0.47585  0.46556  1.0000
  H   H928      1.0  0.70776  0.55276  0.39644  1.0000
  H   H929      1.0  0.79731  0.54900  0.29479  1.0000
  C   C593      1.0  0.70442  0.56916  0.40461  1.0000
  H   H930      1.0  0.78006  0.59634  0.29159  1.0000
  S   S249      1.0  0.86129  0.57087  0.41520  1.0000
  H   H931      1.0  0.83502  0.57010  0.29386  1.0000
  H   H932      1.0  0.94263  0.49761  0.48219  1.0000
  C   C594      1.0  0.89755  0.60953  0.33007  1.0000
  C   C595      1.0  0.90112  0.63731  0.33343  1.0000
  C   C596      1.0  0.90196  0.64743  0.35216  1.0000
  C   C597      1.0  0.89916  0.62995  0.36772  1.0000
  C   C598      1.0  0.89538  0.60215  0.36429  1.0000
  C   C599      1.0  0.89466  0.59209  0.34563  1.0000
  H   H933      1.0  0.79229  0.65412  0.26823  1.0000
  S   S250      1.0  0.91933  0.37207  0.27040  1.0000
  H   H934      1.0  0.89336  0.58848  0.37607  1.0000
  H   H935      1.0  0.89191  0.57059  0.34326  1.0000
  H   H936      1.0  0.81887  0.59814  0.33742  1.0000
  C   C600      1.0  0.81840  0.58280  0.32626  1.0000
  H   H937      1.0  0.85678  0.62085  0.30350  1.0000
  N   N56       1.0  0.72497  0.59832  0.39980  1.0000
  C   C601      1.0  0.78490  0.59085  0.30599  1.0000
  H   H938      1.0  0.68211  0.56546  0.40154  1.0000
  H   H939      1.0  0.78360  0.60648  0.31619  1.0000
  C   C602      1.0  0.83532  0.62019  0.30355  1.0000
  H   H940      1.0  0.77039  0.62380  0.40047  1.0000
  C   C603      1.0  0.91014  0.35117  0.33414  1.0000
  H   H941      1.0  0.81146  0.57721  0.27829  1.0000
  H   H942      1.0  0.83148  0.62763  0.28958  1.0000
  H   H943      1.0  0.73640  0.62462  0.37540  1.0000
  H   H944      1.0  0.69833  0.61736  0.40854  1.0000
  N   N57       1.0  0.81318  0.59120  0.30719  1.0000
  H   H945      1.0  0.83926  0.58211  0.32738  1.0000
  H   H946      1.0  0.70627  0.56520  0.41989  1.0000
  H   H947      1.0  0.78133  0.64461  0.46109  1.0000
  H   H948      1.0  0.83616  0.63589  0.31454  1.0000
  H   H949      1.0  0.95745  0.43799  0.46600  1.0000
  C   C604      1.0  0.81424  0.57097  0.29291  1.0000
  S   S251      1.0  0.66956  0.65132  0.26795  1.0000
  C   C605      1.0  0.88876  0.49496  0.43452  1.0000
  N   N58       1.0  0.82951  0.59433  0.50345  1.0000
  H   H950      1.0  0.93683  0.45248  0.45335  1.0000
  H   H951      1.0  0.91000  0.47286  0.47059  1.0000
  Fe  Fe127     1.0  0.90366  0.61432  0.46108  1.0000
  S   S252      1.0  0.87224  0.56787  0.46060  1.0000
  Fe  Fe128     1.0  0.89304  0.61684  0.41759  1.0000
  Fe  Fe129     1.0  0.89239  0.56364  0.43423  1.0000
  S   S253      1.0  0.90823  0.53077  0.42842  1.0000
  Fe  Fe130     1.0  0.84415  0.57989  0.44188  1.0000
  S   S254      1.0  0.79650  0.56018  0.44650  1.0000
  S   S255      1.0  0.92560  0.60937  0.43535  1.0000
  S   S256      1.0  0.87406  0.62646  0.44348  1.0000
  C   C606      1.0  0.96433  0.38916  0.50397  1.0000
  H   H952      1.0  0.78898  0.56823  0.48956  1.0000
  S   S257      1.0  0.72150  0.62345  0.46691  1.0000
  H   H953      1.0  0.89721  0.42365  0.49703  1.0000
  H   H954      1.0  0.76770  0.56942  0.30895  1.0000
  C   C607      1.0  0.74215  0.60582  0.46085  1.0000
  C   C608      1.0  0.72974  0.57631  0.45782  1.0000
  C   C609      1.0  0.74672  0.56277  0.45335  1.0000
  C   C610      1.0  0.77616  0.57859  0.45148  1.0000
  C   C611      1.0  0.78849  0.60823  0.45402  1.0000
  C   C612      1.0  0.77160  0.62172  0.45898  1.0000
  H   H955      1.0  0.70710  0.56381  0.45932  1.0000
  H   H956      1.0  0.81098  0.62080  0.45209  1.0000
  C   C613      1.0  0.95355  0.45816  0.50047  1.0000
  H   H957      1.0  0.72430  0.58718  0.37040  1.0000
  H   H958      1.0  0.69878  0.64165  0.50048  1.0000
  H   H959      1.0  0.92367  0.35537  0.32219  1.0000
  Fe  Fe131     1.0  0.87892  0.33716  0.28059  1.0000
  H   H960      1.0  0.89521  0.42121  0.47176  1.0000
  H   H961      1.0  0.91269  0.47565  0.49588  1.0000
  C   C614      1.0  0.84024  0.61315  0.48723  1.0000
  S   S258      1.0  0.85244  0.35787  0.27004  1.0000
  C   C615      1.0  0.92461  0.47598  0.48312  1.0000
  H   H962      1.0  0.69938  0.60052  0.37620  1.0000
  C   C616      1.0  0.79809  0.58137  0.50279  1.0000
  C   C617      1.0  0.88083  0.33443  0.33156  1.0000
  C   C618      1.0  0.89458  0.48577  0.26438  1.0000
  H   H963      1.0  0.86240  0.58067  0.50211  1.0000
  H   H964      1.0  0.66306  0.65298  0.48398  1.0000
  H   H965      1.0  0.89494  0.52700  0.26249  1.0000
  H   H966      1.0  0.98659  0.61009  0.51588  1.0000
  C   C619      1.0  0.95399  0.38758  0.53739  1.0000
  H   H967      1.0  0.93854  0.38104  0.54828  1.0000
  N   N59       1.0  0.97007  0.38283  0.62350  1.0000
  H   H968      1.0  0.83178  0.55739  0.51467  1.0000
  C   C620      1.0  0.94457  0.38130  0.51821  1.0000
  C   C621      1.0  0.97040  0.36460  0.60751  1.0000
  H   H969      1.0  0.94227  0.45660  0.51377  1.0000
  H   H970      1.0  0.95630  0.36461  0.59541  1.0000
  H   H971      1.0  0.99012  0.39665  0.65122  1.0000
  C   C622      1.0  0.95095  0.64834  0.52501  1.0000
  H   H972      1.0  0.96522  0.41320  0.60531  1.0000
  H   H973      1.0  0.83473  0.62883  0.52231  1.0000
  C   C623      1.0  0.84104  0.61125  0.52121  1.0000
  H   H974      1.0  0.83339  0.59782  0.53381  1.0000
  C   C624      1.0  0.97935  0.41221  0.61706  1.0000
  H   H975      1.0  0.98007  0.42689  0.62878  1.0000
  H   H976      1.0  0.93168  0.63528  0.53210  1.0000
  C   C625      1.0  0.98320  0.40196  0.54260  1.0000
  H   H977      1.0  0.98362  0.61746  0.54938  1.0000
  H   H978      1.0  0.92571  0.37165  0.61900  1.0000
  C   C626      1.0  0.94093  0.37185  0.63038  1.0000
  H   H979      1.0  0.94000  0.38527  0.64239  1.0000
  H   H980      1.0  0.98341  0.36102  0.64425  1.0000
  H   H981      1.0  0.98113  0.57077  0.53804  1.0000
  H   H982      1.0  0.66224  0.64708  0.51872  1.0000
  H   H983      1.0  0.93324  0.34970  0.63539  1.0000
  C   C627      1.0  0.98961  0.38282  0.63901  1.0000
  H   H984      1.0  0.78915  0.56719  0.51490  1.0000
  H   H985      1.0  0.86477  0.62113  0.52195  1.0000
  H   H986      1.0  0.96343  0.34218  0.61172  1.0000
  H   H987      1.0  0.99208  0.37237  0.60191  1.0000
  H   H988      1.0  0.92210  0.37003  0.51448  1.0000
  H   H989      1.0  0.97595  0.66475  0.55117  1.0000
  C   C628      1.0  0.96109  0.44692  0.82992  1.0000
  H   H990      1.0  0.97460  0.42543  0.79897  1.0000
  H   H991      1.0  0.95407  0.46174  0.82287  1.0000
  H   H992      1.0  0.94508  0.42477  0.82608  1.0000
  H   H993      1.0  0.96065  0.44999  0.84547  1.0000
  H   H994      1.0  0.98293  0.46242  0.79569  1.0000
  C   C629      1.0  0.98930  0.44771  0.80353  1.0000
  H   H995      1.0  0.98341  0.40945  0.83003  1.0000
  N   N60       1.0  0.98974  0.45210  0.82421  1.0000
  S   S259      1.0  0.95748  0.71986  0.13880  1.0000
  H   H996      1.0  0.87518  0.77406  0.14484  1.0000
  S   S260      1.0  0.71148  0.71385  0.14569  1.0000
  S   S261      1.0  0.98829  0.81545  0.08050  1.0000
  H   H997      1.0  0.76248  0.71624  0.20791  1.0000
  C   C630      1.0  0.69283  0.70122  0.16681  1.0000
  Fe  Fe132     1.0  0.97651  0.76020  0.12085  1.0000
  C   C631      1.0  0.74893  0.70458  0.25450  1.0000
  H   H998      1.0  0.76416  0.69568  0.25792  1.0000
  H   H999      1.0  0.96869  0.73602  0.20852  1.0000
  C   C632      1.0  0.71607  0.96866  0.17502  1.0000
  H   H1000     1.0  0.94415  0.72171  0.05087  1.0000
  H   H1001     1.0  0.95098  0.72763  0.02635  1.0000
  H   H1002     1.0  0.71419  0.94900  0.16762  1.0000
  H   H1003     1.0  0.89715  0.70569  0.15356  1.0000
  C   C633      1.0  0.95198  0.71005  0.16301  1.0000
  C   C634      1.0  0.96410  0.72968  0.17812  1.0000
  C   C635      1.0  0.95883  0.72067  0.19697  1.0000
  C   C636      1.0  0.94114  0.69204  0.20105  1.0000
  H   H1004     1.0  0.68111  0.73528  0.17072  1.0000
  C   C637      1.0  0.93430  0.68141  0.16709  1.0000
  H   H1005     1.0  0.91289  0.73469  0.12559  1.0000
  H   H1006     1.0  0.70002  0.99093  0.14565  1.0000
  H   H1007     1.0  0.90463  0.76398  0.12209  1.0000
  C   C638      1.0  0.68281  0.97262  0.15236  1.0000
  C   C639      1.0  0.89495  0.72591  0.04989  1.0000
  N   N61       1.0  0.74147  0.70199  0.23401  1.0000
  C   C640      1.0  0.76746  0.71775  0.22343  1.0000
  C   C641      1.0  0.93373  0.71995  0.03663  1.0000
  H   H1008     1.0  0.93459  0.75643  0.15665  1.0000
  H   H1009     1.0  0.72989  0.73652  0.23520  1.0000
  H   H1010     1.0  0.92471  0.77998  0.04154  1.0000
  H   H1011     1.0  0.88231  0.73823  0.04988  1.0000
  C   C642      1.0  0.89654  0.74233  0.12791  1.0000
  C   C643      1.0  0.91698  0.76235  0.15878  1.0000
  C   C644      1.0  0.67971  0.71552  0.17616  1.0000
  H   H1012     1.0  0.91381  0.76218  0.17426  1.0000
  S   S262      1.0  0.76134  0.75777  0.11072  1.0000
  H   H1013     1.0  0.88949  0.71140  0.01291  1.0000
  H   H1014     1.0  0.92442  0.78466  0.15413  1.0000
  C   C645      1.0  0.73813  0.80352  0.01983  1.0000
  H   H1015     1.0  0.71595  0.71331  0.21476  1.0000
  C   C646      1.0  0.90426  0.73397  0.01671  1.0000
  H   H1016     1.0  0.66242  0.92710  0.17440  1.0000
  N   N62       1.0  0.89070  0.74264  0.14817  1.0000
  H   H1017     1.0  0.87711  0.72828  0.11932  1.0000
  S   S263      1.0  0.95475  0.74892  0.09198  1.0000
  S   S264      1.0  0.72896  0.74457  0.05956  1.0000
  H   H1018     1.0  0.84705  0.77001  0.07749  1.0000
  C   C647      1.0  0.72540  0.74599  0.02066  1.0000
  H   H1019     1.0  0.67243  0.92373  0.01284  1.0000
  S   S265      1.0  0.93604  0.68176  0.22517  1.0000
  H   H1020     1.0  0.66303  0.97520  0.15001  1.0000
  H   H1021     1.0  0.90432  0.72795  0.06449  1.0000
  C   C648      1.0  0.66601  0.94771  0.18125  1.0000
  N   N63       1.0  0.91736  0.73670  0.03588  1.0000
  H   H1022     1.0  0.77798  0.74074  0.22768  1.0000
  H   H1023     1.0  0.72023  0.72360  0.02092  1.0000
  H   H1024     1.0  0.67043  0.94656  0.19663  1.0000
  H   H1025     1.0  0.98080  0.66593  0.20463  1.0000
  H   H1026     1.0  0.94874  0.76968  0.05389  1.0000
  Fe  Fe133     1.0  0.94818  0.78793  0.09477  1.0000
  S   S266      1.0  0.90462  0.77965  0.08307  1.0000
  S   S267      1.0  0.96765  0.79824  0.12420  1.0000
  Fe  Fe134     1.0  0.78349  0.80415  0.11819  1.0000
  S   S268      1.0  0.83033  0.82744  0.12609  1.0000
  Fe  Fe135     1.0  0.73007  0.81146  0.11376  1.0000
  H   H1027     1.0  0.95237  0.77646  0.02919  1.0000
  S   S269      1.0  0.71108  0.84255  0.11035  1.0000
  H   H1028     1.0  0.70078  0.70175  0.23727  1.0000
  Fe  Fe136     1.0  0.73842  0.76937  0.08762  1.0000
  H   H1029     1.0  0.86020  0.93074  0.12733  1.0000
  S   S270      1.0  0.75139  0.80215  0.13915  1.0000
  S   S271      1.0  0.76382  0.81628  0.09343  1.0000
  H   H1030     1.0  0.80440  0.91262  0.08834  1.0000
  C   C649      1.0  0.69054  0.67542  0.17407  1.0000
  S   S272      1.0  0.76581  0.97139  0.14067  1.0000
  C   C650      1.0  0.72676  0.87831  0.11888  1.0000
  C   C651      1.0  0.72101  0.89847  0.10910  1.0000
  C   C652      1.0  0.73290  0.92710  0.11553  1.0000
  C   C653      1.0  0.75038  0.93572  0.13197  1.0000
  C   C654      1.0  0.75584  0.91548  0.14191  1.0000
  C   C655      1.0  0.74411  0.88688  0.13539  1.0000
  H   H1031     1.0  0.70733  0.89191  0.09644  1.0000
  H   H1032     1.0  0.72846  0.94244  0.10779  1.0000
  H   H1033     1.0  0.76907  0.92192  0.15478  1.0000
  H   H1034     1.0  0.74797  0.87134  0.14332  1.0000
  C   C656      1.0  0.86846  0.75230  0.15045  1.0000
  H   H1035     1.0  0.83193  0.94119  0.12739  1.0000
  H   H1036     1.0  0.70875  0.71181  0.09995  1.0000
  H   H1037     1.0  0.78024  0.87984  0.09854  1.0000
  C   C657      1.0  0.88465  0.79351  0.09524  1.0000
  C   C658      1.0  0.89639  0.81269  0.11061  1.0000
  C   C659      1.0  0.87963  0.82314  0.12003  1.0000
  C   C660      1.0  0.85111  0.81427  0.11419  1.0000
  C   C661      1.0  0.83948  0.79510  0.09884  1.0000
  C   C662      1.0  0.85621  0.78478  0.08939  1.0000
  H   H1038     1.0  0.91843  0.81977  0.11508  1.0000
  H   H1039     1.0  0.88880  0.83815  0.13182  1.0000
  H   H1040     1.0  0.85056  0.94364  0.10614  1.0000
  H   H1041     1.0  0.85326  0.88651  0.10990  1.0000
  H   H1042     1.0  0.66457  0.70519  0.11486  1.0000
  H   H1043     1.0  0.82766  0.88231  0.13870  1.0000
  C   C663      1.0  0.84193  0.93046  0.11875  1.0000
  H   H1044     1.0  0.84831  0.73794  0.14262  1.0000
  H   H1045     1.0  0.78736  0.91327  0.10969  1.0000
  H   H1046     1.0  0.74297  0.82584  0.01961  1.0000
  H   H1047     1.0  0.70388  0.95202  0.02361  1.0000
  N   N64       1.0  0.82122  0.90105  0.11318  1.0000
  C   C664      1.0  0.79732  0.90170  0.10193  1.0000
  H   H1048     1.0  0.82031  0.86537  0.09742  1.0000
  C   C665      1.0  0.73067  0.76168  0.03781  1.0000
  H   H1049     1.0  0.74099  0.80283  0.05035  1.0000
  C   C666      1.0  0.81041  0.88444  0.13036  1.0000
  H   H1050     1.0  0.86096  0.69822  0.14798  1.0000
  H   H1051     1.0  0.70906  0.68586  0.08362  1.0000
  H   H1052     1.0  0.75871  0.72714  0.25967  1.0000
  S   S273      1.0  0.70295  0.76492  0.10621  1.0000
  H   H1053     1.0  0.81766  0.78845  0.09406  1.0000
  H   H1054     1.0  0.87703  0.71308  0.17087  1.0000
  H   H1055     1.0  0.84387  0.89955  0.08869  1.0000
  H   H1056     1.0  0.79387  0.86246  0.12673  1.0000
  H   H1057     1.0  0.68014  0.95294  0.14463  1.0000
  C   C667      1.0  0.73708  0.79054  0.03729  1.0000
  H   H1058     1.0  0.86366  0.75305  0.16558  1.0000
  C   C668      1.0  0.83531  0.88764  0.10175  1.0000
  H   H1059     1.0  0.80081  0.89460  0.13977  1.0000
  H   H1060     1.0  0.97789  0.75174  0.17532  1.0000
  C   C669      1.0  0.88094  0.71363  0.15548  1.0000
  Fe  Fe137     1.0  0.72718  0.75580  0.12991  1.0000
  C   C670      1.0  0.92870  0.67249  0.18593  1.0000
  H   H1061     1.0  0.67103  0.71585  0.08053  1.0000
  H   H1062     1.0  0.78311  0.70908  0.22598  1.0000
  H   H1063     1.0  0.72310  0.66889  0.21247  1.0000
  N   N65       1.0  0.68963  0.97194  0.17271  1.0000
  H   H1064     1.0  0.88008  0.70309  0.04710  1.0000
  H   H1065     1.0  0.89209  0.74668  0.01561  1.0000
  C   C671      1.0  0.72119  0.71396  0.23017  1.0000
  N   N66       1.0  0.66771  0.67752  0.09335  1.0000
  C   C672      1.0  0.93658  0.76701  0.04028  1.0000
  H   H1066     1.0  0.92000  0.69697  0.03339  1.0000
  C   C673      1.0  0.69879  0.68868  0.09646  1.0000
  H   H1067     1.0  0.92466  0.66599  0.15556  1.0000
  C   C674      1.0  0.66420  0.70390  0.19243  1.0000
  H   H1068     1.0  0.67127  0.68985  0.06425  1.0000
  H   H1069     1.0  0.72177  0.96769  0.19018  1.0000
  C   C675      1.0  0.66197  0.67814  0.19973  1.0000
  C   C676      1.0  0.66174  0.69250  0.07752  1.0000
  H   H1070     1.0  0.70428  0.67827  0.10850  1.0000
  C   C677      1.0  0.72832  0.67164  0.22793  1.0000
  H   H1071     1.0  0.73440  0.98684  0.16894  1.0000
  H   H1072     1.0  0.72715  0.67218  0.49104  1.0000
  H   H1073     1.0  0.69149  0.68271  0.47378  1.0000
  H   H1074     1.0  0.72981  0.69260  0.26287  1.0000
  C   C678      1.0  0.67798  0.67590  0.48630  1.0000
  H   H1075     1.0  0.97543  0.66685  0.48092  1.0000
  H   H1076     1.0  0.70154  0.72384  0.50783  1.0000
  N   N67       1.0  0.69518  0.68069  0.50408  1.0000
  H   H1077     1.0  0.66482  0.68768  0.48645  1.0000
  H   H1078     1.0  0.90509  0.66903  0.35464  1.0000
  H   H1079     1.0  0.72852  0.71990  0.49490  1.0000
  C   C679      1.0  0.71406  0.71146  0.50687  1.0000
  C   C680      1.0  0.71245  0.66492  0.50296  1.0000
  C   C681      1.0  0.97547  0.66605  0.49619  1.0000
  H   H1080     1.0  0.72750  0.71587  0.52011  1.0000
  H   H1081     1.0  0.72548  0.66762  0.51620  1.0000
  H   H1082     1.0  0.66198  0.68107  0.52096  1.0000
  C   C682      1.0  0.67616  0.67042  0.52012  1.0000
  H   H1083     1.0  0.68834  0.67445  0.53388  1.0000
  C   C683      1.0  0.97608  0.66500  0.53589  1.0000
  H   H1084     1.0  0.71616  0.85587  0.86446  1.0000
  C   C684      1.0  0.92109  0.76370  0.85590  1.0000
  H   H1085     1.0  0.69297  0.73494  0.86609  1.0000
  Fe  Fe138     1.0  0.98933  0.76342  0.90601  1.0000
  C   C685      1.0  0.67478  0.95130  0.81953  1.0000
  H   H1086     1.0  0.66696  0.83607  0.89082  1.0000
  C   C686      1.0  0.82412  0.99068  0.94432  1.0000
  C   C687      1.0  0.82768  0.78145  0.99883  1.0000
  H   H1087     1.0  0.66897  0.93347  0.82949  1.0000
  H   H1088     1.0  0.66927  0.96740  0.82625  1.0000
  H   H1089     1.0  0.69325  0.78310  0.88096  1.0000
  H   H1090     1.0  0.91102  0.76498  0.84211  1.0000
  C   C688      1.0  0.91738  0.73652  0.88394  1.0000
  N   N68       1.0  0.90344  0.73710  0.86559  1.0000
  H   H1091     1.0  0.72189  0.74664  0.99008  1.0000
  H   H1092     1.0  0.84752  0.79990  0.00425  1.0000
  C   C689      1.0  0.87529  0.73589  0.86889  1.0000
  C   C690      1.0  0.68017  0.82441  0.89034  1.0000
  S   S274      1.0  0.72576  0.74780  0.93846  1.0000
  C   C691      1.0  0.67103  0.72863  0.86169  1.0000
  H   H1093     1.0  0.84686  0.74154  0.93440  1.0000
  H   H1094     1.0  0.81278  0.96811  0.93908  1.0000
  H   H1095     1.0  0.69827  0.96148  0.81832  1.0000
  H   H1096     1.0  0.69939  0.91945  0.97578  1.0000
  H   H1097     1.0  0.92078  0.74176  0.00585  1.0000
  C   C692      1.0  0.66245  0.72304  0.84240  1.0000
  H   H1098     1.0  0.84012  0.78337  0.96213  1.0000
  N   N69       1.0  0.81417  0.78953  0.98289  1.0000
  H   H1099     1.0  0.94247  0.76543  0.85308  1.0000
  Fe  Fe139     1.0  0.74290  0.98912  0.93478  1.0000
  Fe  Fe140     1.0  0.96197  0.80357  0.90847  1.0000
  S   S275      1.0  0.92498  0.81212  0.89858  1.0000
  Fe  Fe141     1.0  0.76711  0.77125  0.92376  1.0000
  H   H1100     1.0  0.70081  0.79161  0.85665  1.0000
  Fe  Fe142     1.0  0.75246  0.81923  0.91266  1.0000
  S   S276      1.0  0.71125  0.79993  0.92717  1.0000
  S   S277      1.0  0.76312  0.86002  0.89725  1.0000
  Fe  Fe143     1.0  0.73525  0.79081  0.95087  1.0000
  H   H1101     1.0  0.66247  0.90165  0.80125  1.0000
  S   S278      1.0  0.77723  0.81374  0.93725  1.0000
  S   S279      1.0  0.74603  0.77868  0.89748  1.0000
  S   S280      1.0  0.74794  0.95238  0.94760  1.0000
  C   C693      1.0  0.75855  0.88562  0.91109  1.0000
  C   C694      1.0  0.75483  0.88211  0.93051  1.0000
  C   C695      1.0  0.75141  0.90270  0.94148  1.0000
  C   C696      1.0  0.75122  0.92668  0.93308  1.0000
  C   C697      1.0  0.75454  0.93009  0.91360  1.0000
  C   C698      1.0  0.75844  0.90966  0.90263  1.0000
  H   H1102     1.0  0.75491  0.86366  0.93716  1.0000
  H   H1103     1.0  0.74888  0.89995  0.95655  1.0000
  H   H1104     1.0  0.75417  0.94842  0.90700  1.0000
  H   H1105     1.0  0.76122  0.91239  0.88759  1.0000
  C   C699      1.0  0.98695  0.73666  0.85472  1.0000
  H   H1106     1.0  0.66230  0.95948  0.99532  1.0000
  C   C700      1.0  0.66801  0.92047  0.79220  1.0000
  C   C701      1.0  0.89058  0.79635  0.90776  1.0000
  C   C702      1.0  0.88180  0.77295  0.91953  1.0000
  H   H1107     1.0  0.77298  0.75526  0.98764  1.0000
  C   C703      1.0  0.83414  0.77030  0.92000  1.0000
  C   C704      1.0  0.84305  0.79396  0.90848  1.0000
  C   C705      1.0  0.87107  0.80674  0.90225  1.0000
  H   H1108     1.0  0.82824  0.80216  0.90411  1.0000
  H   H1109     1.0  0.87766  0.82475  0.89307  1.0000
  C   C706      1.0  0.78808  0.76439  0.97613  1.0000
  H   H1110     1.0  0.98364  0.74437  0.82503  1.0000
  H   H1111     1.0  0.93850  0.73692  0.88208  1.0000
  C   C707      1.0  0.83411  0.79998  0.96732  1.0000
  H   H1112     1.0  0.86395  0.73603  0.85537  1.0000
  H   H1113     1.0  0.79605  0.81853  0.97777  1.0000
  H   H1114     1.0  0.92066  0.75513  0.89314  1.0000
  H   H1115     1.0  0.89658  0.76472  0.92384  1.0000
  S   S281      1.0  0.66951  0.98788  0.88966  1.0000
  H   H1116     1.0  0.67796  0.72510  0.83208  1.0000
  H   H1117     1.0  0.66127  0.98198  0.79439  1.0000
  S   S282      1.0  0.96017  0.76849  0.92717  1.0000
  S   S283      1.0  0.98777  0.72324  0.89246  1.0000
  H   H1118     1.0  0.85026  0.98002  0.91545  1.0000
  H   H1119     1.0  0.83329  0.76419  0.99447  1.0000
  H   H1120     1.0  0.77674  0.76999  0.96462  1.0000
  H   H1121     1.0  0.69124  0.93002  0.78991  1.0000
  C   C708      1.0  0.68565  0.97207  0.99411  1.0000
  H   H1122     1.0  0.74242  0.95807  0.98971  1.0000
  S   S284      1.0  0.79891  0.75306  0.92775  1.0000
  H   H1123     1.0  0.85398  0.81912  0.97177  1.0000
  H   H1124     1.0  0.69084  0.97703  0.78640  1.0000
  N   N70       1.0  0.68213  0.81534  0.87081  1.0000
  C   C709      1.0  0.72643  0.75901  0.00316  1.0000
  H   H1125     1.0  0.79291  0.74730  0.97029  1.0000
  S   S285      1.0  0.73529  0.80580  0.98121  1.0000
  C   C710      1.0  0.73284  0.78789  0.00269  1.0000
  C   C711      1.0  0.73097  0.97135  0.99144  1.0000
  Fe  Fe144     1.0  0.70546  0.75888  0.91315  1.0000
  H   H1126     1.0  0.92096  0.71263  0.85112  1.0000
  H   H1127     1.0  0.70155  0.83875  0.89672  1.0000
  C   C712      1.0  0.70054  0.80075  0.87086  1.0000
  H   H1128     1.0  0.67044  0.80576  0.89965  1.0000
  S   S286      1.0  0.98788  0.79583  0.88645  1.0000
  H   H1129     1.0  0.87737  0.75457  0.87765  1.0000
  C   C713      1.0  0.85362  0.75987  0.92551  1.0000
  H   H1130     1.0  0.88673  0.69191  0.86055  1.0000
  H   H1131     1.0  0.82440  0.80579  0.95493  1.0000
  N   N71       1.0  0.70016  0.95358  0.99335  1.0000
  H   H1132     1.0  0.68116  0.85215  0.85844  1.0000
  C   C714      1.0  0.90000  0.71235  0.85369  1.0000
  H   H1133     1.0  0.74063  0.98563  0.00406  1.0000
  H   H1134     1.0  0.92441  0.78284  0.86458  1.0000
  H   H1135     1.0  0.72287  0.81548  0.87518  1.0000
  H   H1136     1.0  0.82589  0.83165  0.99437  1.0000
  H   H1137     1.0  0.80654  0.98531  0.90778  1.0000
  H   H1138     1.0  0.86147  0.71640  0.87650  1.0000
  C   C715      1.0  0.68865  0.93351  0.97693  1.0000
  C   C716      1.0  0.69450  0.84059  0.85888  1.0000
  H   H1139     1.0  0.88973  0.71213  0.83964  1.0000
  H   H1140     1.0  0.66543  0.91973  0.97782  1.0000
  C   C717      1.0  0.80676  0.81220  0.98933  1.0000
  H   H1141     1.0  0.69201  0.94504  0.96343  1.0000
  H   H1142     1.0  0.97686  0.74950  0.85913  1.0000
  H   H1143     1.0  0.69657  0.83447  0.84410  1.0000
  H   H1144     1.0  0.90443  0.71697  0.89178  1.0000
  H   H1145     1.0  0.79181  0.80502  0.00112  1.0000
  C   C718      1.0  0.66754  0.96596  0.78841  1.0000
  C   C719      1.0  0.99089  0.73375  0.83537  1.0000
  H   H1146     1.0  0.73519  0.98499  0.97884  1.0000
  H   H1147     1.0  0.80780  0.99604  0.95048  1.0000
  S   S287      1.0  0.70232  0.99223  0.93817  1.0000
  H   H1148     1.0  0.81317  0.77361  0.01084  1.0000
  S   S288      1.0  0.66087  0.73216  0.89978  1.0000
  H   H1149     1.0  0.68913  0.98497  0.98118  1.0000
  H   H1150     1.0  0.83927  0.99180  0.95600  1.0000
  H   H1151     1.0  0.69373  0.98736  0.00641  1.0000
  N   N72       1.0  0.65984  0.94137  0.80087  1.0000
  C   C720      1.0  0.69547  0.93743  0.01094  1.0000
  H   H1152     1.0  0.70630  0.92339  0.01087  1.0000
