data_image0
_chemical_formula_structural       FeS2FeS2FeHFeS3HSCH2FeS2FeCFeHS2HC2FeHCH2NC2H4NFeHC5H2C6H4SH3CHCSC2H2SHSCHFeCH5NHCS2HCSHNCH5CSCH2C2HCHCHC3H7CHCHC2H3C2HCH2CFeCHSHS2HC2FeC2HC2HCH2CSHS2Fe2H3CH2C2HNHCH3C2H2CH4FeNHCH3CHCNH2C5H2CHSH4SH2NCSH3C4H3FeS2HC2HCH7CH4CSH3CH4SC3HCH2SHC2H2FeS3HFeHSCHFe3SHC2HC7H4CHFeSHCHCSHFeSHS2C2SHNH5CFeHSFeS2HCH2S2CHNH4SCHCH2SH2C6H4CSHC2H6CSH3CNHFeNFeCH3FeH2CSH2C3HSCH2CH2C2H5NH4CH6CNS2H2CH4FeSCH2C2HC2SHC3H3SFeC2HCHSHC2FeH2CH2CHNHCH2CH2CHCSH2FeH2CH3C2NH4C2HC2SH2SHC2HNH2SCSH4SHCHFeH2CHCH3CHC2H2CH2CHC3SH3CH2C2SHS2FeSHFeSFeSH3CSHFeHC2HSCH6CHC6H5SH2NH3NHCHSHCSC2H2NH9FeCFeCHC3SCSCH3S2HCH3CFeH2S2C2H3FeCFeHCFeNC2HC2FeS2H2Fe2S2H2C2HCSHCFeC3H3CH2C3H2CSNH2CH3C2HCHCSHCHCHCHCH5CHSHCHC2H6C2H3CH3SH2SH2FeC2HC2SHC2N2FeNHCHCHCHFeCH2SHCFeCSH6CH2SH2CHCFeCSH5C2H3NSHCHCS2CHCSCH4CH2C2SH8NCFeCH3SHFeSHCH3NHC2SH2FeSHFeS2FeSFeS3H4SC3FeCHSCH2CHSNSCHCH2C6H4CH4C3H2CHSCH4S2HSHCHC3FeC2H3NC4H13C2H2FeSH2CH2CH2CHSC2HC2HCHFeH2C2H3CNHFeC2HSHCFeS2FeHFeHS2HSH2FeS4FeSHSH3C3HC2H2CHC6H7C2HFeSH4FeNH2CH2C2H2CH2SHCHFeH2CHFeHNC4HFeH3C2SH5CH2NCSH2C2HSFeSHC4H2CHCNSC2SHNHCHSHSCFeH2CSHCHC3HC2HC2H4CH3CH3CH3C2H2SCSH4SC2FeCHCHFeHC2HNHSHCHSH3CNC2HC2H4CFeNHCFeH2C2SCHCH2NFeH5CH2S2H5SH4C2H2C2HCHCHCFeSHCNSH3FeHCFeS2FeSHSH2CSHC2SH2CH2C2H2NSH2C3SH2C2H2S2H2C2HCFeS2HC2FeSFeSHSH3C2H3C7H3CFeCH3CH3NCHC2SHNSH2CHSFeHCH2C3H4SH3FeH2CHCH2CH2CH3CHCH4CHCHFeH2CHFeH3CH2CH2C3H2CH3SCSFeHC2SCFeCHC4HSCH2FeH2CHSH2SH2C2HCH2SC2H4CHNH4CSC2H2SFeHSHCH3CH2SHNH2C2H2CFeH4CNH3C2H4NHC3HCHSCHC2HCH4CH2NHCHSCHC2HC2H3SH4NH8CH2C4H2CHCH2S2HSHFeSFe2SFeSHSHCSC2FeNC6H4CHFeHSC2FeSFeHC2HSNHCSC2H2SH5C2H2NC4H9FeHS2HCHC2HCH2CSCSH2CFeH2C2H4CH3NH3CSH3FeS2HSCNFe3SC3HC2S2HCHCHSHC2SH2C2FeC2H6SH7C2H2SH2SC2HCH3CH2CHCHC2HCS2CH3CH4C2H2SH2CNH2C2H2CNCSCSH2C2H4CH2CHCHSCH4SC2FeCSCFeHC2FeHSHS2CH2NSH3SC2HCSHFeSCSC2H2C2HCHFeCFeHNH4CSH5C3HSH3CFeS2FeS2FeCFeS3H2CH3CSNSHFeHNH2C10HC3HC2HS2H2C2H2CH2SH3CH2SFeCSCHCH2CHNHCH3C2HFeHNCH3CH8CH2CH4CHC2H3SCH3C2FeCH2CH2C2FeCHCH2CHCHCHSH4FeHCH2NH2C
_chemical_formula_sum              "Fe128 S256 H1024 C640 N64"
_cell_length_a       67.7027
_cell_length_b       41.6765
_cell_length_c       27.173
_cell_angle_alpha    90.0799
_cell_angle_beta     90.109
_cell_angle_gamma    90.0863

_space_group_name_H-M_alt    "P 1"
_space_group_IT_number       1

loop_
  _space_group_symop_operation_xyz
  'x, y, z'

loop_
  _atom_site_type_symbol
  _atom_site_label
  _atom_site_symmetry_multiplicity
  _atom_site_fract_x
  _atom_site_fract_y
  _atom_site_fract_z
  _atom_site_occupancy
  Fe  Fe1       1.0  0.29178  0.23021  0.37080  1.0000
  S   S1        1.0  0.30843  0.20492  0.31117  1.0000
  S   S2        1.0  0.26234  0.25082  0.34919  1.0000
  Fe  Fe2       1.0  0.32433  0.21997  0.44600  1.0000
  S   S3        1.0  0.34383  0.19406  0.39240  1.0000
  S   S4        1.0  0.33133  0.22629  0.52646  1.0000
  Fe  Fe3       1.0  0.33447  0.23266  0.33967  1.0000
  H   H1        1.0  0.16027  0.53277  0.22075  1.0000
  Fe  Fe4       1.0  0.31606  0.16884  0.36902  1.0000
  S   S5        1.0  0.31579  0.11494  0.36145  1.0000
  S   S6        1.0  0.31717  0.26081  0.39518  1.0000
  S   S7        1.0  0.29715  0.19171  0.42682  1.0000
  H   H2        1.0  0.14821  0.55704  0.14351  1.0000
  S   S8        1.0  0.11941  0.51111  0.58837  1.0000
  C   C1        1.0  0.11595  0.55229  0.57746  1.0000
  H   H3        1.0  0.26373  0.09456  0.37099  1.0000
  H   H4        1.0  0.29396  0.27625  0.27986  1.0000
  Fe  Fe5       1.0  0.16525  0.21967  0.47422  1.0000
  S   S9        1.0  0.15648  0.25870  0.42189  1.0000
  S   S10       1.0  0.19623  0.21111  0.50074  1.0000
  Fe  Fe6       1.0  0.13057  0.26534  0.47208  1.0000
  C   C2        1.0  0.13099  0.43120  0.55103  1.0000
  Fe  Fe7       1.0  0.13818  0.22060  0.38552  1.0000
  H   H5        1.0  0.17991  0.41368  0.54436  1.0000
  S   S11       1.0  0.14066  0.22913  0.52791  1.0000
  S   S12       1.0  0.14935  0.18086  0.43307  1.0000
  H   H6        1.0  0.11975  0.29112  0.23887  1.0000
  C   C3        1.0  0.35480  0.29729  0.28379  1.0000
  C   C4        1.0  0.12793  0.10648  0.49159  1.0000
  Fe  Fe8       1.0  0.17639  0.47866  0.14165  1.0000
  H   H7        1.0  0.26835  0.11584  0.22454  1.0000
  C   C5        1.0  0.12275  0.31424  0.58235  1.0000
  H   H8        1.0  0.29366  0.33585  0.17826  1.0000
  H   H9        1.0  0.29183  0.30534  0.32825  1.0000
  N   N1        1.0  0.12355  0.31945  0.30431  1.0000
  C   C6        1.0  0.34324  0.11968  0.57792  1.0000
  C   C7        1.0  0.16466  0.41807  0.53050  1.0000
  H   H10       1.0  0.29009  0.36315  0.30847  1.0000
  H   H11       1.0  0.14201  0.28298  0.27229  1.0000
  H   H12       1.0  0.16538  0.43814  0.50355  1.0000
  H   H13       1.0  0.33639  0.14296  0.56694  1.0000
  N   N2        1.0  0.27116  0.55752  0.26351  1.0000
  Fe  Fe9       1.0  0.14685  0.42416  0.13839  1.0000
  H   H14       1.0  0.12181  0.27622  0.34692  1.0000
  C   C8        1.0  0.10964  0.11588  0.51047  1.0000
  C   C9        1.0  0.30031  0.09735  0.31715  1.0000
  C   C10       1.0  0.35065  0.34792  0.32699  1.0000
  C   C11       1.0  0.27025  0.55582  0.31780  1.0000
  C   C12       1.0  0.28988  0.11599  0.28318  1.0000
  H   H15       1.0  0.25122  0.56268  0.20246  1.0000
  H   H16       1.0  0.29195  0.14168  0.28230  1.0000
  C   C13       1.0  0.24392  0.24262  0.39269  1.0000
  C   C14       1.0  0.24896  0.23379  0.44071  1.0000
  C   C15       1.0  0.23418  0.22473  0.47405  1.0000
  C   C16       1.0  0.21434  0.22445  0.45944  1.0000
  C   C17       1.0  0.20930  0.23354  0.41149  1.0000
  C   C18       1.0  0.22407  0.24279  0.37824  1.0000
  H   H17       1.0  0.26423  0.23418  0.45236  1.0000
  H   H18       1.0  0.23813  0.21792  0.51121  1.0000
  H   H19       1.0  0.19411  0.23266  0.39953  1.0000
  H   H20       1.0  0.22014  0.24932  0.34096  1.0000
  S   S13       1.0  0.11146  0.23027  0.43147  1.0000
  H   H21       1.0  0.11413  0.15464  0.34002  1.0000
  H   H22       1.0  0.26768  0.13143  0.44120  1.0000
  H   H23       1.0  0.31431  0.30216  0.29373  1.0000
  C   C19       1.0  0.25195  0.13868  0.43634  1.0000
  H   H24       1.0  0.29056  0.37616  0.24537  1.0000
  C   C20       1.0  0.15032  0.39818  0.60576  1.0000
  S   S14       1.0  0.11884  0.31560  0.48100  1.0000
  C   C21       1.0  0.13310  0.07392  0.49037  1.0000
  C   C22       1.0  0.26873  0.32242  0.25219  1.0000
  H   H25       1.0  0.24403  0.09999  0.32770  1.0000
  H   H26       1.0  0.29583  0.52516  0.25786  1.0000
  S   S15       1.0  0.26811  0.39514  0.15685  1.0000
  H   H27       1.0  0.26404  0.29801  0.24022  1.0000
  S   S16       1.0  0.32528  0.38689  0.15482  1.0000
  C   C23       1.0  0.13992  0.33335  0.33344  1.0000
  H   H28       1.0  0.13122  0.10714  0.59814  1.0000
  Fe  Fe10      1.0  0.13384  0.49184  0.11559  1.0000
  C   C24       1.0  0.12137  0.56527  0.53190  1.0000
  H   H29       1.0  0.13070  0.45249  0.52632  1.0000
  H   H30       1.0  0.15033  0.31440  0.34605  1.0000
  H   H31       1.0  0.24274  0.12326  0.46057  1.0000
  H   H32       1.0  0.14527  0.37585  0.58701  1.0000
  H   H33       1.0  0.28529  0.55334  0.33410  1.0000
  N   N3        1.0  0.24575  0.13613  0.38428  1.0000
  H   H34       1.0  0.26179  0.32689  0.28869  1.0000
  C   C25       1.0  0.29916  0.31849  0.20625  1.0000
  S   S17       1.0  0.31583  0.53161  0.13795  1.0000
  S   S18       1.0  0.35097  0.45457  0.15254  1.0000
  H   H35       1.0  0.29550  0.29390  0.19313  1.0000
  C   C26       1.0  0.25060  0.42494  0.16893  1.0000
  S   S19       1.0  0.13722  0.37767  0.17215  1.0000
  H   H36       1.0  0.26253  0.34011  0.22563  1.0000
  N   N4        1.0  0.29048  0.32493  0.25514  1.0000
  C   C27       1.0  0.29797  0.30117  0.29081  1.0000
  H   H37       1.0  0.12015  0.43583  0.58092  1.0000
  H   H38       1.0  0.31558  0.32051  0.20729  1.0000
  H   H39       1.0  0.31240  0.36038  0.27341  1.0000
  H   H40       1.0  0.24163  0.53957  0.25277  1.0000
  H   H41       1.0  0.27086  0.46431  0.15845  1.0000
  C   C28       1.0  0.29608  0.35758  0.27136  1.0000
  S   S20       1.0  0.13821  0.21453  0.30321  1.0000
  C   C29       1.0  0.24813  0.10265  0.36725  1.0000
  H   H42       1.0  0.25647  0.18296  0.36504  1.0000
  H   H43       1.0  0.13825  0.12421  0.47860  1.0000
  C   C30       1.0  0.27663  0.10133  0.25031  1.0000
  C   C31       1.0  0.11465  0.32885  0.13483  1.0000
  H   H44       1.0  0.12635  0.55427  0.21664  1.0000
  C   C32       1.0  0.34232  0.56249  0.26280  1.0000
  H   H45       1.0  0.28138  0.52861  0.20299  1.0000
  C   C33       1.0  0.35661  0.34776  0.23925  1.0000
  H   H46       1.0  0.25062  0.16378  0.45005  1.0000
  C   C34       1.0  0.35275  0.36469  0.28264  1.0000
  C   C35       1.0  0.23100  0.41623  0.17796  1.0000
  C   C36       1.0  0.22485  0.14588  0.37952  1.0000
  H   H47       1.0  0.12764  0.22576  0.20240  1.0000
  H   H48       1.0  0.18106  0.55926  0.22055  1.0000
  H   H49       1.0  0.20135  0.43305  0.18997  1.0000
  H   H50       1.0  0.13433  0.34581  0.36693  1.0000
  H   H51       1.0  0.11946  0.12619  0.38795  1.0000
  H   H52       1.0  0.12297  0.14560  0.14919  1.0000
  H   H53       1.0  0.23877  0.08584  0.38881  1.0000
  C   C37       1.0  0.25818  0.15748  0.35399  1.0000
  H   H54       1.0  0.12796  0.55007  0.50414  1.0000
  C   C38       1.0  0.25097  0.56071  0.24332  1.0000
  H   H55       1.0  0.14852  0.35099  0.31135  1.0000
  C   C39       1.0  0.11418  0.32901  0.54132  1.0000
  C   C40       1.0  0.12819  0.35329  0.12448  1.0000
  H   H56       1.0  0.22694  0.39114  0.18008  1.0000
  H   H57       1.0  0.16509  0.55762  0.27342  1.0000
  H   H58       1.0  0.27409  0.15150  0.35814  1.0000
  C   C41       1.0  0.33334  0.08796  0.12839  1.0000
  C   C42       1.0  0.35160  0.31425  0.32755  1.0000
  H   H59       1.0  0.13194  0.29327  0.57756  1.0000
  C   C43       1.0  0.28045  0.52805  0.24392  1.0000
  H   H60       1.0  0.21976  0.14462  0.34059  1.0000
  H   H61       1.0  0.34678  0.09243  0.22185  1.0000
  C   C44       1.0  0.35774  0.31415  0.23988  1.0000
  Fe  Fe11      1.0  0.32143  0.47903  0.14854  1.0000
  C   C45       1.0  0.21650  0.43992  0.18314  1.0000
  H   H62       1.0  0.13990  0.31909  0.23644  1.0000
  S   S21       1.0  0.30825  0.45121  0.21086  1.0000
  H   H63       1.0  0.34783  0.36093  0.36073  1.0000
  S   S22       1.0  0.35395  0.25515  0.28240  1.0000
  S   S23       1.0  0.34897  0.40641  0.28134  1.0000
  H   H64       1.0  0.25434  0.15578  0.31423  1.0000
  C   C46       1.0  0.33269  0.07912  0.21617  1.0000
  C   C47       1.0  0.35662  0.22692  0.54045  1.0000
  Fe  Fe12      1.0  0.29823  0.41728  0.15215  1.0000
  C   C48       1.0  0.32659  0.55594  0.18315  1.0000
  C   C49       1.0  0.33557  0.54250  0.22467  1.0000
  H   H65       1.0  0.33697  0.51672  0.22784  1.0000
  C   C50       1.0  0.24127  0.48114  0.17152  1.0000
  C   C51       1.0  0.25580  0.45744  0.16643  1.0000
  H   H66       1.0  0.15989  0.39611  0.51016  1.0000
  C   C52       1.0  0.22156  0.47234  0.17902  1.0000
  H   H67       1.0  0.27199  0.50615  0.25422  1.0000
  H   H68       1.0  0.22267  0.17102  0.39225  1.0000
  C   C53       1.0  0.13168  0.30244  0.26111  1.0000
  S   S24       1.0  0.10952  0.52720  0.12835  1.0000
  H   H69       1.0  0.34884  0.55206  0.29545  1.0000
  S   S25       1.0  0.20299  0.50144  0.17683  1.0000
  S   S26       1.0  0.14813  0.46982  0.18188  1.0000
  Fe  Fe13      1.0  0.12394  0.19314  0.48228  1.0000
  Fe  Fe14      1.0  0.33645  0.42304  0.20909  1.0000
  H   H70       1.0  0.34983  0.30144  0.36180  1.0000
  H   H71       1.0  0.24516  0.50613  0.16710  1.0000
  H   H72       1.0  0.21497  0.13043  0.40204  1.0000
  C   C54       1.0  0.16539  0.55697  0.23248  1.0000
  H   H73       1.0  0.11826  0.36317  0.26447  1.0000
  H   H74       1.0  0.26127  0.53498  0.33021  1.0000
  C   C55       1.0  0.11235  0.29662  0.33516  1.0000
  C   C56       1.0  0.11024  0.34532  0.28752  1.0000
  H   H75       1.0  0.34346  0.10411  0.54460  1.0000
  N   N5        1.0  0.15096  0.42552  0.57121  1.0000
  H   H76       1.0  0.15824  0.47581  0.57262  1.0000
  C   C57       1.0  0.11206  0.13904  0.12018  1.0000
  H   H77       1.0  0.32045  0.09666  0.22050  1.0000
  H   H78       1.0  0.34735  0.10187  0.13125  1.0000
  H   H79       1.0  0.12558  0.41016  0.52962  1.0000
  C   C58       1.0  0.11517  0.21923  0.27461  1.0000
  C   C59       1.0  0.11420  0.22481  0.22387  1.0000
  H   H80       1.0  0.33338  0.10830  0.60560  1.0000
  H   H81       1.0  0.10979  0.32491  0.17211  1.0000
  C   C60       1.0  0.15780  0.45457  0.59749  1.0000
  H   H82       1.0  0.32090  0.10536  0.13074  1.0000
  H   H83       1.0  0.17282  0.45127  0.61332  1.0000
  H   H84       1.0  0.13610  0.36239  0.89833  1.0000
  H   H85       1.0  0.12926  0.08637  0.08294  1.0000
  Fe  Fe15      1.0  0.33748  0.42043  0.09792  1.0000
  N   N6        1.0  0.12154  0.13594  0.07142  1.0000
  H   H86       1.0  0.14349  0.10613  0.03653  1.0000
  C   C61       1.0  0.13144  0.16645  0.05867  1.0000
  H   H87       1.0  0.25771  0.45966  0.01459  1.0000
  H   H88       1.0  0.14475  0.37727  0.06768  1.0000
  H   H89       1.0  0.13062  0.34452  0.99996  1.0000
  C   C62       1.0  0.11990  0.32724  0.62968  1.0000
  H   H90       1.0  0.11293  0.08190  0.62622  1.0000
  C   C63       1.0  0.12615  0.34011  0.03750  1.0000
  N   N7        1.0  0.22892  0.43748  0.01468  1.0000
  H   H91       1.0  0.16509  0.39321  0.62202  1.0000
  H   H92       1.0  0.35165  0.22632  0.61865  1.0000
  C   C64       1.0  0.12258  0.56326  0.05006  1.0000
  C   C65       1.0  0.13623  0.10970  0.07290  1.0000
  C   C66       1.0  0.13408  0.35872  0.07582  1.0000
  C   C67       1.0  0.21923  0.46575  0.03692  1.0000
  C   C68       1.0  0.12635  0.09662  0.63372  1.0000
  H   H93       1.0  0.25239  0.43615  0.06808  1.0000
  H   H94       1.0  0.20362  0.40681  0.02360  1.0000
  C   C69       1.0  0.12815  0.38561  0.89453  1.0000
  H   H95       1.0  0.14299  0.17287  0.08620  1.0000
  S   S27       1.0  0.30898  0.44720  0.08951  1.0000
  H   H96       1.0  0.13870  0.16498  0.02201  1.0000
  H   H97       1.0  0.11450  0.38062  0.80187  1.0000
  H   H98       1.0  0.20325  0.46676  0.02710  1.0000
  H   H99       1.0  0.12690  0.31615  0.66117  1.0000
  S   S28       1.0  0.16234  0.50459  0.07874  1.0000
  H   H100      1.0  0.23348  0.46083  0.94513  1.0000
  H   H101      1.0  0.22068  0.40649  0.07446  1.0000
  N   N8        1.0  0.14216  0.07719  0.65642  1.0000
  C   C70       1.0  0.10847  0.35500  0.63609  1.0000
  S   S29       1.0  0.11776  0.46321  0.71262  1.0000
  H   H102      1.0  0.14809  0.11451  0.10036  1.0000
  H   H103      1.0  0.22613  0.48855  0.02439  1.0000
  H   H104      1.0  0.22024  0.46522  0.07775  1.0000
  C   C71       1.0  0.15972  0.09758  0.66502  1.0000
  C   C72       1.0  0.21958  0.40789  0.03359  1.0000
  C   C73       1.0  0.22664  0.43875  0.96061  1.0000
  C   C74       1.0  0.14882  0.46619  0.92845  1.0000
  H   H105      1.0  0.16536  0.10790  0.62993  1.0000
  H   H106      1.0  0.14766  0.46088  0.62823  1.0000
  H   H107      1.0  0.13995  0.40283  0.63674  1.0000
  Fe  Fe16      1.0  0.15970  0.45603  0.04405  1.0000
  S   S30       1.0  0.16737  0.44856  0.96455  1.0000
  S   S31       1.0  0.12980  0.44531  0.07557  1.0000
  H   H108      1.0  0.11296  0.12551  0.99674  1.0000
  C   C75       1.0  0.14919  0.46316  0.87714  1.0000
  C   C76       1.0  0.13357  0.47529  0.84864  1.0000
  H   H109      1.0  0.13291  0.48531  0.99043  1.0000
  C   C77       1.0  0.13315  0.48228  0.95099  1.0000
  H   H110      1.0  0.13024  0.54207  0.03751  1.0000
  H   H111      1.0  0.25799  0.41655  0.01134  1.0000
  H   H112      1.0  0.16141  0.45105  0.85950  1.0000
  H   H113      1.0  0.21074  0.43884  0.94976  1.0000
  H   H114      1.0  0.17195  0.08365  0.68213  1.0000
  H   H115      1.0  0.13387  0.47272  0.80916  1.0000
  H   H116      1.0  0.23368  0.41770  0.94256  1.0000
  C   C78       1.0  0.25016  0.43750  0.02760  1.0000
  H   H117      1.0  0.35467  0.16839  0.63360  1.0000
  H   H118      1.0  0.13094  0.08351  0.72992  1.0000
  H   H119      1.0  0.11437  0.34170  0.83002  1.0000
  H   H120      1.0  0.22678  0.38603  0.01843  1.0000
  C   C79       1.0  0.11222  0.31621  0.04781  1.0000
  S   S32       1.0  0.35288  0.39914  0.03242  1.0000
  H   H121      1.0  0.12070  0.18670  0.05728  1.0000
  H   H122      1.0  0.35410  0.13370  0.67242  1.0000
  H   H123      1.0  0.12912  0.39817  0.93074  1.0000
  C   C80       1.0  0.11766  0.49069  0.87144  1.0000
  H   H124      1.0  0.12183  0.11690  0.65787  1.0000
  H   H125      1.0  0.15625  0.11802  0.68997  1.0000
  H   H126      1.0  0.13636  0.40040  0.86735  1.0000
  H   H127      1.0  0.33282  0.07684  0.09110  1.0000
  S   S33       1.0  0.17652  0.43084  0.10347  1.0000
  C   C81       1.0  0.11759  0.49442  0.92261  1.0000
  C   C82       1.0  0.11109  0.56212  0.09281  1.0000
  C   C83       1.0  0.14736  0.78579  0.59616  1.0000
  H   H128      1.0  0.10829  0.88414  0.50420  1.0000
  C   C84       1.0  0.35384  0.88074  0.17327  1.0000
  H   H129      1.0  0.31152  0.02720  0.19140  1.0000
  H   H130      1.0  0.24791  0.80219  0.24289  1.0000
  S   S34       1.0  0.33211  0.71064  0.33202  1.0000
  H   H131      1.0  0.22369  0.81128  0.26515  1.0000
  C   C85       1.0  0.33160  0.60920  0.21713  1.0000
  C   C86       1.0  0.32498  0.58928  0.17896  1.0000
  H   H132      1.0  0.33021  0.63493  0.21384  1.0000
  H   H133      1.0  0.31824  0.59970  0.14657  1.0000
  Fe  Fe17      1.0  0.27955  0.67308  0.32808  1.0000
  S   S35       1.0  0.29975  0.67234  0.26306  1.0000
  S   S36       1.0  0.24957  0.65034  0.31872  1.0000
  S   S37       1.0  0.28447  0.72527  0.34475  1.0000
  H   H134      1.0  0.27616  0.60848  0.26186  1.0000
  Fe  Fe18      1.0  0.32339  0.65963  0.31746  1.0000
  H   H135      1.0  0.17574  0.61837  0.21526  1.0000
  S   S38       1.0  0.30252  0.65572  0.38102  1.0000
  C   C87       1.0  0.18913  0.92445  0.13421  1.0000
  H   H136      1.0  0.25360  0.69363  0.40099  1.0000
  Fe  Fe19      1.0  0.15522  0.70874  0.43257  1.0000
  Fe  Fe20      1.0  0.12531  0.67583  0.36744  1.0000
  Fe  Fe21      1.0  0.11818  0.67902  0.47659  1.0000
  S   S39       1.0  0.14315  0.65859  0.43201  1.0000
  H   H137      1.0  0.16805  0.75054  0.53279  1.0000
  C   C88       1.0  0.28303  0.58572  0.24907  1.0000
  C   C89       1.0  0.11812  0.59789  0.52184  1.0000
  H   H138      1.0  0.17018  0.98139  0.12560  1.0000
  C   C90       1.0  0.33992  0.59579  0.25946  1.0000
  C   C91       1.0  0.23201  0.66874  0.35682  1.0000
  C   C92       1.0  0.23805  0.69001  0.39371  1.0000
  C   C93       1.0  0.20381  0.70159  0.41326  1.0000
  C   C94       1.0  0.19770  0.67978  0.37707  1.0000
  C   C95       1.0  0.21182  0.66334  0.34884  1.0000
  C   C96       1.0  0.13228  0.57818  0.22753  1.0000
  H   H139      1.0  0.18212  0.67583  0.37050  1.0000
  H   H140      1.0  0.20709  0.64680  0.32045  1.0000
  H   H141      1.0  0.16543  0.84315  0.60007  1.0000
  H   H142      1.0  0.31997  0.66053  0.47925  1.0000
  C   C97       1.0  0.33462  0.70533  0.49469  1.0000
  H   H143      1.0  0.13791  0.76774  0.57706  1.0000
  Fe  Fe22      1.0  0.30943  0.70782  0.39191  1.0000
  S   S40       1.0  0.13966  0.72425  0.36409  1.0000
  H   H144      1.0  0.15994  0.61630  0.26831  1.0000
  C   C98       1.0  0.33278  0.67190  0.49548  1.0000
  H   H145      1.0  0.20457  0.93368  0.13266  1.0000
  C   C99       1.0  0.34734  0.65310  0.51819  1.0000
  S   S41       1.0  0.31685  0.72911  0.46542  1.0000
  H   H146      1.0  0.18719  0.83154  0.56664  1.0000
  Fe  Fe23      1.0  0.30647  0.72339  0.28343  1.0000
  S   S42       1.0  0.13194  0.72781  0.48291  1.0000
  H   H147      1.0  0.18832  0.77758  0.52497  1.0000
  S   S43       1.0  0.11077  0.85949  0.60415  1.0000
  S   S44       1.0  0.34582  0.62033  0.30974  1.0000
  C   C100      1.0  0.23295  0.79189  0.24907  1.0000
  C   C101      1.0  0.22398  0.70654  0.42170  1.0000
  S   S45       1.0  0.18655  0.72385  0.44704  1.0000
  H   H148      1.0  0.35255  0.74573  0.51573  1.0000
  N   N9        1.0  0.15292  0.58249  0.21109  1.0000
  H   H149      1.0  0.22678  0.78558  0.21232  1.0000
  H   H150      1.0  0.23250  0.79194  0.34794  1.0000
  H   H151      1.0  0.18992  0.89824  0.14150  1.0000
  H   H152      1.0  0.22875  0.72311  0.45004  1.0000
  H   H153      1.0  0.18640  0.90961  0.22996  1.0000
  C   C102      1.0  0.15682  0.92932  0.17061  1.0000
  Fe  Fe24      1.0  0.26460  0.99998  0.18564  1.0000
  H   H154      1.0  0.31444  0.87590  0.18040  1.0000
  S   S46       1.0  0.25720  0.05022  0.20986  1.0000
  Fe  Fe25      1.0  0.26720  0.92808  0.20611  1.0000
  S   S47       1.0  0.27810  0.91697  0.13019  1.0000
  S   S48       1.0  0.26277  0.89039  0.26456  1.0000
  H   H155      1.0  0.17749  0.94801  0.25038  1.0000
  C   C103      1.0  0.32082  0.87146  0.14326  1.0000
  H   H156      1.0  0.13760  0.80582  0.60794  1.0000
  H   H157      1.0  0.19272  0.98597  0.15977  1.0000
  S   S49       1.0  0.28823  0.96897  0.21799  1.0000
  S   S50       1.0  0.24243  0.96000  0.18152  1.0000
  C   C104      1.0  0.17493  0.82232  0.58994  1.0000
  H   H158      1.0  0.20370  0.76773  0.30546  1.0000
  N   N10       1.0  0.16340  0.79737  0.56386  1.0000
  H   H159      1.0  0.20154  0.94469  0.22300  1.0000
  H   H160      1.0  0.14550  0.79350  0.49852  1.0000
  H   H161      1.0  0.25702  0.78349  0.32679  1.0000
  H   H162      1.0  0.14538  0.83232  0.52687  1.0000
  S   S51       1.0  0.33004  0.96493  0.12787  1.0000
  C   C105      1.0  0.31316  0.04567  0.16216  1.0000
  H   H163      1.0  0.35509  0.81623  0.17727  1.0000
  C   C106      1.0  0.21389  0.75005  0.28831  1.0000
  H   H164      1.0  0.16921  0.98992  0.18999  1.0000
  H   H165      1.0  0.15301  0.05938  0.58707  1.0000
  S   S52       1.0  0.11227  0.90132  0.12172  1.0000
  H   H166      1.0  0.18366  0.75975  0.58406  1.0000
  H   H167      1.0  0.11773  0.75943  0.24877  1.0000
  C   C107      1.0  0.29469  0.79590  0.23481  1.0000
  C   C108      1.0  0.28777  0.81449  0.19558  1.0000
  C   C109      1.0  0.27801  0.84355  0.20456  1.0000
  C   C110      1.0  0.27529  0.85432  0.25281  1.0000
  C   C111      1.0  0.28199  0.83550  0.29213  1.0000
  C   C112      1.0  0.29178  0.80637  0.28315  1.0000
  H   H168      1.0  0.28969  0.80615  0.15816  1.0000
  H   H169      1.0  0.27212  0.85712  0.17415  1.0000
  H   H170      1.0  0.27988  0.84370  0.32957  1.0000
  H   H171      1.0  0.29733  0.79231  0.31361  1.0000
  C   C113      1.0  0.17645  0.77023  0.55098  1.0000
  S   S53       1.0  0.12754  0.01040  0.51002  1.0000
  H   H172      1.0  0.14439  0.59945  0.13940  1.0000
  C   C114      1.0  0.28509  0.04923  0.28329  1.0000
  C   C115      1.0  0.34016  0.82708  0.17343  1.0000
  H   H173      1.0  0.34829  0.88540  0.21116  1.0000
  H   H174      1.0  0.28308  0.02352  0.28409  1.0000
  H   H175      1.0  0.16655  0.81924  0.49256  1.0000
  H   H176      1.0  0.26356  0.57800  0.33362  1.0000
  H   H177      1.0  0.26220  0.74839  0.25416  1.0000
  H   H178      1.0  0.11215  0.83215  0.12253  1.0000
  C   C116      1.0  0.10953  0.61766  0.55745  1.0000
  S   S54       1.0  0.12127  0.99476  0.12507  1.0000
  H   H179      1.0  0.13096  0.58032  0.26823  1.0000
  H   H180      1.0  0.14996  0.93328  0.13380  1.0000
  H   H181      1.0  0.24789  0.71729  0.28292  1.0000
  C   C117      1.0  0.16029  0.61416  0.22744  1.0000
  N   N11       1.0  0.23390  0.76360  0.28172  1.0000
  H   H182      1.0  0.24139  0.73127  0.22273  1.0000
  Fe  Fe26      1.0  0.11524  0.73958  0.41419  1.0000
  N   N12       1.0  0.17736  0.94138  0.17190  1.0000
  Fe  Fe27      1.0  0.29722  0.96054  0.13972  1.0000
  C   C118      1.0  0.15374  0.58063  0.15683  1.0000
  H   H183      1.0  0.14732  0.94170  0.19809  1.0000
  H   H184      1.0  0.21423  0.72867  0.31281  1.0000
  H   H185      1.0  0.12234  0.59660  0.21118  1.0000
  Fe  Fe28      1.0  0.11258  0.98092  0.56831  1.0000
  H   H186      1.0  0.15606  0.90310  0.17801  1.0000
  H   H187      1.0  0.30611  0.04941  0.34297  1.0000
  C   C119      1.0  0.24188  0.77337  0.33016  1.0000
  S   S55       1.0  0.12334  0.64859  0.29632  1.0000
  H   H188      1.0  0.20737  0.74226  0.25263  1.0000
  H   H189      1.0  0.31233  0.03295  0.12614  1.0000
  C   C120      1.0  0.34866  0.04074  0.16280  1.0000
  C   C121      1.0  0.12017  0.05070  0.50901  1.0000
  C   C122      1.0  0.24690  0.73910  0.25942  1.0000
  H   H190      1.0  0.33060  0.80924  0.15417  1.0000
  S   S56       1.0  0.30691  0.75978  0.22220  1.0000
  C   C123      1.0  0.17740  0.97618  0.16148  1.0000
  H   H191      1.0  0.11716  0.65832  0.19279  1.0000
  H   H192      1.0  0.24278  0.75265  0.35582  1.0000
  C   C124      1.0  0.35102  0.71988  0.51667  1.0000
  H   H193      1.0  0.24353  0.58257  0.25794  1.0000
  H   H194      1.0  0.15096  0.63391  0.21262  1.0000
  C   C125      1.0  0.18606  0.93565  0.22103  1.0000
  C   C126      1.0  0.15486  0.81121  0.51850  1.0000
  H   H195      1.0  0.34576  0.62726  0.51900  1.0000
  H   H196      1.0  0.29811  0.58465  0.26532  1.0000
  H   H197      1.0  0.16908  0.58349  0.14293  1.0000
  H   H198      1.0  0.33398  0.83012  0.21113  1.0000
  H   H199      1.0  0.34774  0.02130  0.19083  1.0000
  N   N13       1.0  0.34092  0.85793  0.14663  1.0000
  H   H200      1.0  0.12211  0.60763  0.48640  1.0000
  H   H201      1.0  0.28472  0.58721  0.20839  1.0000
  H   H202      1.0  0.34870  0.02876  0.12609  1.0000
  H   H203      1.0  0.32086  0.89480  0.12356  1.0000
  C   C127      1.0  0.29804  0.06394  0.31678  1.0000
  H   H204      1.0  0.31061  0.85514  0.12306  1.0000
  H   H205      1.0  0.33131  0.06133  0.24654  1.0000
  H   H206      1.0  0.14732  0.06677  0.47598  1.0000
  H   H207      1.0  0.35453  0.90435  0.15405  1.0000
  H   H208      1.0  0.10922  0.81707  0.24202  1.0000
  H   H209      1.0  0.30016  0.06192  0.16470  1.0000
  C   C128      1.0  0.27421  0.06794  0.25039  1.0000
  N   N14       1.0  0.33197  0.06338  0.16740  1.0000
  S   S57       1.0  0.13211  0.94932  0.61418  1.0000
  S   S58       1.0  0.11206  0.65297  0.99984  1.0000
  H   H210      1.0  0.15329  0.77429  0.63001  1.0000
  H   H211      1.0  0.13219  0.59237  0.98891  1.0000
  C   C129      1.0  0.12366  0.59172  0.02255  1.0000
  H   H212      1.0  0.35379  0.74415  0.61653  1.0000
  H   H213      1.0  0.32368  0.71349  0.71993  1.0000
  H   H214      1.0  0.11014  0.85450  0.82527  1.0000
  H   H215      1.0  0.33918  0.83612  0.07486  1.0000
  Fe  Fe29      1.0  0.13220  0.00707  0.04968  1.0000
  S   S59       1.0  0.16100  0.03368  0.04562  1.0000
  C   C130      1.0  0.32729  0.93256  0.03983  1.0000
  H   H216      1.0  0.35585  0.69889  0.75762  1.0000
  H   H217      1.0  0.32599  0.90497  0.97265  1.0000
  C   C131      1.0  0.11525  0.98706  0.79601  1.0000
  C   C132      1.0  0.33182  0.73000  0.69496  1.0000
  H   H218      1.0  0.11727  0.99731  0.92027  1.0000
  C   C133      1.0  0.33547  0.91770  0.99820  1.0000
  C   C134      1.0  0.11102  0.99268  0.88431  1.0000
  S   S60       1.0  0.12225  0.96067  0.01533  1.0000
  H   H219      1.0  0.32301  0.73224  0.66043  1.0000
  C   C135      1.0  0.21543  0.99636  0.06481  1.0000
  C   C136      1.0  0.33956  0.94860  0.07322  1.0000
  C   C137      1.0  0.11486  0.90828  0.87840  1.0000
  H   H220      1.0  0.13881  0.99833  0.84662  1.0000
  H   H221      1.0  0.11045  0.92507  0.84856  1.0000
  H   H222      1.0  0.14664  0.04917  0.72199  1.0000
  S   S61       1.0  0.13083  0.98553  0.74473  1.0000
  Fe  Fe30      1.0  0.25471  0.95174  0.10610  1.0000
  C   C138      1.0  0.18171  0.00868  0.04054  1.0000
  C   C139      1.0  0.21407  0.96660  0.04121  1.0000
  H   H223      1.0  0.16679  0.97206  0.99857  1.0000
  C   C140      1.0  0.35072  0.68621  0.66093  1.0000
  H   H224      1.0  0.15903  0.03481  0.63951  1.0000
  S   S62       1.0  0.23326  0.93856  0.04629  1.0000
  H   H225      1.0  0.18263  0.92753  0.09692  1.0000
  C   C141      1.0  0.12319  0.99338  0.84262  1.0000
  C   C142      1.0  0.19668  0.95824  0.01621  1.0000
  Fe  Fe31      1.0  0.11472  0.96901  0.67721  1.0000
  H   H226      1.0  0.31154  0.93130  0.04625  1.0000
  H   H227      1.0  0.10949  0.87248  0.95949  1.0000
  C   C143      1.0  0.18036  0.97897  0.01677  1.0000
  H   H228      1.0  0.19563  0.93525  0.99783  1.0000
  H   H229      1.0  0.34981  0.87554  0.07562  1.0000
  C   C144      1.0  0.19939  0.01762  0.06367  1.0000
  H   H230      1.0  0.34338  0.66829  0.68507  1.0000
  N   N15       1.0  0.35195  0.71809  0.68469  1.0000
  H   H231      1.0  0.11709  0.92286  0.91236  1.0000
  C   C145      1.0  0.34879  0.85263  0.09653  1.0000
  H   H232      1.0  0.12939  0.89792  0.86792  1.0000
  H   H233      1.0  0.33225  0.75408  0.71277  1.0000
  C   C146      1.0  0.14746  0.05047  0.62311  1.0000
  H   H234      1.0  0.12075  0.84838  0.91250  1.0000
  H   H235      1.0  0.18153  0.81282  0.62452  1.0000
  C   C147      1.0  0.13512  0.06412  0.70379  1.0000
  H   H236      1.0  0.13450  0.03493  0.61500  1.0000
  C   C148      1.0  0.11313  0.61891  0.03763  1.0000
  S   S63       1.0  0.27493  0.99442  0.10774  1.0000
  H   H237      1.0  0.12192  0.04849  0.69861  1.0000
  H   H238      1.0  0.22884  0.00300  0.08404  1.0000
  Fe  Fe32      1.0  0.10875  0.95064  0.08910  1.0000
  H   H239      1.0  0.20048  0.04055  0.08222  1.0000
  H   H240      1.0  0.34222  0.68724  0.62582  1.0000
  C   C149      1.0  0.35585  0.91933  0.98938  1.0000
  H   H241      1.0  0.54793  0.22571  0.32484  1.0000
  H   H242      1.0  0.50354  0.18255  0.57601  1.0000
  H   H243      1.0  0.56867  0.20878  0.35654  1.0000
  C   C150      1.0  0.59574  0.06909  0.51334  1.0000
  C   C151      1.0  0.59285  0.55740  0.22673  1.0000
  N   N16       1.0  0.36335  0.12459  0.59790  1.0000
  H   H244      1.0  0.60710  0.55599  0.20646  1.0000
  H   H245      1.0  0.56616  0.22114  0.24600  1.0000
  H   H246      1.0  0.40540  0.28382  0.58190  1.0000
  H   H247      1.0  0.55245  0.27385  0.27200  1.0000
  C   C152      1.0  0.59690  0.52663  0.59991  1.0000
  C   C153      1.0  0.59447  0.25582  0.33491  1.0000
  H   H248      1.0  0.58371  0.31431  0.12514  1.0000
  C   C154      1.0  0.59975  0.31752  0.19343  1.0000
  C   C155      1.0  0.37083  0.22675  0.50320  1.0000
  S   S64       1.0  0.58707  0.35155  0.21401  1.0000
  H   H249      1.0  0.55891  0.24663  0.37604  1.0000
  H   H250      1.0  0.59195  0.11246  0.44089  1.0000
  S   S65       1.0  0.60048  0.16549  0.36034  1.0000
  H   H251      1.0  0.36639  0.22894  0.46516  1.0000
  C   C156      1.0  0.60423  0.27517  0.13330  1.0000
  C   C157      1.0  0.39090  0.22346  0.51514  1.0000
  H   H252      1.0  0.42928  0.30157  0.57505  1.0000
  N   N17       1.0  0.57578  0.24837  0.30906  1.0000
  H   H253      1.0  0.59933  0.19313  0.53488  1.0000
  H   H254      1.0  0.36916  0.16269  0.54673  1.0000
  S   S66       1.0  0.42174  0.21355  0.57815  1.0000
  C   C158      1.0  0.56220  0.23169  0.34309  1.0000
  S   S67       1.0  0.54502  0.18527  0.59506  1.0000
  H   H255      1.0  0.58710  0.20467  0.27771  1.0000
  H   H256      1.0  0.40183  0.22296  0.48613  1.0000
  H   H257      1.0  0.35888  0.36058  0.20518  1.0000
  H   H258      1.0  0.58130  0.54706  0.20208  1.0000
  S   S68       1.0  0.56895  0.43390  0.15839  1.0000
  H   H259      1.0  0.59405  0.54156  0.25953  1.0000
  C   C159      1.0  0.41463  0.30476  0.59289  1.0000
  H   H260      1.0  0.39082  0.14581  0.57430  1.0000
  Fe  Fe33      1.0  0.58031  0.38356  0.14976  1.0000
  H   H261      1.0  0.58383  0.18108  0.45448  1.0000
  H   H262      1.0  0.60180  0.23364  0.34853  1.0000
  C   C160      1.0  0.57991  0.22750  0.26623  1.0000
  H   H263      1.0  0.46130  0.42162  0.12617  1.0000
  C   C161      1.0  0.60173  0.09163  0.43286  1.0000
  H   H264      1.0  0.56324  0.29495  0.32327  1.0000
  H   H265      1.0  0.59198  0.27171  0.36722  1.0000
  H   H266      1.0  0.58591  0.08944  0.52360  1.0000
  C   C162      1.0  0.59976  0.18262  0.45737  1.0000
  H   H267      1.0  0.60515  0.26805  0.31016  1.0000
  C   C163      1.0  0.56651  0.27849  0.29204  1.0000
  C   C164      1.0  0.39674  0.21970  0.56423  1.0000
  H   H268      1.0  0.40763  0.32659  0.57705  1.0000
  H   H269      1.0  0.57633  0.29178  0.26645  1.0000
  C   C165      1.0  0.59497  0.30363  0.14811  1.0000
  H   H270      1.0  0.58999  0.23944  0.23960  1.0000
  H   H271      1.0  0.58239  0.51694  0.60739  1.0000
  C   C166      1.0  0.50733  0.16289  0.60022  1.0000
  H   H272      1.0  0.37293  0.07675  0.57992  1.0000
  C   C167      1.0  0.59875  0.55667  0.57724  1.0000
  C   C168      1.0  0.36260  0.22535  0.58973  1.0000
  C   C169      1.0  0.38260  0.22117  0.60163  1.0000
  S   S69       1.0  0.59554  0.14070  0.60982  1.0000
  H   H273      1.0  0.36048  0.30117  0.20606  1.0000
  H   H274      1.0  0.37769  0.12420  0.52717  1.0000
  H   H275      1.0  0.47728  0.14688  0.60807  1.0000
  C   C170      1.0  0.37582  0.13992  0.55995  1.0000
  H   H276      1.0  0.59257  0.07295  0.41446  1.0000
  H   H277      1.0  0.43952  0.37411  0.11580  1.0000
  C   C171      1.0  0.52699  0.15787  0.61383  1.0000
  C   C172      1.0  0.37199  0.09334  0.61192  1.0000
  S   S70       1.0  0.40948  0.34943  0.79344  1.0000
  H   H278      1.0  0.52075  0.09269  0.68775  1.0000
  S   S71       1.0  0.41058  0.19046  0.71674  1.0000
  S   S72       1.0  0.47835  0.09690  0.68051  1.0000
  Fe  Fe34      1.0  0.45313  0.13115  0.68739  1.0000
  S   S73       1.0  0.43899  0.13320  0.76137  1.0000
  H   H279      1.0  0.45505  0.36077  0.06618  1.0000
  Fe  Fe35      1.0  0.41079  0.13656  0.71858  1.0000
  S   S74       1.0  0.60099  0.08077  0.71954  1.0000
  Fe  Fe36      1.0  0.44050  0.18634  0.75210  1.0000
  S   S75       1.0  0.45501  0.21854  0.80727  1.0000
  H   H280      1.0  0.56678  0.37405  0.80245  1.0000
  H   H281      1.0  0.51618  0.17377  0.77491  1.0000
  H   H282      1.0  0.58825  0.41966  0.78412  1.0000
  C   C173      1.0  0.50618  0.40767  0.91461  1.0000
  S   S76       1.0  0.45612  0.40145  0.76095  1.0000
  H   H283      1.0  0.43496  0.40172  0.98631  1.0000
  Fe  Fe37      1.0  0.55113  0.42293  0.09030  1.0000
  H   H284      1.0  0.49087  0.18500  0.76443  1.0000
  C   C174      1.0  0.51136  0.23716  0.79211  1.0000
  C   C175      1.0  0.42616  0.27788  0.66617  1.0000
  H   H285      1.0  0.59513  0.50945  0.91838  1.0000
  S   S77       1.0  0.57537  0.16371  0.71497  1.0000
  C   C176      1.0  0.36230  0.14546  0.64184  1.0000
  H   H286      1.0  0.47645  0.40918  0.07544  1.0000
  H   H287      1.0  0.57467  0.31625  0.66603  1.0000
  H   H288      1.0  0.41400  0.41903  0.05586  1.0000
  H   H289      1.0  0.42918  0.45417  0.06068  1.0000
  H   H290      1.0  0.52139  0.22566  0.81933  1.0000
  H   H291      1.0  0.58400  0.10562  0.86902  1.0000
  C   C177      1.0  0.55441  0.38760  0.78523  1.0000
  H   H292      1.0  0.50633  0.17405  0.71361  1.0000
  C   C178      1.0  0.42192  0.31324  0.80298  1.0000
  C   C179      1.0  0.41151  0.28430  0.79992  1.0000
  C   C180      1.0  0.42164  0.25509  0.80281  1.0000
  C   C181      1.0  0.44212  0.25482  0.80920  1.0000
  C   C182      1.0  0.45246  0.28375  0.81408  1.0000
  C   C183      1.0  0.44236  0.31301  0.81067  1.0000
  H   H293      1.0  0.39566  0.28445  0.79483  1.0000
  H   H294      1.0  0.41355  0.23278  0.80057  1.0000
  H   H295      1.0  0.46830  0.28362  0.81932  1.0000
  H   H296      1.0  0.45044  0.33534  0.81332  1.0000
  H   H297      1.0  0.42513  0.42924  0.11379  1.0000
  S   S78       1.0  0.56007  0.37116  0.08725  1.0000
  H   H298      1.0  0.38891  0.33211  0.65583  1.0000
  H   H299      1.0  0.54123  0.46592  0.77378  1.0000
  N   N18       1.0  0.44518  0.40961  0.06022  1.0000
  H   H300      1.0  0.39736  0.31166  0.70971  1.0000
  H   H301      1.0  0.53384  0.20974  0.68858  1.0000
  H   H302      1.0  0.57668  0.26186  0.70234  1.0000
  N   N19       1.0  0.51223  0.22081  0.74384  1.0000
  H   H303      1.0  0.53249  0.37883  0.91980  1.0000
  C   C184      1.0  0.49872  0.23689  0.70895  1.0000
  H   H304      1.0  0.57516  0.42972  0.72899  1.0000
  S   S79       1.0  0.42487  0.13040  0.64460  1.0000
  H   H305      1.0  0.52564  0.43194  0.78552  1.0000
  C   C185      1.0  0.55716  0.42990  0.84564  1.0000
  S   S80       1.0  0.50146  0.39705  0.85311  1.0000
  C   C186      1.0  0.50615  0.18692  0.74954  1.0000
  C   C187      1.0  0.58334  0.31230  0.69898  1.0000
  H   H306      1.0  0.54329  0.21060  0.75029  1.0000
  H   H307      1.0  0.53764  0.24741  0.71915  1.0000
  N   N20       1.0  0.41646  0.30708  0.64702  1.0000
  H   H308      1.0  0.38701  0.21915  0.63967  1.0000
  H   H309      1.0  0.56913  0.41656  0.86492  1.0000
  H   H310      1.0  0.41771  0.55381  0.75574  1.0000
  H   H311      1.0  0.50304  0.26236  0.70299  1.0000
  H   H312      1.0  0.45081  0.43586  0.99360  1.0000
  H   H313      1.0  0.49616  0.23641  0.80774  1.0000
  H   H314      1.0  0.51569  0.26286  0.78909  1.0000
  H   H315      1.0  0.55427  0.38118  0.74542  1.0000
  H   H316      1.0  0.54038  0.37876  0.80189  1.0000
  Fe  Fe38      1.0  0.58439  0.38947  0.03925  1.0000
  C   C188      1.0  0.58574  0.52956  0.09164  1.0000
  Fe  Fe39      1.0  0.42703  0.18407  0.64595  1.0000
  C   C189      1.0  0.42845  0.33554  0.66013  1.0000
  H   H317      1.0  0.45679  0.07584  0.90555  1.0000
  C   C190      1.0  0.53264  0.22222  0.72468  1.0000
  C   C191      1.0  0.45626  0.07703  0.86461  1.0000
  C   C192      1.0  0.51465  0.42597  0.01205  1.0000
  S   S81       1.0  0.59432  0.37501  0.69050  1.0000
  C   C193      1.0  0.53191  0.13211  0.64448  1.0000
  S   S82       1.0  0.38525  0.10570  0.74123  1.0000
  C   C194      1.0  0.58473  0.28141  0.71903  1.0000
  H   H318      1.0  0.44050  0.55279  0.82822  1.0000
  H   H319      1.0  0.46110  0.39620  0.99484  1.0000
  H   H320      1.0  0.59958  0.10080  0.06465  1.0000
  S   S83       1.0  0.45691  0.18431  0.68112  1.0000
  S   S84       1.0  0.59042  0.36574  0.96697  1.0000
  H   H321      1.0  0.57554  0.50953  0.09251  1.0000
  C   C195      1.0  0.40767  0.53793  0.77711  1.0000
  H   H322      1.0  0.46545  0.44824  0.07538  1.0000
  H   H323      1.0  0.49875  0.22468  0.67240  1.0000
  H   H324      1.0  0.43014  0.33791  0.70078  1.0000
  C   C196      1.0  0.59387  0.33771  0.72017  1.0000
  Fe  Fe40      1.0  0.42976  0.39074  0.80783  1.0000
  H   H325      1.0  0.40541  0.41572  0.91274  1.0000
  H   H326      1.0  0.39806  0.49805  0.85097  1.0000
  S   S85       1.0  0.59474  0.21734  0.64033  1.0000
  S   S86       1.0  0.44549  0.39755  0.87958  1.0000
  C   C197      1.0  0.53998  0.43947  0.76911  1.0000
  C   C198      1.0  0.60773  0.08158  0.08202  1.0000
  H   H327      1.0  0.48325  0.23676  0.72293  1.0000
  H   H328      1.0  0.54014  0.39547  0.00475  1.0000
  H   H329      1.0  0.53916  0.43426  0.72896  1.0000
  Fe  Fe41      1.0  0.57332  0.17668  0.63511  1.0000
  C   C199      1.0  0.52284  0.39549  0.93857  1.0000
  Fe  Fe42      1.0  0.59316  0.44643  0.10559  1.0000
  H   H330      1.0  0.44348  0.09247  0.85440  1.0000
  C   C200      1.0  0.39262  0.46942  0.00153  1.0000
  Fe  Fe43      1.0  0.59892  0.20136  0.71823  1.0000
  N   N21       1.0  0.55675  0.42259  0.79241  1.0000
  C   C201      1.0  0.52714  0.40484  0.98697  1.0000
  C   C202      1.0  0.46546  0.56561  0.74082  1.0000
  H   H331      1.0  0.57822  0.45929  0.77631  1.0000
  C   C203      1.0  0.39657  0.31010  0.66890  1.0000
  C   C204      1.0  0.57541  0.43335  0.76960  1.0000
  Fe  Fe44      1.0  0.43579  0.44869  0.87312  1.0000
  S   S87       1.0  0.41770  0.44056  0.80536  1.0000
  S   S88       1.0  0.42332  0.47663  0.93665  1.0000
  H   H332      1.0  0.39595  0.52787  0.89786  1.0000
  H   H333      1.0  0.38708  0.28911  0.65951  1.0000
  Fe  Fe45      1.0  0.59978  0.13107  0.69026  1.0000
  Fe  Fe46      1.0  0.44540  0.45232  0.76430  1.0000
  S   S89       1.0  0.44130  0.48165  0.69581  1.0000
  S   S90       1.0  0.46269  0.46513  0.83207  1.0000
  H   H334      1.0  0.55941  0.45593  0.85265  1.0000
  H   H335      1.0  0.57730  0.08621  0.81209  1.0000
  C   C205      1.0  0.49793  0.43811  0.98811  1.0000
  C   C206      1.0  0.57898  0.56027  0.07893  1.0000
  H   H336      1.0  0.54300  0.42310  0.86336  1.0000
  C   C207      1.0  0.58895  0.08790  0.84100  1.0000
  S   S91       1.0  0.57439  0.44053  0.03825  1.0000
  H   H337      1.0  0.36896  0.46260  0.05371  1.0000
  C   C208      1.0  0.49725  0.11800  0.65101  1.0000
  Fe  Fe47      1.0  0.47094  0.41309  0.83281  1.0000
  C   C209      1.0  0.44801  0.52215  0.70011  1.0000
  C   C210      1.0  0.43976  0.54422  0.66716  1.0000
  C   C211      1.0  0.46090  0.53287  0.73690  1.0000
  H   H338      1.0  0.44054  0.27336  0.64768  1.0000
  H   H339      1.0  0.46759  0.51592  0.76182  1.0000
  H   H340      1.0  0.39671  0.49277  0.01575  1.0000
  C   C212      1.0  0.38214  0.40892  0.96541  1.0000
  H   H341      1.0  0.37812  0.38550  0.95127  1.0000
  H   H342      1.0  0.37948  0.52852  0.84577  1.0000
  C   C213      1.0  0.39764  0.42605  0.94361  1.0000
  C   C214      1.0  0.40306  0.45614  0.96196  1.0000
  C   C215      1.0  0.37698  0.45231  0.02320  1.0000
  H   H343      1.0  0.42976  0.53597  0.63867  1.0000
  H   H344      1.0  0.48086  0.43866  0.92120  1.0000
  C   C216      1.0  0.59662  0.27590  0.76027  1.0000
  S   S92       1.0  0.60107  0.23666  0.78066  1.0000
  N   N22       1.0  0.40911  0.54457  0.83046  1.0000
  H   H345      1.0  0.42905  0.27975  0.70634  1.0000
  H   H346      1.0  0.37729  0.15135  0.65620  1.0000
  C   C217      1.0  0.39498  0.52397  0.85734  1.0000
  H   H347      1.0  0.42147  0.35811  0.64687  1.0000
  H   H348      1.0  0.48852  0.45513  0.00674  1.0000
  H   H349      1.0  0.43102  0.54187  0.88786  1.0000
  C   C218      1.0  0.44204  0.37595  0.07542  1.0000
  C   C219      1.0  0.49367  0.42892  0.93951  1.0000
  H   H350      1.0  0.41682  0.25626  0.66022  1.0000
  C   C220      1.0  0.37183  0.42188  0.00536  1.0000
  H   H351      1.0  0.46990  0.08941  0.85180  1.0000
  C   C221      1.0  0.44816  0.41085  0.00642  1.0000
  S   S93       1.0  0.51983  0.43714  0.07316  1.0000
  H   H352      1.0  0.42891  0.36532  0.05664  1.0000
  C   C222      1.0  0.51701  0.11208  0.66302  1.0000
  H   H353      1.0  0.39243  0.54173  0.76300  1.0000
  C   C223      1.0  0.46282  0.42271  0.08545  1.0000
  H   H354      1.0  0.54715  0.12771  0.65420  1.0000
  C   C224      1.0  0.42764  0.42887  0.07334  1.0000
  H   H355      1.0  0.43326  0.51223  0.84077  1.0000
  C   C225      1.0  0.42938  0.53770  0.84755  1.0000
  H   H356      1.0  0.41188  0.51270  0.76838  1.0000
  H   H357      1.0  0.60522  0.50170  0.00562  1.0000
  H   H358      1.0  0.36315  0.08136  0.64119  1.0000
  H   H359      1.0  0.59995  0.26387  0.09913  1.0000
  H   H360      1.0  0.44353  0.33412  0.64412  1.0000
  C   C226      1.0  0.60562  0.52495  0.10359  1.0000
  H   H361      1.0  0.60238  0.09782  0.82290  1.0000
  S   S94       1.0  0.60572  0.39676  0.10118  1.0000
  H   H362      1.0  0.59691  0.37370  0.86391  1.0000
  C   C227      1.0  0.49248  0.14291  0.61872  1.0000
  H   H363      1.0  0.60559  0.31412  0.03440  1.0000
  C   C228      1.0  0.60601  0.30175  0.78352  1.0000
  C   C229      1.0  0.60459  0.33266  0.76351  1.0000
  H   H364      1.0  0.41321  0.07091  0.68226  1.0000
  H   H365      1.0  0.56352  0.56398  0.07045  1.0000
  H   H366      1.0  0.60319  0.29802  0.94762  1.0000
  H   H367      1.0  0.38715  0.09638  0.62704  1.0000
  H   H368      1.0  0.60492  0.07668  0.92976  1.0000
  H   H369      1.0  0.60209  0.55634  0.97355  1.0000
  C   C230      1.0  0.60799  0.38806  0.93488  1.0000
  C   C231      1.0  0.60784  0.38777  0.88349  1.0000
  H   H370      1.0  0.60804  0.25619  0.01226  1.0000
  H   H371      1.0  0.36967  0.60982  0.39949  1.0000
  H   H372      1.0  0.55692  0.58167  0.24554  1.0000
  C   C232      1.0  0.39932  0.64111  0.35364  1.0000
  H   H373      1.0  0.58285  0.63594  0.20470  1.0000
  H   H374      1.0  0.41456  0.68072  0.42228  1.0000
  H   H375      1.0  0.58663  0.82824  0.18162  1.0000
  S   S95       1.0  0.56024  0.65335  0.49328  1.0000
  H   H376      1.0  0.48335  0.74169  0.60442  1.0000
  H   H377      1.0  0.54377  0.63287  0.60357  1.0000
  S   S96       1.0  0.59220  0.71184  0.47393  1.0000
  H   H378      1.0  0.53395  0.59474  0.58557  1.0000
  H   H379      1.0  0.37631  0.62206  0.46068  1.0000
  Fe  Fe48      1.0  0.40890  0.66887  0.59798  1.0000
  C   C233      1.0  0.58985  0.81179  0.15038  1.0000
  C   C234      1.0  0.57976  0.68896  0.26574  1.0000
  H   H380      1.0  0.50157  0.71147  0.46043  1.0000
  C   C235      1.0  0.59070  0.70645  0.23122  1.0000
  C   C236      1.0  0.38218  0.61818  0.42296  1.0000
  S   S97       1.0  0.43997  0.65226  0.58483  1.0000
  H   H381      1.0  0.51005  0.62146  0.52948  1.0000
  C   C237      1.0  0.60670  0.72516  0.24666  1.0000
  C   C238      1.0  0.52503  0.72048  0.51251  1.0000
  N   N23       1.0  0.39122  0.64776  0.40310  1.0000
  N   N24       1.0  0.58813  0.59082  0.24082  1.0000
  Fe  Fe49      1.0  0.57250  0.69518  0.53488  1.0000
  N   N25       1.0  0.51205  0.62941  0.60759  1.0000
  H   H382      1.0  0.53665  0.71468  0.48673  1.0000
  C   C239      1.0  0.37606  0.67314  0.39944  1.0000
  H   H383      1.0  0.57447  0.60154  0.17116  1.0000
  C   C240      1.0  0.58635  0.61058  0.19597  1.0000
  H   H384      1.0  0.58658  0.70583  0.19274  1.0000
  C   C241      1.0  0.58532  0.68889  0.31536  1.0000
  H   H385      1.0  0.60094  0.62901  0.28356  1.0000
  Fe  Fe50      1.0  0.58223  0.66693  0.43523  1.0000
  C   C242      1.0  0.49012  0.72543  0.53123  1.0000
  H   H386      1.0  0.40615  0.66291  0.33727  1.0000
  H   H387      1.0  0.52051  0.65925  0.54698  1.0000
  S   S98       1.0  0.57271  0.66353  0.35614  1.0000
  H   H388      1.0  0.56703  0.67525  0.25393  1.0000
  C   C243      1.0  0.60134  0.70760  0.33092  1.0000
  Fe  Fe51      1.0  0.58516  0.62572  0.52661  1.0000
  C   C244      1.0  0.50521  0.71880  0.49759  1.0000
  S   S99       1.0  0.59577  0.66650  0.57308  1.0000
  H   H389      1.0  0.58630  0.04971  0.49768  1.0000
  H   H390      1.0  0.59640  0.87353  0.12646  1.0000
  H   H391      1.0  0.39308  0.59829  0.42524  1.0000
  H   H392      1.0  0.58075  0.78974  0.15536  1.0000
  H   H393      1.0  0.58150  0.77294  0.54518  1.0000
  H   H394      1.0  0.49789  0.58398  0.59390  1.0000
  C   C245      1.0  0.59536  0.78686  0.55074  1.0000
  H   H395      1.0  0.36354  0.66550  0.37556  1.0000
  H   H396      1.0  0.59409  0.73356  0.60763  1.0000
  S   S100      1.0  0.46543  0.71956  0.51422  1.0000
  H   H397      1.0  0.40157  0.66406  0.47375  1.0000
  H   H398      1.0  0.37848  0.71250  0.55402  1.0000
  C   C246      1.0  0.51467  0.73738  0.59373  1.0000
  H   H399      1.0  0.49441  0.65304  0.55245  1.0000
  C   C247      1.0  0.36579  0.70103  0.53828  1.0000
  Fe  Fe52      1.0  0.44703  0.70460  0.57863  1.0000
  C   C248      1.0  0.36403  0.66762  0.53911  1.0000
  S   S101      1.0  0.55407  0.72752  0.58205  1.0000
  H   H400      1.0  0.60560  0.80432  0.15381  1.0000
  H   H401      1.0  0.38222  0.69566  0.38377  1.0000
  H   H402      1.0  0.38752  0.63280  0.32789  1.0000
  H   H403      1.0  0.56520  0.61648  0.27875  1.0000
  H   H404      1.0  0.60035  0.61077  0.17477  1.0000
  C   C249      1.0  0.50907  0.64125  0.55689  1.0000
  C   C250      1.0  0.60767  0.74846  0.60989  1.0000
  H   H405      1.0  0.60612  0.77855  0.52258  1.0000
  H   H406      1.0  0.41885  0.63985  0.44049  1.0000
  H   H407      1.0  0.60233  0.05968  0.54801  1.0000
  N   N26       1.0  0.60321  0.78268  0.60113  1.0000
  S   S102      1.0  0.38251  0.64350  0.56540  1.0000
  H   H408      1.0  0.59199  0.81248  0.54292  1.0000
  C   C251      1.0  0.52970  0.72912  0.56092  1.0000
  H   H409      1.0  0.41079  0.62203  0.35491  1.0000
  C   C252      1.0  0.40727  0.65858  0.43624  1.0000
  S   S103      1.0  0.60638  0.63555  0.46494  1.0000
  S   S104      1.0  0.41571  0.72070  0.58501  1.0000
  C   C253      1.0  0.60409  0.60383  0.27232  1.0000
  H   H410      1.0  0.36977  0.67905  0.43602  1.0000
  C   C254      1.0  0.49489  0.73532  0.57898  1.0000
  S   S105      1.0  0.57750  0.57845  0.56123  1.0000
  C   C255      1.0  0.56926  0.59153  0.26808  1.0000
  H   H411      1.0  0.36921  0.87152  0.17630  1.0000
  H   H412      1.0  0.57016  0.57734  0.30269  1.0000
  H   H413      1.0  0.36313  0.05307  0.16745  1.0000
  H   H414      1.0  0.56156  0.85543  0.12896  1.0000
  C   C256      1.0  0.53195  0.61504  0.61183  1.0000
  H   H415      1.0  0.60574  0.70757  0.36915  1.0000
  H   H416      1.0  0.60579  0.58962  0.30672  1.0000
  C   C257      1.0  0.59896  0.85555  0.09683  1.0000
  C   C258      1.0  0.51028  0.65650  0.64251  1.0000
  S   S106      1.0  0.45376  0.71157  0.65885  1.0000
  H   H417      1.0  0.47019  1.00000  0.84282  1.0000
  H   H418      1.0  0.42171  0.84150  0.63559  1.0000
  H   H419      1.0  0.48561  0.03517  0.84567  1.0000
  H   H420      1.0  0.40553  0.58441  0.87983  1.0000
  H   H421      1.0  0.52179  0.67508  0.63555  1.0000
  H   H422      1.0  0.42665  0.92761  0.67026  1.0000
  H   H423      1.0  0.42277  0.04435  0.84947  1.0000
  H   H424      1.0  0.36405  0.76475  0.66892  1.0000
  N   N27       1.0  0.45442  0.04468  0.84269  1.0000
  C   C259      1.0  0.47135  0.02470  0.85818  1.0000
  Fe  Fe53      1.0  0.42151  0.72253  0.66612  1.0000
  C   C260      1.0  0.45414  0.04728  0.78842  1.0000
  H   H425      1.0  0.43184  0.82648  0.69178  1.0000
  H   H426      1.0  0.44463  0.90529  0.63603  1.0000
  H   H427      1.0  0.43577  0.02647  0.90038  1.0000
  S   S107      1.0  0.41248  0.67159  0.67985  1.0000
  H   H428      1.0  0.58495  0.81971  0.63213  1.0000
  Fe  Fe54      1.0  0.44430  0.66022  0.66567  1.0000
  S   S108      1.0  0.46259  0.62853  0.71436  1.0000
  H   H429      1.0  0.47556  0.57383  0.76909  1.0000
  C   C261      1.0  0.40773  0.05515  0.71048  1.0000
  H   H430      1.0  0.44077  0.90649  0.74802  1.0000
  H   H431      1.0  0.60112  0.01195  0.71151  1.0000
  H   H432      1.0  0.57747  0.02046  0.90448  1.0000
  N   N28       1.0  0.59296  0.05625  0.86331  1.0000
  H   H433      1.0  0.46779  0.05890  0.77403  1.0000
  C   C262      1.0  0.40452  0.57868  0.83985  1.0000
  C   C263      1.0  0.40863  0.87695  0.71154  1.0000
  S   S109      1.0  0.36579  0.89904  0.93850  1.0000
  H   H434      1.0  0.59390  0.79098  0.67567  1.0000
  H   H435      1.0  0.58807  0.81518  0.02546  1.0000
  Fe  Fe55      1.0  0.39669  0.91296  0.91641  1.0000
  S   S110      1.0  0.40650  0.89473  0.84251  1.0000
  H   H436      1.0  0.40501  0.90018  0.72976  1.0000
  Fe  Fe56      1.0  0.43507  0.94762  0.93490  1.0000
  S   S111      1.0  0.44781  0.93239  0.86303  1.0000
  S   S112      1.0  0.45547  0.98032  0.97655  1.0000
  Fe  Fe57      1.0  0.41828  0.94410  0.83156  1.0000
  S   S113      1.0  0.41949  0.96550  0.75608  1.0000
  Fe  Fe58      1.0  0.43521  0.88430  0.88028  1.0000
  S   S114      1.0  0.45512  0.84315  0.86026  1.0000
  S   S115      1.0  0.40625  0.96384  0.90213  1.0000
  S   S116      1.0  0.42459  0.89821  0.95553  1.0000
  H   H437      1.0  0.57435  0.78010  0.63388  1.0000
  H   H438      1.0  0.49559  0.66836  0.63945  1.0000
  H   H439      1.0  0.58506  0.95941  0.73379  1.0000
  H   H440      1.0  0.36567  0.67673  0.65193  1.0000
  S   S117      1.0  0.57594  0.90293  0.95321  1.0000
  C   C264      1.0  0.44402  0.57703  0.67167  1.0000
  C   C265      1.0  0.49273  0.90971  0.02027  1.0000
  C   C266      1.0  0.58108  0.92716  0.79490  1.0000
  Fe  Fe59      1.0  0.57562  0.94894  0.91092  1.0000
  C   C267      1.0  0.59213  0.58623  0.07779  1.0000
  H   H441      1.0  0.60185  0.00899  0.84007  1.0000
  S   S118      1.0  0.55629  0.97473  0.96403  1.0000
  C   C268      1.0  0.59796  0.91312  0.71917  1.0000
  H   H442      1.0  0.51828  0.74449  0.63099  1.0000
  H   H443      1.0  0.40739  0.85779  0.73992  1.0000
  C   C269      1.0  0.38648  0.04500  0.78024  1.0000
  H   H444      1.0  0.51190  0.64834  0.68130  1.0000
  S   S119      1.0  0.58884  0.04192  0.01688  1.0000
  N   N29       1.0  0.42859  0.87770  0.68962  1.0000
  S   S120      1.0  0.56890  0.95566  0.83112  1.0000
  C   C270      1.0  0.39420  0.01382  0.78411  1.0000
  H   H445      1.0  0.56168  0.84919  0.06378  1.0000
  C   C271      1.0  0.41499  0.02383  0.71341  1.0000
  H   H446      1.0  0.37545  0.05320  0.80614  1.0000
  H   H447      1.0  0.36482  0.73926  0.74961  1.0000
  C   C272      1.0  0.44181  0.81538  0.82470  1.0000
  C   C273      1.0  0.45160  0.79577  0.79074  1.0000
  C   C274      1.0  0.44071  0.77727  0.75695  1.0000
  C   C275      1.0  0.42005  0.77871  0.75692  1.0000
  C   C276      1.0  0.41033  0.79728  0.79221  1.0000
  C   C277      1.0  0.42119  0.81526  0.82638  1.0000
  H   H448      1.0  0.46757  0.79570  0.78940  1.0000
  H   H449      1.0  0.43380  0.00554  0.84280  1.0000
  H   H450      1.0  0.39436  0.79818  0.79278  1.0000
  H   H451      1.0  0.41357  0.82919  0.85395  1.0000
  C   C278      1.0  0.40857  0.00337  0.75080  1.0000
  H   H452      1.0  0.49220  0.88396  0.02506  1.0000
  H   H453      1.0  0.41873  0.90042  0.62295  1.0000
  H   H454      1.0  0.38899  0.99792  0.81272  1.0000
  H   H455      1.0  0.42610  0.01584  0.68757  1.0000
  C   C279      1.0  0.47630  0.95954  0.99841  1.0000
  C   C280      1.0  0.49376  0.97632  0.00864  1.0000
  C   C281      1.0  0.51083  0.95971  0.02319  1.0000
  H   H456      1.0  0.59645  0.84943  0.79729  1.0000
  H   H457      1.0  0.38936  0.58480  0.82720  1.0000
  C   C282      1.0  0.47580  0.92621  0.00448  1.0000
  H   H458      1.0  0.49418  0.00215  0.00479  1.0000
  S   S121      1.0  0.58333  0.62489  0.06563  1.0000
  C   C283      1.0  0.45691  0.58771  0.70845  1.0000
  H   H459      1.0  0.46233  0.91311  0.99757  1.0000
  H   H460      1.0  0.41506  0.59478  0.82023  1.0000
  H   H461      1.0  0.57927  0.88955  0.84902  1.0000
  H   H462      1.0  0.44763  0.84621  0.64849  1.0000
  S   S122      1.0  0.60058  0.71479  0.07426  1.0000
  S   S123      1.0  0.53226  0.90474  0.04007  1.0000
  H   H463      1.0  0.38381  0.93715  0.01572  1.0000
  S   S124      1.0  0.58548  0.94728  0.05152  1.0000
  H   H464      1.0  0.44279  0.86418  0.75724  1.0000
  C   C284      1.0  0.60106  0.88208  0.73696  1.0000
  H   H465      1.0  0.36948  0.96269  0.09013  1.0000
  C   C285      1.0  0.35993  0.95036  0.06433  1.0000
  C   C286      1.0  0.42971  0.90386  0.65303  1.0000
  C   C287      1.0  0.59404  0.87346  0.78351  1.0000
  Fe  Fe60      1.0  0.55878  0.93033  0.00972  1.0000
  C   C288      1.0  0.44339  0.88330  0.72880  1.0000
  C   C289      1.0  0.58765  0.93550  0.74783  1.0000
  H   H466      1.0  0.58005  0.78287  0.06439  1.0000
  H   H467      1.0  0.44140  0.06188  0.77553  1.0000
  H   H468      1.0  0.37837  0.70635  0.72474  1.0000
  N   N30       1.0  0.51339  0.88834  0.87850  1.0000
  C   C290      1.0  0.53262  0.87415  0.86493  1.0000
  C   C291      1.0  0.50356  0.86783  0.91548  1.0000
  C   C292      1.0  0.50073  0.89064  0.83429  1.0000
  C   C293      1.0  0.51664  0.92073  0.89928  1.0000
  H   H469      1.0  0.54063  0.88951  0.83794  1.0000
  H   H470      1.0  0.53076  0.84994  0.84821  1.0000
  H   H471      1.0  0.54233  0.87146  0.89776  1.0000
  H   H472      1.0  0.51254  0.86590  0.94975  1.0000
  H   H473      1.0  0.48883  0.87764  0.92588  1.0000
  H   H474      1.0  0.50092  0.84314  0.90117  1.0000
  H   H475      1.0  0.50771  0.90576  0.80540  1.0000
  H   H476      1.0  0.48613  0.90125  0.84343  1.0000
  H   H477      1.0  0.49773  0.86649  0.81824  1.0000
  H   H478      1.0  0.52634  0.91977  0.93236  1.0000
  H   H479      1.0  0.50248  0.93203  0.91090  1.0000
  H   H480      1.0  0.52394  0.93697  0.87231  1.0000
  H   H481      1.0  0.52421  0.97286  0.03124  1.0000
  C   C294      1.0  0.60526  0.04994  0.06560  1.0000
  C   C295      1.0  0.51043  0.92631  0.02826  1.0000
  H   H482      1.0  0.45866  0.88380  0.71384  1.0000
  H   H483      1.0  0.56249  0.04164  0.86107  1.0000
  Fe  Fe61      1.0  0.58464  0.98957  0.00030  1.0000
  S   S125      1.0  0.40603  0.76049  0.71031  1.0000
  H   H484      1.0  0.60663  0.80497  0.91095  1.0000
  H   H485      1.0  0.43732  0.59395  0.64664  1.0000
  C   C296      1.0  0.36806  0.93592  0.02229  1.0000
  H   H486      1.0  0.58720  0.03044  0.79614  1.0000
  H   H487      1.0  0.57010  0.06069  0.91785  1.0000
  C   C297      1.0  0.36315  0.71547  0.73127  1.0000
  H   H488      1.0  0.44833  0.76305  0.72974  1.0000
  H   H489      1.0  0.39707  0.87233  0.68326  1.0000
  C   C298      1.0  0.58438  0.89619  0.81286  1.0000
  H   H490      1.0  0.37715  0.73201  0.64182  1.0000
  S   S126      1.0  0.60390  0.96734  0.94283  1.0000
  C   C299      1.0  0.43263  0.84668  0.66521  1.0000
  C   C300      1.0  0.43587  0.02965  0.85964  1.0000
  H   H491      1.0  0.45281  0.02328  0.77061  1.0000
  C   C301      1.0  0.57490  0.04434  0.88768  1.0000
  C   C302      1.0  0.58842  0.79382  0.63727  1.0000
  H   H492      1.0  0.49840  0.59601  0.65746  1.0000
  C   C303      1.0  0.36212  0.74075  0.65146  1.0000
  H   H493      1.0  0.53475  0.60564  0.64950  1.0000
  Fe  Fe62      1.0  0.60259  0.92374  0.99059  1.0000
  H   H494      1.0  0.59639  0.86786  0.06105  1.0000
  H   H495      1.0  0.60336  0.91985  0.68317  1.0000
  C   C304      1.0  0.59894  0.03326  0.82462  1.0000
  C   C305      1.0  0.59002  0.80409  0.06239  1.0000
  H   H496      1.0  0.47201  0.02234  0.89903  1.0000
  H   H497      1.0  0.36388  0.84211  0.09755  1.0000
  H   H498      1.0  0.55482  0.81694  0.10419  1.0000
  C   C306      1.0  0.56510  0.83758  0.09974  1.0000
  N   N31       1.0  0.58597  0.82725  0.10236  1.0000
  H   H499      1.0  0.60543  0.79490  0.06446  1.0000
  Fe  Fe63      1.0  0.60721  0.66205  0.07297  1.0000
  C   C307      1.0  0.39351  0.06587  0.74388  1.0000
  C   C308      1.0  0.49687  0.60500  0.61905  1.0000
  H   H500      1.0  0.48170  0.61507  0.61567  1.0000
  S   S127      1.0  0.64682  0.07168  0.19425  1.0000
  H   H501      1.0  0.74138  0.47672  0.56801  1.0000
  C   C309      1.0  0.62915  0.19017  0.50746  1.0000
  Fe  Fe64      1.0  0.79872  0.13823  0.28554  1.0000
  S   S128      1.0  0.79723  0.16876  0.35350  1.0000
  S   S129      1.0  0.77282  0.12839  0.23594  1.0000
  Fe  Fe65      1.0  0.82521  0.19130  0.32569  1.0000
  H   H502      1.0  0.64134  0.17516  0.38824  1.0000
  Fe  Fe66      1.0  0.81741  0.13139  0.38580  1.0000
  H   H503      1.0  0.77748  0.51359  0.25184  1.0000
  S   S130      1.0  0.82488  0.16414  0.25464  1.0000
  S   S131      1.0  0.81651  0.09888  0.31997  1.0000
  H   H504      1.0  0.85638  0.38696  0.43528  1.0000
  S   S132      1.0  0.66478  0.16082  0.20300  1.0000
  H   H505      1.0  0.77104  0.27344  0.36921  1.0000
  H   H506      1.0  0.63046  0.30345  0.58566  1.0000
  Fe  Fe67      1.0  0.62339  0.16290  0.30117  1.0000
  S   S133      1.0  0.64186  0.20611  0.28492  1.0000
  S   S134      1.0  0.81161  0.11144  0.46118  1.0000
  S   S135      1.0  0.78953  0.31710  0.49589  1.0000
  S   S136      1.0  0.63003  0.22545  0.14368  1.0000
  Fe  Fe68      1.0  0.66696  0.17112  0.28395  1.0000
  S   S137      1.0  0.69415  0.18011  0.32933  1.0000
  H   H507      1.0  0.73009  0.28150  0.41528  1.0000
  S   S138      1.0  0.64870  0.12875  0.30601  1.0000
  H   H508      1.0  0.72246  0.21018  0.39609  1.0000
  H   H509      1.0  0.83179  0.33590  0.48803  1.0000
  H   H510      1.0  0.84919  0.20418  0.15224  1.0000
  C   C310      1.0  0.82073  0.26521  0.37058  1.0000
  C   C311      1.0  0.81744  0.29835  0.36727  1.0000
  C   C312      1.0  0.80824  0.31482  0.40611  1.0000
  H   H511      1.0  0.62821  0.26049  0.58854  1.0000
  C   C313      1.0  0.80630  0.26520  0.45209  1.0000
  C   C314      1.0  0.81539  0.24875  0.41327  1.0000
  H   H512      1.0  0.82152  0.31108  0.33411  1.0000
  H   H513      1.0  0.73566  0.09185  0.20012  1.0000
  C   C315      1.0  0.63211  0.17926  0.42001  1.0000
  H   H514      1.0  0.81810  0.22323  0.41627  1.0000
  C   C316      1.0  0.75087  0.14227  0.26197  1.0000
  C   C317      1.0  0.73598  0.15447  0.23153  1.0000
  C   C318      1.0  0.71823  0.16540  0.25198  1.0000
  C   C319      1.0  0.71540  0.16400  0.30285  1.0000
  C   C320      1.0  0.73021  0.15144  0.33321  1.0000
  C   C321      1.0  0.74798  0.14066  0.31280  1.0000
  H   H515      1.0  0.73834  0.15604  0.19222  1.0000
  H   H516      1.0  0.70700  0.17577  0.22858  1.0000
  H   H517      1.0  0.72789  0.14995  0.37252  1.0000
  H   H518      1.0  0.75936  0.13077  0.33630  1.0000
  H   H519      1.0  0.73159  0.22506  0.30982  1.0000
  H   H520      1.0  0.68131  0.44821  0.59000  1.0000
  H   H521      1.0  0.63494  0.26459  0.23103  1.0000
  C   C322      1.0  0.61856  0.26088  0.16327  1.0000
  C   C323      1.0  0.63443  0.55138  0.57978  1.0000
  H   H522      1.0  0.75611  0.21061  0.32191  1.0000
  Fe  Fe69      1.0  0.63776  0.19206  0.20581  1.0000
  S   S139      1.0  0.64016  0.19328  0.56575  1.0000
  H   H523      1.0  0.61402  0.12571  0.51131  1.0000
  H   H524      1.0  0.73054  0.44674  0.52896  1.0000
  H   H525      1.0  0.80508  0.34017  0.40284  1.0000
  H   H526      1.0  0.68416  0.07918  0.24359  1.0000
  Fe  Fe70      1.0  0.82410  0.42112  0.53412  1.0000
  N   N32       1.0  0.61116  0.07928  0.47817  1.0000
  H   H527      1.0  0.80192  0.25224  0.48482  1.0000
  H   H528      1.0  0.71621  0.26474  0.36487  1.0000
  C   C324      1.0  0.63260  0.52138  0.60249  1.0000
  H   H529      1.0  0.68349  0.09830  0.15750  1.0000
  H   H530      1.0  0.64892  0.56106  0.57204  1.0000
  C   C325      1.0  0.61406  0.30327  0.22348  1.0000
  C   C326      1.0  0.64091  0.18589  0.46570  1.0000
  H   H531      1.0  0.71391  0.51390  0.54617  1.0000
  H   H532      1.0  0.85696  0.16686  0.17818  1.0000
  C   C327      1.0  0.79546  0.56537  0.38553  1.0000
  H   H533      1.0  0.66697  0.29891  0.59231  1.0000
  H   H534      1.0  0.77531  0.23369  0.39199  1.0000
  S   S140      1.0  0.76851  0.40193  0.52615  1.0000
  H   H535      1.0  0.73139  0.54903  0.20159  1.0000
  C   C328      1.0  0.73862  0.49807  0.26067  1.0000
  H   H536      1.0  0.73653  0.29155  0.35308  1.0000
  Fe  Fe71      1.0  0.64396  0.12153  0.22513  1.0000
  H   H537      1.0  0.76426  0.26344  0.43114  1.0000
  H   H538      1.0  0.65685  0.18653  0.46895  1.0000
  C   C329      1.0  0.80248  0.29811  0.44832  1.0000
  H   H539      1.0  0.62239  0.11291  0.13363  1.0000
  Fe  Fe72      1.0  0.79417  0.36984  0.50975  1.0000
  H   H540      1.0  0.83514  0.10389  0.19756  1.0000
  N   N33       1.0  0.74496  0.24406  0.37550  1.0000
  C   C330      1.0  0.73743  0.21832  0.40783  1.0000
  C   C331      1.0  0.80733  0.53908  0.39820  1.0000
  C   C332      1.0  0.76473  0.25411  0.39268  1.0000
  C   C333      1.0  0.73134  0.27172  0.37724  1.0000
  H   H541      1.0  0.74734  0.19701  0.40727  1.0000
  Fe  Fe73      1.0  0.84268  0.12750  0.29507  1.0000
  H   H542      1.0  0.73630  0.22652  0.44672  1.0000
  H   H543      1.0  0.75254  0.25058  0.29926  1.0000
  H   H544      1.0  0.61796  0.31432  0.25824  1.0000
  C   C334      1.0  0.61154  0.17695  0.41606  1.0000
  C   C335      1.0  0.74636  0.23207  0.32439  1.0000
  S   S141      1.0  0.81033  0.38236  0.57941  1.0000
  H   H545      1.0  0.63086  0.09666  0.53455  1.0000
  H   H546      1.0  0.73903  0.48593  0.29721  1.0000
  H   H547      1.0  0.69574  0.42952  0.54258  1.0000
  H   H548      1.0  0.70306  0.48341  0.50780  1.0000
  H   H549      1.0  0.70684  0.10006  0.25517  1.0000
  C   C336      1.0  0.84268  0.07014  0.44563  1.0000
  H   H550      1.0  0.61293  0.10009  0.40576  1.0000
  H   H551      1.0  0.70567  0.12051  0.16974  1.0000
  N   N34       1.0  0.70692  0.07067  0.18997  1.0000
  C   C337      1.0  0.70054  0.07716  0.24106  1.0000
  S   S142      1.0  0.61667  0.15187  0.22222  1.0000
  H   H552      1.0  0.63479  0.11389  0.47480  1.0000
  H   H553      1.0  0.82315  0.54040  0.39307  1.0000
  C   C338      1.0  0.76646  0.53539  0.41113  1.0000
  C   C339      1.0  0.76856  0.52729  0.27902  1.0000
  H   H554      1.0  0.74649  0.48231  0.23406  1.0000
  S   S143      1.0  0.80986  0.40609  0.46267  1.0000
  Fe  Fe74      1.0  0.78548  0.43967  0.48554  1.0000
  S   S144      1.0  0.76673  0.47278  0.43982  1.0000
  H   H555      1.0  0.72117  0.55411  0.28718  1.0000
  C   C340      1.0  0.62355  0.27505  0.20830  1.0000
  C   C341      1.0  0.77824  0.50883  0.42249  1.0000
  C   C342      1.0  0.79874  0.51084  0.41681  1.0000
  C   C343      1.0  0.72873  0.06895  0.18808  1.0000
  H   H556      1.0  0.80792  0.49041  0.42566  1.0000
  H   H557      1.0  0.84633  0.08462  0.41389  1.0000
  C   C344      1.0  0.73676  0.55020  0.29893  1.0000
  H   H558      1.0  0.73639  0.53886  0.33590  1.0000
  C   C345      1.0  0.82713  0.07915  0.47654  1.0000
  N   N35       1.0  0.74773  0.53029  0.26318  1.0000
  S   S145      1.0  0.80115  0.45791  0.55261  1.0000
  C   C346      1.0  0.61382  0.50901  0.61265  1.0000
  C   C347      1.0  0.73038  0.45684  0.56692  1.0000
  S   S146      1.0  0.85626  0.43428  0.54015  1.0000
  H   H559      1.0  0.76980  0.51449  0.31482  1.0000
  N   N36       1.0  0.71044  0.46795  0.58100  1.0000
  H   H560      1.0  0.84394  0.35376  0.40656  1.0000
  C   C348      1.0  0.62329  0.10493  0.50061  1.0000
  H   H561      1.0  0.66465  0.25582  0.59474  1.0000
  S   S147      1.0  0.84532  0.15675  0.36411  1.0000
  H   H562      1.0  0.75066  0.53409  0.41652  1.0000
  S   S148      1.0  0.83117  0.24443  0.32099  1.0000
  C   C349      1.0  0.74692  0.54554  0.21412  1.0000
  Fe  Fe75      1.0  0.78610  0.41758  0.59168  1.0000
  H   H563      1.0  0.70099  0.42149  0.60610  1.0000
  H   H564      1.0  0.73577  0.43781  0.59226  1.0000
  C   C350      1.0  0.84645  0.10460  0.12336  1.0000
  S   S149      1.0  0.61467  0.48682  0.11805  1.0000
  H   H565      1.0  0.72286  0.49945  0.24897  1.0000
  C   C351      1.0  0.70376  0.49287  0.54608  1.0000
  H   H566      1.0  0.68874  0.50178  0.55572  1.0000
  C   C352      1.0  0.85798  0.36121  0.42469  1.0000
  C   C353      1.0  0.84823  0.10337  0.17482  1.0000
  C   C354      1.0  0.69652  0.44059  0.57979  1.0000
  H   H567      1.0  0.75460  0.53078  0.18588  1.0000
  C   C355      1.0  0.62921  0.28273  0.61125  1.0000
  C   C356      1.0  0.62056  0.08844  0.12132  1.0000
  H   H568      1.0  0.77569  0.55123  0.28382  1.0000
  C   C357      1.0  0.84608  0.34399  0.50387  1.0000
  C   C358      1.0  0.69992  0.09676  0.15754  1.0000
  H   H569      1.0  0.85030  0.29807  0.43576  1.0000
  H   H570      1.0  0.84413  0.36935  0.51533  1.0000
  H   H571      1.0  0.85158  0.37633  0.59917  1.0000
  H   H572      1.0  0.84881  0.32943  0.53750  1.0000
  C   C359      1.0  0.77503  0.56352  0.39252  1.0000
  H   H573      1.0  0.72655  0.34321  0.61148  1.0000
  H   H574      1.0  0.77685  0.06799  0.39720  1.0000
  H   H575      1.0  0.70466  0.09298  0.11879  1.0000
  C   C360      1.0  0.60855  0.18940  0.50298  1.0000
  H   H576      1.0  0.63421  0.54727  0.11100  1.0000
  H   H577      1.0  0.62701  0.56484  0.99147  1.0000
  H   H578      1.0  0.62248  0.40608  0.00001  1.0000
  C   C361      1.0  0.72937  0.36224  0.63772  1.0000
  H   H579      1.0  0.62083  0.40705  0.81784  1.0000
  H   H580      1.0  0.64935  0.49618  0.92481  1.0000
  H   H581      1.0  0.61519  0.48468  0.89756  1.0000
  C   C362      1.0  0.71816  0.39685  0.70347  1.0000
  C   C363      1.0  0.62153  0.40627  0.85741  1.0000
  H   H582      1.0  0.83198  0.10616  0.10655  1.0000
  H   H583      1.0  0.61499  0.28533  0.63143  1.0000
  S   S150      1.0  0.62379  0.16768  0.70055  1.0000
  C   C364      1.0  0.62192  0.31569  0.02992  1.0000
  S   S151      1.0  0.64712  0.38154  0.74873  1.0000
  H   H584      1.0  0.85186  0.50697  0.72687  1.0000
  H   H585      1.0  0.69627  0.49047  0.64278  1.0000
  H   H586      1.0  0.63051  0.50871  0.02314  1.0000
  H   H587      1.0  0.61232  0.48573  0.62973  1.0000
  S   S152      1.0  0.65297  0.44709  0.84981  1.0000
  C   C365      1.0  0.61960  0.29913  0.94477  1.0000
  C   C366      1.0  0.73669  0.41195  0.70462  1.0000
  Fe  Fe76      1.0  0.61735  0.18047  0.62196  1.0000
  C   C367      1.0  0.83762  0.49508  0.73636  1.0000
  H   H588      1.0  0.64703  0.53583  0.90012  1.0000
  C   C368      1.0  0.65077  0.29594  0.98778  1.0000
  H   H589      1.0  0.85277  0.41838  0.71686  1.0000
  Fe  Fe77      1.0  0.66774  0.39313  0.68737  1.0000
  H   H590      1.0  0.83516  0.44061  0.64330  1.0000
  C   C369      1.0  0.74790  0.37725  0.63899  1.0000
  C   C370      1.0  0.81773  0.44709  0.73086  1.0000
  H   H591      1.0  0.62424  0.47567  0.98432  1.0000
  N   N37       1.0  0.62913  0.29258  0.99274  1.0000
  H   H592      1.0  0.62420  0.28158  0.91611  1.0000
  S   S153      1.0  0.64386  0.40754  0.63478  1.0000
  H   H593      1.0  0.70688  0.40399  0.72921  1.0000
  C   C371      1.0  0.64385  0.25365  0.67885  1.0000
  H   H594      1.0  0.62968  0.24143  0.98167  1.0000
  S   S154      1.0  0.67383  0.44317  0.71369  1.0000
  H   H595      1.0  0.62989  0.25519  0.70033  1.0000
  H   H596      1.0  0.62871  0.31137  0.06668  1.0000
  H   H597      1.0  0.61494  0.29771  0.81599  1.0000
  C   C372      1.0  0.71107  0.48152  0.63127  1.0000
  N   N38       1.0  0.64614  0.28144  0.64560  1.0000
  C   C373      1.0  0.75135  0.40284  0.67126  1.0000
  C   C374      1.0  0.61877  0.55088  0.10218  1.0000
  H   H598      1.0  0.71577  0.46322  0.65865  1.0000
  C   C375      1.0  0.62429  0.25957  0.00853  1.0000
  C   C376      1.0  0.71430  0.37269  0.66896  1.0000
  H   H599      1.0  0.62534  0.34087  0.01925  1.0000
  H   H600      1.0  0.61266  0.52472  0.87438  1.0000
  H   H601      1.0  0.62335  0.32356  0.93112  1.0000
  H   H602      1.0  0.72160  0.50197  0.63383  1.0000
  C   C377      1.0  0.64682  0.31128  0.67491  1.0000
  Fe  Fe78      1.0  0.62347  0.40041  0.69890  1.0000
  N   N39       1.0  0.62349  0.52173  0.94866  1.0000
  H   H603      1.0  0.65840  0.29097  0.02333  1.0000
  C   C378      1.0  0.62223  0.40601  0.96023  1.0000
  Fe  Fe79      1.0  0.65068  0.43317  0.77034  1.0000
  H   H604      1.0  0.65952  0.31135  0.70104  1.0000
  H   H605      1.0  0.82540  0.51071  0.72322  1.0000
  C   C379      1.0  0.85333  0.44323  0.73185  1.0000
  C   C380      1.0  0.63596  0.42388  0.88258  1.0000
  S   S155      1.0  0.77299  0.42574  0.66619  1.0000
  C   C381      1.0  0.83657  0.46472  0.66063  1.0000
  H   H606      1.0  0.73941  0.43136  0.73026  1.0000
  C   C382      1.0  0.63647  0.42341  0.93400  1.0000
  H   H607      1.0  0.80458  0.46126  0.71921  1.0000
  H   H608      1.0  0.65430  0.53030  0.96327  1.0000
  N   N40       1.0  0.83632  0.46252  0.71491  1.0000
  Fe  Fe80      1.0  0.64835  0.45692  0.66556  1.0000
  H   H609      1.0  0.82411  0.47954  0.64665  1.0000
  H   H610      1.0  0.64349  0.23069  0.65788  1.0000
  H   H611      1.0  0.67776  0.27727  0.64234  1.0000
  H   H612      1.0  0.65489  0.32070  0.97621  1.0000
  H   H613      1.0  0.85374  0.44161  0.77277  1.0000
  C   C383      1.0  0.64446  0.52104  0.93359  1.0000
  H   H614      1.0  0.81710  0.44458  0.77160  1.0000
  H   H615      1.0  0.64785  0.43653  0.95352  1.0000
  S   S156      1.0  0.62552  0.45147  0.72479  1.0000
  S   S157      1.0  0.69030  0.35757  0.66131  1.0000
  H   H616      1.0  0.81599  0.42269  0.71459  1.0000
  H   H617      1.0  0.63108  0.25388  0.04488  1.0000
  H   H618      1.0  0.64846  0.33276  0.65097  1.0000
  H   H619      1.0  0.65673  0.27901  0.95981  1.0000
  H   H620      1.0  0.85055  0.47562  0.64699  1.0000
  S   S158      1.0  0.65398  0.49966  0.61748  1.0000
  H   H621      1.0  0.65624  0.25216  0.70570  1.0000
  H   H622      1.0  0.63311  0.31446  0.69672  1.0000
  H   H623      1.0  0.61204  0.35243  0.78127  1.0000
  H   H624      1.0  0.83680  0.49433  0.77729  1.0000
  C   C384      1.0  0.62075  0.50111  0.99227  1.0000
  C   C385      1.0  0.61774  0.55500  0.96106  1.0000
  H   H625      1.0  0.62812  0.09264  0.63984  1.0000
  H   H626      1.0  0.75945  0.36918  0.61458  1.0000
  C   C386      1.0  0.61102  0.50965  0.90793  1.0000
  C   C387      1.0  0.66469  0.27815  0.61742  1.0000
  H   H627      1.0  0.62289  0.06819  0.88278  1.0000
  C   C388      1.0  0.69049  0.65847  0.41616  1.0000
  H   H628      1.0  0.70339  0.01954  0.19681  1.0000
  C   C389      1.0  0.84533  0.66173  0.30656  1.0000
  H   H629      1.0  0.72918  0.61293  0.20992  1.0000
  C   C390      1.0  0.67742  0.64974  0.18804  1.0000
  Fe  Fe81      1.0  0.76335  0.70050  0.35791  1.0000
  S   S159      1.0  0.64603  0.69464  0.52429  1.0000
  H   H630      1.0  0.71679  0.62051  0.12481  1.0000
  C   C391      1.0  0.63096  0.06367  0.14434  1.0000
  N   N41       1.0  0.85032  0.67031  0.25525  1.0000
  S   S160      1.0  0.74552  0.69793  0.28862  1.0000
  H   H631      1.0  0.66607  0.69477  0.36019  1.0000
  H   H632      1.0  0.70113  0.69197  0.33628  1.0000
  H   H633      1.0  0.79350  0.63519  0.18211  1.0000
  Fe  Fe82      1.0  0.77349  0.68127  0.25289  1.0000
  H   H634      1.0  0.61853  0.60388  0.25279  1.0000
  C   C392      1.0  0.85321  0.04174  0.45495  1.0000
  Fe  Fe83      1.0  0.74136  0.64639  0.30836  1.0000
  S   S161      1.0  0.75688  0.64989  0.38063  1.0000
  S   S162      1.0  0.71128  0.62487  0.30395  1.0000
  Fe  Fe84      1.0  0.78378  0.63691  0.33697  1.0000
  S   S163      1.0  0.80616  0.59977  0.35898  1.0000
  H   H635      1.0  0.63687  0.01287  0.14484  1.0000
  S   S164      1.0  0.76753  0.62914  0.26600  1.0000
  H   H636      1.0  0.84400  0.68342  0.33030  1.0000
  H   H637      1.0  0.65932  0.69673  0.42381  1.0000
  C   C393      1.0  0.61753  0.56909  0.56741  1.0000
  S   S165      1.0  0.79202  0.68811  0.32079  1.0000
  H   H638      1.0  0.85495  0.64634  0.18595  1.0000
  C   C394      1.0  0.70263  0.63047  0.24397  1.0000
  C   C395      1.0  0.68398  0.64380  0.23610  1.0000
  S   S166      1.0  0.62054  0.74658  0.20324  1.0000
  H   H639      1.0  0.69565  0.73531  0.45623  1.0000
  H   H640      1.0  0.66976  0.73131  0.39434  1.0000
  C   C396      1.0  0.65073  0.73552  0.51448  1.0000
  H   H641      1.0  0.63095  0.73982  0.45265  1.0000
  H   H642      1.0  0.68648  0.70083  0.48851  1.0000
  C   C397      1.0  0.71464  0.62273  0.20388  1.0000
  C   C398      1.0  0.62148  0.80167  0.60665  1.0000
  H   H643      1.0  0.67480  0.65033  0.26707  1.0000
  H   H644      1.0  0.70526  0.72965  0.36734  1.0000
  N   N42       1.0  0.69056  0.69376  0.41082  1.0000
  S   S167      1.0  0.78165  0.70194  0.17917  1.0000
  H   H645      1.0  0.71174  0.70203  0.46860  1.0000
  H   H646      1.0  0.68026  0.65067  0.44597  1.0000
  C   C399      1.0  0.67057  0.70467  0.39662  1.0000
  C   C400      1.0  0.83494  0.69178  0.23522  1.0000
  C   C401      1.0  0.69636  0.70866  0.45811  1.0000
  S   S168      1.0  0.81836  0.95024  0.58831  1.0000
  H   H647      1.0  0.68558  0.64647  0.38159  1.0000
  H   H648      1.0  0.72010  0.69551  0.38226  1.0000
  C   C402      1.0  0.77054  0.04348  0.39157  1.0000
  C   C403      1.0  0.70484  0.70316  0.37239  1.0000
  H   H649      1.0  0.61864  0.82764  0.60081  1.0000
  H   H650      1.0  0.63115  0.04161  0.49925  1.0000
  S   S169      1.0  0.75610  0.73957  0.41222  1.0000
  S   S170      1.0  0.62914  0.89433  0.57410  1.0000
  H   H651      1.0  0.82036  0.60599  0.13949  1.0000
  H   H652      1.0  0.85669  0.64577  0.32318  1.0000
  C   C404      1.0  0.73086  0.95561  0.58409  1.0000
  C   C405      1.0  0.63148  0.01308  0.61183  1.0000
  H   H653      1.0  0.74360  0.57431  0.30341  1.0000
  C   C406      1.0  0.81785  0.63111  0.13169  1.0000
  Fe  Fe85      1.0  0.79497  0.93126  0.53798  1.0000
  S   S171      1.0  0.81421  0.93133  0.47116  1.0000
  S   S172      1.0  0.76521  0.95440  0.53219  1.0000
  H   H654      1.0  0.78938  0.01141  0.49654  1.0000
  C   C407      1.0  0.62880  0.03210  0.12727  1.0000
  C   C408      1.0  0.77266  0.98727  0.41288  1.0000
  Fe  Fe86      1.0  0.83824  0.94615  0.52304  1.0000
  S   S173      1.0  0.66371  0.84158  0.48957  1.0000
  Fe  Fe87      1.0  0.82154  0.88094  0.49330  1.0000
  S   S174      1.0  0.82394  0.84351  0.43369  1.0000
  H   H655      1.0  0.61829  0.73893  0.58233  1.0000
  S   S175      1.0  0.80028  0.87961  0.55654  1.0000
  H   H656      1.0  0.70549  0.64919  0.42504  1.0000
  H   H657      1.0  0.72544  0.88761  0.45358  1.0000
  H   H658      1.0  0.83098  0.64867  0.30855  1.0000
  C   C409      1.0  0.82261  0.06028  0.51763  1.0000
  C   C410      1.0  0.62388  0.05162  0.46584  1.0000
  H   H659      1.0  0.77307  0.98014  0.37345  1.0000
  H   H660      1.0  0.70208  0.88187  0.48382  1.0000
  H   H661      1.0  0.82867  0.01652  0.55691  1.0000
  C   C411      1.0  0.83266  0.03139  0.52595  1.0000
  C   C412      1.0  0.77482  0.76866  0.41771  1.0000
  C   C413      1.0  0.78988  0.77079  0.38272  1.0000
  C   C414      1.0  0.80484  0.79392  0.38794  1.0000
  C   C415      1.0  0.80478  0.81512  0.42801  1.0000
  C   C416      1.0  0.78960  0.81314  0.46277  1.0000
  C   C417      1.0  0.77464  0.78998  0.45761  1.0000
  H   H662      1.0  0.78994  0.75485  0.35141  1.0000
  H   H663      1.0  0.81649  0.79544  0.36084  1.0000
  H   H664      1.0  0.78963  0.82897  0.49408  1.0000
  C   C418      1.0  0.64559  0.78462  0.46841  1.0000
  Fe  Fe88      1.0  0.65831  0.87120  0.55730  1.0000
  C   C419      1.0  0.70768  0.62726  0.15579  1.0000
  H   H665      1.0  0.72108  0.90544  0.51276  1.0000
  H   H666      1.0  0.71968  0.73548  0.18419  1.0000
  H   H667      1.0  0.70283  0.03430  0.13457  1.0000
  C   C420      1.0  0.84788  0.02194  0.49440  1.0000
  H   H668      1.0  0.67897  0.79640  0.56046  1.0000
  H   H669      1.0  0.71906  0.87161  0.58671  1.0000
  H   H670      1.0  0.61522  0.03175  0.44887  1.0000
  N   N43       1.0  0.72610  0.85452  0.51418  1.0000
  C   C421      1.0  0.71636  0.85053  0.56243  1.0000
  H   H671      1.0  0.83381  0.71447  0.25669  1.0000
  C   C422      1.0  0.85135  0.64081  0.22507  1.0000
  C   C423      1.0  0.66455  0.75143  0.54421  1.0000
  S   S176      1.0  0.64132  0.98802  0.56614  1.0000
  H   H672      1.0  0.81079  0.06739  0.54207  1.0000
  N   N44       1.0  0.78144  0.01936  0.42075  1.0000
  S   S177      1.0  0.67586  0.91591  0.56868  1.0000
  H   H673      1.0  0.72569  0.97253  0.55680  1.0000
  H   H674      1.0  0.63281  0.79413  0.57964  1.0000
  C   C424      1.0  0.72199  0.82614  0.48305  1.0000
  H   H675      1.0  0.72189  0.82897  0.58218  1.0000
  S   S178      1.0  0.84775  0.89575  0.53914  1.0000
  Fe  Fe89      1.0  0.64727  0.93793  0.59265  1.0000
  H   H676      1.0  0.73682  0.76979  0.12420  1.0000
  C   C425      1.0  0.78021  0.02779  0.47353  1.0000
  H   H677      1.0  0.76576  0.58361  0.38313  1.0000
  H   H678      1.0  0.72737  0.80369  0.50067  1.0000
  C   C426      1.0  0.64127  0.75213  0.47652  1.0000
  C   C427      1.0  0.80234  0.01897  0.40509  1.0000
  C   C428      1.0  0.75026  0.94428  0.58241  1.0000
  H   H679      1.0  0.63833  0.79739  0.43880  1.0000
  H   H680      1.0  0.76322  0.78803  0.48512  1.0000
  H   H681      1.0  0.67198  0.73855  0.57344  1.0000
  H   H682      1.0  0.80397  0.01049  0.36649  1.0000
  S   S179      1.0  0.62718  0.66380  0.13864  1.0000
  H   H683      1.0  0.83702  0.62767  0.22528  1.0000
  H   H684      1.0  0.68205  0.04015  0.17416  1.0000
  H   H685      1.0  0.70007  0.84802  0.55822  1.0000
  Fe  Fe90      1.0  0.62312  0.71705  0.13457  1.0000
  H   H686      1.0  0.75553  0.86054  0.48563  1.0000
  H   H687      1.0  0.83800  0.69829  0.19622  1.0000
  C   C429      1.0  0.65898  0.80075  0.49903  1.0000
  H   H688      1.0  0.66344  0.66138  0.18242  1.0000
  C   C430      1.0  0.66853  0.78411  0.53687  1.0000
  H   H689      1.0  0.82015  0.68018  0.23618  1.0000
  H   H690      1.0  0.81148  0.00307  0.42894  1.0000
  C   C431      1.0  0.68908  0.64102  0.14777  1.0000
  H   H691      1.0  0.75471  0.04442  0.40239  1.0000
  H   H692      1.0  0.73863  0.70553  0.17941  1.0000
  C   C432      1.0  0.79947  0.68016  0.14617  1.0000
  H   H693      1.0  0.71331  0.69494  0.16867  1.0000
  H   H694      1.0  0.72940  0.82808  0.44661  1.0000
  H   H695      1.0  0.70584  0.82327  0.47625  1.0000
  C   C433      1.0  0.74766  0.85787  0.52135  1.0000
  H   H696      1.0  0.75705  0.98636  0.42560  1.0000
  C   C434      1.0  0.71833  0.88363  0.48993  1.0000
  H   H697      1.0  0.75129  0.87939  0.54385  1.0000
  H   H698      1.0  0.75402  0.83668  0.54054  1.0000
  H   H699      1.0  0.78079  0.96866  0.43410  1.0000
  H   H700      1.0  0.78537  0.05276  0.48031  1.0000
  C   C435      1.0  0.80265  0.64763  0.15586  1.0000
  H   H701      1.0  0.77135  0.03817  0.35148  1.0000
  C   C436      1.0  0.61183  0.72618  0.29663  1.0000
  H   H702      1.0  0.76481  0.02600  0.48755  1.0000
  Fe  Fe91      1.0  0.82584  0.89844  0.60082  1.0000
  H   H703      1.0  0.61906  0.59234  0.55027  1.0000
  H   H704      1.0  0.73407  0.06405  0.15010  1.0000
  C   C437      1.0  0.69849  0.03979  0.17315  1.0000
  H   H705      1.0  0.62422  0.74067  0.30859  1.0000
  Fe  Fe92      1.0  0.61471  0.67944  0.50853  1.0000
  H   H706      1.0  0.63576  0.05851  0.43962  1.0000
  H   H707      1.0  0.64465  0.05556  0.58138  1.0000
  H   H708      1.0  0.70521  0.05774  0.26653  1.0000
  C   C438      1.0  0.63479  0.04618  0.60907  1.0000
  H   H709      1.0  0.73455  0.04977  0.21253  1.0000
  H   H710      1.0  0.80892  0.04336  0.40687  1.0000
  C   C439      1.0  0.72453  0.71408  0.16293  1.0000
  H   H711      1.0  0.75415  0.56952  0.21455  1.0000
  H   H712      1.0  0.75623  0.74071  0.11960  1.0000
  C   C440      1.0  0.82681  0.67958  0.08815  1.0000
  C   C441      1.0  0.62557  0.06707  0.64232  1.0000
  C   C442      1.0  0.74386  0.91133  0.65430  1.0000
  H   H713      1.0  0.62235  0.60129  0.08760  1.0000
  H   H714      1.0  0.70893  0.73688  0.04924  1.0000
  C   C443      1.0  0.61061  0.02154  0.68316  1.0000
  H   H715      1.0  0.61700  0.97512  0.65164  1.0000
  H   H716      1.0  0.63914  0.84835  0.78997  1.0000
  H   H717      1.0  0.61425  0.00080  0.07526  1.0000
  S   S180      1.0  0.63157  0.66578  0.01769  1.0000
  C   C444      1.0  0.83020  0.64720  0.09857  1.0000
  S   S181      1.0  0.64881  0.72564  0.08445  1.0000
  Fe  Fe93      1.0  0.62666  0.71886  0.02383  1.0000
  H   H718      1.0  0.74376  0.75399  0.06504  1.0000
  C   C445      1.0  0.85577  0.87056  0.69234  1.0000
  C   C446      1.0  0.72411  0.92117  0.65396  1.0000
  S   S182      1.0  0.68122  0.64871  0.08740  1.0000
  C   C447      1.0  0.71787  0.94430  0.62016  1.0000
  Fe  Fe94      1.0  0.65128  0.67205  0.08352  1.0000
  C   C448      1.0  0.61208  0.58142  0.08886  1.0000
  H   H719      1.0  0.63661  0.90662  0.77081  1.0000
  C   C449      1.0  0.62680  0.79064  0.96820  1.0000
  C   C450      1.0  0.81131  0.69595  0.11155  1.0000
  C   C451      1.0  0.61965  0.00067  0.64942  1.0000
  C   C452      1.0  0.74155  0.74771  0.10444  1.0000
  H   H720      1.0  0.85796  0.94305  0.70038  1.0000
  S   S183      1.0  0.62376  0.74966  0.95633  1.0000
  C   C453      1.0  0.61737  0.84582  0.95198  1.0000
  H   H721      1.0  0.64782  0.78398  0.02679  1.0000
  H   H722      1.0  0.62935  0.85674  0.84984  1.0000
  Fe  Fe95      1.0  0.63573  0.87977  0.65194  1.0000
  H   H723      1.0  0.70291  0.95321  0.62140  1.0000
  H   H724      1.0  0.64878  0.93555  0.80909  1.0000
  C   C454      1.0  0.67194  0.88376  0.79823  1.0000
  H   H725      1.0  0.65047  0.84196  0.04608  1.0000
  S   S184      1.0  0.70660  0.90115  0.69016  1.0000
  H   H726      1.0  0.66821  0.87768  0.75934  1.0000
  H   H727      1.0  0.83622  0.69209  0.06235  1.0000
  S   S185      1.0  0.65117  0.92552  0.67244  1.0000
  H   H728      1.0  0.85359  0.77102  0.80022  1.0000
  H   H729      1.0  0.66792  0.91720  0.88234  1.0000
  C   C455      1.0  0.65959  0.89419  0.88025  1.0000
  C   C456      1.0  0.61594  0.02522  0.08801  1.0000
  H   H730      1.0  0.61220  0.03621  0.91829  1.0000
  C   C457      1.0  0.62956  0.85619  0.99042  1.0000
  H   H731      1.0  0.68037  0.90673  0.79731  1.0000
  H   H732      1.0  0.68210  0.86481  0.81200  1.0000
  S   S186      1.0  0.83172  0.88354  0.67901  1.0000
  C   C458      1.0  0.61618  0.81307  0.94046  1.0000
  C   C459      1.0  0.63931  0.80112  0.00594  1.0000
  H   H733      1.0  0.62737  0.91448  0.83138  1.0000
  H   H734      1.0  0.72314  0.67278  0.08615  1.0000
  H   H735      1.0  0.64633  0.89666  0.90420  1.0000
  H   H736      1.0  0.69640  0.71246  0.09349  1.0000
  C   C460      1.0  0.64087  0.83393  0.01662  1.0000
  H   H737      1.0  0.65230  0.83564  0.84396  1.0000
  N   N45       1.0  0.65400  0.88631  0.82901  1.0000
  H   H738      1.0  0.66902  0.87514  0.89674  1.0000
  H   H739      1.0  0.85192  0.97145  0.65298  1.0000
  H   H740      1.0  0.74881  0.89365  0.68069  1.0000
  H   H741      1.0  0.80893  0.72112  0.10390  1.0000
  C   C461      1.0  0.64325  0.85541  0.82818  1.0000
  S   S187      1.0  0.63043  0.89669  0.00731  1.0000
  C   C462      1.0  0.64113  0.91190  0.80932  1.0000
  C   C463      1.0  0.70776  0.73161  0.08927  1.0000
  H   H742      1.0  0.61252  0.04142  0.80521  1.0000
  H   H743      1.0  0.61418  0.74461  0.64703  1.0000
  S   S188      1.0  0.85048  0.62681  0.07333  1.0000
  Fe  Fe96      1.0  0.67835  0.90007  0.64718  1.0000
  H   H744      1.0  0.85283  0.88082  0.76964  1.0000
  S   S189      1.0  0.61491  0.85454  0.70299  1.0000
  H   H745      1.0  0.73657  0.69759  0.04419  1.0000
  C   C464      1.0  0.61329  0.05478  0.67907  1.0000
  H   H746      1.0  0.62796  0.79895  0.64409  1.0000
  H   H747      1.0  0.61940  0.57134  0.92896  1.0000
  H   H748      1.0  0.77211  0.91483  0.61830  1.0000
  C   C465      1.0  0.73407  0.69267  0.08393  1.0000
  H   H749      1.0  0.74827  0.68387  0.09978  1.0000
  H   H750      1.0  0.61484  0.84873  0.09815  1.0000
  S   S190      1.0  0.66341  0.85299  0.63360  1.0000
  H   H751      1.0  0.70199  0.75343  0.10798  1.0000
  N   N46       1.0  0.72697  0.72154  0.11012  1.0000
  H   H752      1.0  0.85585  0.00637  0.97868  1.0000
  H   H753      1.0  0.60899  0.86298  0.93083  1.0000
  C   C466      1.0  0.75700  0.92308  0.61866  1.0000
  C   C467      1.0  0.60899  0.05949  0.90001  1.0000
  H   H754      1.0  0.08232  0.09969  0.54272  1.0000
  H   H755      1.0  0.07100  0.16422  0.36408  1.0000
  C   C468      1.0  0.88457  0.23296  0.15426  1.0000
  Fe  Fe97      1.0  0.05553  0.24280  0.12015  1.0000
  H   H756      1.0  0.10166  0.11000  0.28760  1.0000
  H   H757      1.0  0.09793  0.33564  0.26464  1.0000
  H   H758      1.0  0.06619  0.12145  0.15904  1.0000
  H   H759      1.0  0.09531  0.23578  0.16233  1.0000
  C   C469      1.0  0.08201  0.10698  0.40260  1.0000
  N   N47       1.0  0.87860  0.20430  0.18258  1.0000
  H   H760      1.0  0.86656  0.17923  0.11988  1.0000
  H   H761      1.0  0.86754  0.29128  0.48465  1.0000
  H   H762      1.0  0.90866  0.19412  0.20323  1.0000
  C   C470      1.0  0.88381  0.10116  0.16706  1.0000
  C   C471      1.0  0.86968  0.41848  0.59003  1.0000
  H   H763      1.0  0.89365  0.34978  0.46556  1.0000
  H   H764      1.0  0.85907  0.23013  0.23104  1.0000
  H   H765      1.0  0.89728  0.24551  0.17189  1.0000
  H   H766      1.0  0.06105  0.13162  0.32832  1.0000
  N   N48       1.0  0.86234  0.34102  0.46807  1.0000
  H   H767      1.0  0.10494  0.11609  0.13150  1.0000
  C   C472      1.0  0.07855  0.22971  0.22894  1.0000
  C   C473      1.0  0.07954  0.22364  0.27945  1.0000
  C   C474      1.0  0.86212  0.18800  0.15699  1.0000
  H   H768      1.0  0.06612  0.22313  0.30104  1.0000
  C   C475      1.0  0.09591  0.23039  0.20110  1.0000
  H   H769      1.0  0.10417  0.16016  0.40071  1.0000
  S   S191      1.0  0.05541  0.23623  0.20198  1.0000
  C   C476      1.0  0.02877  0.54068  0.55524  1.0000
  H   H770      1.0  0.08020  0.15638  0.30325  1.0000
  C   C477      1.0  0.09655  0.09256  0.52823  1.0000
  C   C478      1.0  0.10234  0.35616  0.54798  1.0000
  H   H771      1.0  0.86992  0.35964  0.39674  1.0000
  C   C479      1.0  0.86423  0.30711  0.45273  1.0000
  H   H772      1.0  0.88411  0.22672  0.25267  1.0000
  H   H773      1.0  0.09298  0.09020  0.41898  1.0000
  H   H774      1.0  0.09831  0.21331  0.34089  1.0000
  H   H775      1.0  0.02246  0.52242  0.58084  1.0000
  C   C480      1.0  0.09780  0.21831  0.30216  1.0000
  H   H776      1.0  0.10364  0.35842  0.31916  1.0000
  H   H777      1.0  0.01909  0.56222  0.55696  1.0000
  N   N49       1.0  0.09001  0.12305  0.35842  1.0000
  H   H778      1.0  0.10663  0.30829  0.36919  1.0000
  C   C481      1.0  0.88095  0.35201  0.49123  1.0000
  H   H779      1.0  0.09538  0.36735  0.51651  1.0000
  S   S192      1.0  0.10269  0.15641  0.51243  1.0000
  C   C482      1.0  0.87216  0.21397  0.23242  1.0000
  H   H780      1.0  0.08234  0.08422  0.30965  1.0000
  C   C483      1.0  0.09542  0.09865  0.32127  1.0000
  C   C484      1.0  0.06311  0.11411  0.12159  1.0000
  H   H781      1.0  0.02778  0.53061  0.51736  1.0000
  C   C485      1.0  0.86447  0.38917  0.61151  1.0000
  C   C486      1.0  0.09943  0.36898  0.59515  1.0000
  H   H782      1.0  0.09002  0.38950  0.59965  1.0000
  H   H783      1.0  0.88443  0.33793  0.52494  1.0000
  H   H784      1.0  0.87998  0.37769  0.50258  1.0000
  S   S193      1.0  0.86979  0.10682  0.26035  1.0000
  H   H785      1.0  0.87221  0.25040  0.15082  1.0000
  H   H786      1.0  0.89188  0.16103  0.21003  1.0000
  H   H787      1.0  0.87619  0.30392  0.42513  1.0000
  H   H788      1.0  0.89829  0.10001  0.18390  1.0000
  N   N50       1.0  0.04938  0.54863  0.56859  1.0000
  H   H789      1.0  0.07709  0.52411  0.57704  1.0000
  H   H790      1.0  0.05572  0.50015  0.59004  1.0000
  H   H791      1.0  0.89041  0.45776  0.59095  1.0000
  H   H792      1.0  0.09951  0.28641  0.31481  1.0000
  H   H793      1.0  0.90012  0.17292  0.14986  1.0000
  H   H794      1.0  0.96922  0.23064  0.14055  1.0000
  H   H795      1.0  0.10038  0.15787  0.11996  1.0000
  H   H796      1.0  0.06849  0.09285  0.39390  1.0000
  C   C487      1.0  0.07489  0.14476  0.33766  1.0000
  H   H797      1.0  0.05681  0.56441  0.49550  1.0000
  H   H798      1.0  0.07806  0.12473  0.43172  1.0000
  C   C488      1.0  0.89555  0.18211  0.18663  1.0000
  C   C489      1.0  0.88630  0.43506  0.60736  1.0000
  C   C490      1.0  0.06158  0.51932  0.56563  1.0000
  C   C491      1.0  0.86697  0.10251  0.19665  1.0000
  H   H799      1.0  0.86787  0.19271  0.25492  1.0000
  H   H800      1.0  0.06198  0.50947  0.52758  1.0000
  C   C492      1.0  0.88203  0.10297  0.11583  1.0000
  H   H801      1.0  0.88935  0.22635  0.11640  1.0000
  C   C493      1.0  0.10772  0.14181  0.37224  1.0000
  H   H802      1.0  0.10669  0.08171  0.33589  1.0000
  H   H803      1.0  0.96886  0.42889  0.97938  1.0000
  S   S194      1.0  0.05090  0.25042  0.97875  1.0000
  S   S195      1.0  0.91436  0.37279  0.94871  1.0000
  H   H804      1.0  0.00338  0.39046  0.93788  1.0000
  S   S196      1.0  0.92742  0.19708  0.95328  1.0000
  H   H805      1.0  0.04422  0.54341  0.64624  1.0000
  Fe  Fe98      1.0  0.88536  0.14273  0.00196  1.0000
  S   S197      1.0  0.89223  0.14615  0.92152  1.0000
  Fe  Fe99      1.0  0.03038  0.26895  0.03680  1.0000
  Fe  Fe100     1.0  0.92392  0.14388  0.94582  1.0000
  S   S198      1.0  0.04940  0.15668  0.99259  1.0000
  Fe  Fe101     1.0  0.89500  0.19897  0.93640  1.0000
  S   S199      1.0  0.88276  0.23676  0.88623  1.0000
  H   H806      1.0  0.04778  0.55197  0.91450  1.0000
  S   S200      1.0  0.88514  0.19584  0.01498  1.0000
  H   H807      1.0  0.89873  0.30236  0.73097  1.0000
  C   C494      1.0  0.96783  0.24238  0.10522  1.0000
  S   S201      1.0  0.07819  0.22172  0.06949  1.0000
  C   C495      1.0  0.05589  0.09555  0.02417  1.0000
  C   C496      1.0  0.96447  0.27236  0.01353  1.0000
  Fe  Fe102     1.0  0.10260  0.49038  0.65227  1.0000
  N   N51       1.0  0.97466  0.37882  0.96647  1.0000
  C   C497      1.0  0.90341  0.33563  0.93531  1.0000
  C   C498      1.0  0.90873  0.30852  0.96259  1.0000
  C   C499      1.0  0.90143  0.27821  0.94925  1.0000
  C   C500      1.0  0.88880  0.27497  0.90879  1.0000
  C   C501      1.0  0.88258  0.30229  0.88338  1.0000
  C   C502      1.0  0.89005  0.33254  0.89626  1.0000
  H   H808      1.0  0.91883  0.31081  0.99331  1.0000
  H   H809      1.0  0.90576  0.25726  0.96977  1.0000
  H   H810      1.0  0.93325  0.31519  0.71249  1.0000
  H   H811      1.0  0.88537  0.35341  0.87610  1.0000
  C   C503      1.0  0.99457  0.18806  0.99497  1.0000
  H   H812      1.0  0.97661  0.36197  0.89183  1.0000
  Fe  Fe103     1.0  0.91734  0.18993  0.03110  1.0000
  H   H813      1.0  0.07118  0.53159  0.91691  1.0000
  S   S202      1.0  0.93203  0.21215  0.09705  1.0000
  C   C504      1.0  0.89302  0.39236  0.66558  1.0000
  C   C505      1.0  0.94879  0.25415  0.03213  1.0000
  Fe  Fe104     1.0  0.05214  0.20598  0.02475  1.0000
  S   S203      1.0  0.91677  0.13643  0.02521  1.0000
  Fe  Fe105     1.0  0.07488  0.26821  0.02886  1.0000
  H   H814      1.0  0.93529  0.25211  0.01135  1.0000
  C   C506      1.0  0.10671  0.31027  0.09656  1.0000
  C   C507      1.0  0.87637  0.37581  0.64846  1.0000
  H   H815      1.0  0.96310  0.28352  0.97782  1.0000
  S   S204      1.0  0.97155  0.47352  0.84780  1.0000
  N   N52       1.0  0.98927  0.15708  0.01793  1.0000
  H   H816      1.0  0.87257  0.35274  0.66410  1.0000
  C   C508      1.0  0.05412  0.12778  0.03772  1.0000
  S   S205      1.0  0.93805  0.39864  0.82809  1.0000
  C   C509      1.0  0.92102  0.08092  0.86082  1.0000
  C   C510      1.0  0.98209  0.27485  0.04014  1.0000
  H   H817      1.0  0.08130  0.40909  0.86719  1.0000
  H   H818      1.0  0.95953  0.15873  0.99120  1.0000
  S   S206      1.0  0.05418  0.29088  0.08322  1.0000
  H   H819      1.0  0.87225  0.30000  0.85317  1.0000
  H   H820      1.0  0.99600  0.13062  0.08377  1.0000
  H   H821      1.0  0.97211  0.34501  0.02589  1.0000
  H   H822      1.0  0.09788  0.36991  0.95292  1.0000
  H   H823      1.0  0.94856  0.51615  0.91340  1.0000
  C   C511      1.0  0.98361  0.26049  0.08653  1.0000
  C   C512      1.0  0.96775  0.15599  0.02631  1.0000
  H   H824      1.0  0.99550  0.17349  0.09139  1.0000
  H   H825      1.0  0.91548  0.54231  0.91212  1.0000
  N   N53       1.0  0.92361  0.28750  0.77478  1.0000
  C   C513      1.0  0.92576  0.25625  0.74959  1.0000
  C   C514      1.0  0.93694  0.31134  0.75202  1.0000
  C   C515      1.0  0.92873  0.28383  0.82739  1.0000
  C   C516      1.0  0.90296  0.29856  0.77014  1.0000
  H   H826      1.0  0.91578  0.23784  0.76603  1.0000
  H   H827      1.0  0.94113  0.24703  0.75248  1.0000
  H   H828      1.0  0.92197  0.25815  0.70981  1.0000
  H   H829      1.0  0.96292  0.17556  0.05135  1.0000
  H   H830      1.0  0.95266  0.30379  0.75429  1.0000
  H   H831      1.0  0.05340  0.08838  0.98637  1.0000
  H   H832      1.0  0.92631  0.30655  0.84816  1.0000
  H   H833      1.0  0.94442  0.27671  0.83243  1.0000
  H   H834      1.0  0.91950  0.26499  0.84509  1.0000
  Fe  Fe106     1.0  0.91444  0.40899  0.77237  1.0000
  H   H835      1.0  0.89246  0.28083  0.78618  1.0000
  S   S207      1.0  0.08231  0.45006  0.63223  1.0000
  S   S208      1.0  0.00249  0.29399  0.01352  1.0000
  H   H836      1.0  0.98670  0.19154  0.95938  1.0000
  C   C517      1.0  0.97062  0.35446  0.92814  1.0000
  H   H837      1.0  0.95444  0.35042  0.92361  1.0000
  C   C518      1.0  0.96602  0.40988  0.95148  1.0000
  C   C519      1.0  0.92142  0.55955  0.93983  1.0000
  H   H838      1.0  0.01070  0.18960  0.98748  1.0000
  C   C520      1.0  0.04993  0.56136  0.61938  1.0000
  H   H839      1.0  0.01122  0.13024  0.97847  1.0000
  H   H840      1.0  0.91239  0.10260  0.86192  1.0000
  C   C521      1.0  0.95057  0.23858  0.07740  1.0000
  S   S209      1.0  0.02968  0.22283  0.07881  1.0000
  C   C522      1.0  0.99624  0.38255  0.97269  1.0000
  S   S210      1.0  0.90819  0.37482  0.71040  1.0000
  H   H841      1.0  0.90069  0.32192  0.78930  1.0000
  H   H842      1.0  0.09842  0.10590  0.04282  1.0000
  C   C523      1.0  0.87122  0.55963  0.87219  1.0000
  Fe  Fe107     1.0  0.91418  0.40594  0.88366  1.0000
  H   H843      1.0  0.97746  0.33100  0.93783  1.0000
  H   H844      1.0  0.93562  0.33514  0.77040  1.0000
  C   C524      1.0  0.99500  0.13053  0.98483  1.0000
  C   C525      1.0  0.06627  0.08228  0.10719  1.0000
  H   H845      1.0  0.99983  0.40054  0.00166  1.0000
  H   H846      1.0  0.09151  0.36174  0.81668  1.0000
  H   H847      1.0  0.96838  0.38613  0.04329  1.0000
  H   H848      1.0  0.10384  0.42785  0.84856  1.0000
  C   C526      1.0  0.10693  0.36550  0.82989  1.0000
  H   H849      1.0  0.99071  0.10685  0.00030  1.0000
  H   H850      1.0  0.97224  0.41833  0.91584  1.0000
  H   H851      1.0  0.00328  0.35953  0.98382  1.0000
  N   N54       1.0  0.10741  0.38069  0.87911  1.0000
  H   H852      1.0  0.91067  0.43515  0.65873  1.0000
  H   H853      1.0  0.94975  0.40806  0.94671  1.0000
  H   H854      1.0  0.98771  0.13281  0.94822  1.0000
  C   C527      1.0  0.96579  0.36831  0.01348  1.0000
  S   S211      1.0  0.10687  0.37316  0.69470  1.0000
  H   H855      1.0  0.03633  0.48600  0.77044  1.0000
  H   H856      1.0  0.85876  0.55124  0.89356  1.0000
  H   H857      1.0  0.94952  0.36490  0.00991  1.0000
  Fe  Fe108     1.0  0.89779  0.46419  0.83028  1.0000
  S   S212      1.0  0.92028  0.46212  0.76982  1.0000
  S   S213      1.0  0.87264  0.49892  0.83431  1.0000
  H   H858      1.0  0.95133  0.52501  0.97776  1.0000
  S   S214      1.0  0.02979  0.47707  0.66605  1.0000
  C   C528      1.0  0.01373  0.47568  0.71676  1.0000
  N   N55       1.0  0.94281  0.56519  0.93299  1.0000
  Fe  Fe109     1.0  0.94172  0.45205  0.83150  1.0000
  Fe  Fe110     1.0  0.09405  0.48356  0.76119  1.0000
  Fe  Fe111     1.0  0.06165  0.47140  0.68740  1.0000
  S   S215      1.0  0.08070  0.51429  0.70201  1.0000
  C   C529      1.0  0.88079  0.53869  0.83974  1.0000
  C   C530      1.0  0.89688  0.54957  0.81220  1.0000
  C   C531      1.0  0.06366  0.55395  0.90458  1.0000
  H   H859      1.0  0.90420  0.53355  0.78675  1.0000
  C   C532      1.0  0.93963  0.07996  0.88306  1.0000
  C   C533      1.0  0.98059  0.46836  0.74947  1.0000
  S   S216      1.0  0.91957  0.45864  0.89183  1.0000
  S   S217      1.0  0.09727  0.50427  0.83737  1.0000
  H   H860      1.0  0.08040  0.55974  0.99547  1.0000
  C   C534      1.0  0.00775  0.48051  0.80453  1.0000
  H   H861      1.0  0.91812  0.54976  0.97698  1.0000
  C   C535      1.0  0.98764  0.47406  0.79710  1.0000
  H   H862      1.0  0.96509  0.46339  0.74345  1.0000
  S   S218      1.0  0.89020  0.41200  0.82785  1.0000
  H   H863      1.0  0.96309  0.13284  0.04298  1.0000
  C   C536      1.0  0.99360  0.46952  0.70930  1.0000
  C   C537      1.0  0.99961  0.15379  0.06559  1.0000
  S   S219      1.0  0.07327  0.44211  0.75027  1.0000
  H   H864      1.0  0.98807  0.46533  0.67246  1.0000
  H   H865      1.0  0.10459  0.33564  0.91685  1.0000
  C   C538      1.0  0.05718  0.13694  0.08674  1.0000
  C   C539      1.0  0.02083  0.48104  0.76447  1.0000
  Fe  Fe112     1.0  0.09579  0.42427  0.69611  1.0000
  C   C540      1.0  0.89775  0.42232  0.64574  1.0000
  C   C541      1.0  0.95361  0.53476  0.94011  1.0000
  H   H866      1.0  0.01325  0.48495  0.84131  1.0000
  H   H867      1.0  0.88904  0.07310  0.94184  1.0000
  H   H868      1.0  0.89512  0.10241  0.09349  1.0000
  H   H869      1.0  0.86761  0.45406  0.72009  1.0000
  H   H870      1.0  0.10533  0.50610  0.94062  1.0000
  H   H871      1.0  0.08165  0.35555  0.90522  1.0000
  S   S220      1.0  0.94846  0.11283  0.91688  1.0000
  H   H872      1.0  0.99062  0.20861  0.01915  1.0000
  H   H873      1.0  0.99698  0.26323  0.10797  1.0000
  H   H874      1.0  0.96977  0.53793  0.93437  1.0000
  H   H875      1.0  0.94136  0.55968  0.85438  1.0000
  H   H876      1.0  0.05551  0.16174  0.09765  1.0000
  H   H877      1.0  0.06470  0.55445  0.86367  1.0000
  H   H878      1.0  0.01589  0.15470  0.06078  1.0000
  C   C542      1.0  0.09741  0.35963  0.91504  1.0000
  C   C543      1.0  0.09718  0.41197  0.87694  1.0000
  H   H879      1.0  0.09803  0.42491  0.91280  1.0000
  H   H880      1.0  0.09621  0.29153  0.10487  1.0000
  S   S221      1.0  0.10119  0.29467  0.99957  1.0000
  H   H881      1.0  0.09509  0.14792  0.03134  1.0000
  H   H882      1.0  0.10358  0.56241  0.64870  1.0000
  S   S222      1.0  0.86127  0.11067  0.03014  1.0000
  C   C544      1.0  0.86339  0.10540  0.09394  1.0000
  C   C545      1.0  0.06196  0.07280  0.05893  1.0000
  H   H883      1.0  0.10237  0.56350  0.92480  1.0000
  C   C546      1.0  0.10636  0.12853  0.03392  1.0000
  H   H884      1.0  0.06526  0.56770  0.63069  1.0000
  H   H885      1.0  0.08355  0.66413  0.32640  1.0000
  H   H886      1.0  0.09605  0.81437  0.29926  1.0000
  C   C547      1.0  0.06866  0.68001  0.26082  1.0000
  H   H887      1.0  0.09165  0.04215  0.54143  1.0000
  H   H888      1.0  0.05513  0.68603  0.27980  1.0000
  C   C548      1.0  0.08482  0.66794  0.28729  1.0000
  H   H889      1.0  0.08877  0.68024  0.14654  1.0000
  C   C549      1.0  0.10241  0.66043  0.26299  1.0000
  H   H890      1.0  0.04336  0.87917  0.51596  1.0000
  C   C550      1.0  0.10191  0.80809  0.54669  1.0000
  C   C551      1.0  0.08755  0.67648  0.18560  1.0000
  H   H891      1.0  0.86285  0.62405  0.23894  1.0000
  C   C552      1.0  0.07013  0.68476  0.21002  1.0000
  S   S223      1.0  0.08975  0.94275  0.55531  1.0000
  S   S224      1.0  0.05085  0.70345  0.17797  1.0000
  C   C553      1.0  0.10415  0.60467  0.60308  1.0000
  H   H892      1.0  0.02051  0.90193  0.60659  1.0000
  H   H893      1.0  0.06710  0.87876  0.54562  1.0000
  H   H894      1.0  0.88655  0.95532  0.58579  1.0000
  C   C554      1.0  0.04407  0.83162  0.58217  1.0000
  H   H895      1.0  0.09214  0.58882  0.14151  1.0000
  H   H896      1.0  0.05971  0.82404  0.57673  1.0000
  H   H897      1.0  0.08389  0.82956  0.24516  1.0000
  H   H898      1.0  0.06337  0.74748  0.25936  1.0000
  C   C555      1.0  0.09463  0.81133  0.25862  1.0000
  C   C556      1.0  0.06879  0.77196  0.26871  1.0000
  H   H899      1.0  0.86935  0.70935  0.27629  1.0000
  H   H900      1.0  0.10413  0.75632  0.30533  1.0000
  S   S225      1.0  0.07809  0.05561  0.14728  1.0000
  H   H901      1.0  0.06964  0.77361  0.30962  1.0000
  H   H902      1.0  0.03579  0.82515  0.54813  1.0000
  C   C557      1.0  0.02188  0.87568  0.59947  1.0000
  N   N56       1.0  0.04276  0.86637  0.59265  1.0000
  H   H903      1.0  0.09853  0.73013  0.25500  1.0000
  H   H904      1.0  0.87845  0.99485  0.60123  1.0000
  C   C558      1.0  0.86962  0.68691  0.25400  1.0000
  C   C559      1.0  0.88824  0.97491  0.61349  1.0000
  H   H905      1.0  0.07293  0.57897  0.54287  1.0000
  H   H906      1.0  0.05738  0.78919  0.25580  1.0000
  C   C560      1.0  0.05120  0.88457  0.55103  1.0000
  N   N57       1.0  0.08819  0.77845  0.24585  1.0000
  C   C561      1.0  0.10184  0.06002  0.52776  1.0000
  S   S226      1.0  0.85983  0.98499  0.50316  1.0000
  C   C562      1.0  0.08651  0.77534  0.19176  1.0000
  S   S227      1.0  0.09930  0.69251  0.41178  1.0000
  H   H907      1.0  0.03791  0.81714  0.61294  1.0000
  H   H908      1.0  0.07545  0.79234  0.17636  1.0000
  C   C563      1.0  0.10282  0.75512  0.26451  1.0000
  C   C564      1.0  0.10363  0.66407  0.21191  1.0000
  H   H909      1.0  0.04872  0.59578  0.53626  1.0000
  H   H910      1.0  0.08176  0.75074  0.18096  1.0000
  H   H911      1.0  0.88162  0.67142  0.26874  1.0000
  H   H912      1.0  0.87373  0.69364  0.21564  1.0000
  C   C565      1.0  0.05725  0.57301  0.53428  1.0000
  H   H913      1.0  0.90374  0.98366  0.61170  1.0000
  H   H914      1.0  0.86503  0.03457  0.43055  1.0000
  C   C566      1.0  0.10343  0.84241  0.45850  1.0000
  H   H915      1.0  0.09738  0.76638  0.50124  1.0000
  C   C567      1.0  0.10114  0.80898  0.45754  1.0000
  H   H916      1.0  0.10440  0.85562  0.42434  1.0000
  S   S228      1.0  0.10148  0.78807  0.40151  1.0000
  C   C568      1.0  0.09984  0.79202  0.50173  1.0000
  H   H917      1.0  0.10086  0.78006  0.17325  1.0000
  H   H918      1.0  0.05007  0.91093  0.55737  1.0000
  H   H919      1.0  0.01286  0.87015  0.56623  1.0000
  H   H920      1.0  0.10131  0.79464  0.58069  1.0000
  S   S229      1.0  0.10476  0.65835  0.54553  1.0000
  C   C569      1.0  0.10526  0.84120  0.54769  1.0000
  C   C570      1.0  0.10557  0.85856  0.50366  1.0000
  Fe  Fe113     1.0  0.10777  0.91309  0.60724  1.0000
  C   C571      1.0  0.10740  0.57206  0.61312  1.0000
  S   S230      1.0  0.88244  0.70425  0.05633  1.0000
  C   C572      1.0  0.99541  0.66864  0.98622  1.0000
  Fe  Fe114     1.0  0.91156  0.68667  0.02782  1.0000
  H   H921      1.0  0.99949  0.02200  0.83934  1.0000
  C   C573      1.0  0.09178  0.81747  0.06546  1.0000
  C   C574      1.0  0.97892  0.68073  0.06316  1.0000
  Fe  Fe115     1.0  0.87766  0.72157  0.97918  1.0000
  H   H922      1.0  0.94559  0.67367  0.96997  1.0000
  S   S231      1.0  0.08576  0.72561  0.06861  1.0000
  H   H923      1.0  0.01037  0.67519  0.05561  1.0000
  S   S232      1.0  0.90797  0.70858  0.95331  1.0000
  S   S233      1.0  0.09225  0.92968  0.67512  1.0000
  C   C575      1.0  0.09504  0.98091  0.79093  1.0000
  H   H924      1.0  0.87174  0.04379  0.03648  1.0000
  H   H925      1.0  0.05620  0.57770  0.99387  1.0000
  N   N58       1.0  0.88304  0.96381  0.66349  1.0000
  S   S234      1.0  0.05864  0.66009  0.05121  1.0000
  H   H926      1.0  0.01510  0.86305  0.63135  1.0000
  H   H927      1.0  0.10111  0.60644  0.92667  1.0000
  H   H928      1.0  0.87101  0.60694  0.90446  1.0000
  S   S235      1.0  0.06865  0.70815  0.95808  1.0000
  C   C576      1.0  0.07172  0.58041  0.98110  1.0000
  C   C577      1.0  0.88356  0.73409  0.83128  1.0000
  H   H929      1.0  0.89011  0.78710  0.73757  1.0000
  C   C578      1.0  0.86243  0.95214  0.66351  1.0000
  S   S236      1.0  0.01727  0.66588  0.95213  1.0000
  H   H930      1.0  0.91562  0.58994  0.79521  1.0000
  Fe  Fe116     1.0  0.89417  0.66163  0.93263  1.0000
  S   S237      1.0  0.90406  0.64041  0.86082  1.0000
  C   C579      1.0  0.99628  0.67469  0.03680  1.0000
  S   S238      1.0  0.90032  0.63833  0.00531  1.0000
  C   C580      1.0  0.89415  0.60208  0.85061  1.0000
  C   C581      1.0  0.86832  0.85910  0.65546  1.0000
  H   H931      1.0  0.09459  0.79223  0.07037  1.0000
  H   H932      1.0  0.89750  0.72019  0.82698  1.0000
  C   C582      1.0  0.10208  0.61782  0.08092  1.0000
  C   C583      1.0  0.95967  0.67364  0.98877  1.0000
  H   H933      1.0  0.91055  0.99466  0.97754  1.0000
  C   C584      1.0  0.97706  0.66744  0.96235  1.0000
  H   H934      1.0  0.06270  0.61422  0.86962  1.0000
  Fe  Fe117     1.0  0.04184  0.68852  0.99566  1.0000
  C   C585      1.0  0.09380  0.58458  0.91163  1.0000
  Fe  Fe118     1.0  0.08546  0.68303  0.01794  1.0000
  H   H935      1.0  0.91291  0.58223  0.93599  1.0000
  N   N59       1.0  0.07288  0.58268  0.92690  1.0000
  H   H936      1.0  0.89960  0.78603  0.87242  1.0000
  H   H937      1.0  0.97637  0.66297  0.92314  1.0000
  H   H938      1.0  0.94709  0.58122  0.00765  1.0000
  H   H939      1.0  0.87652  0.75008  0.73668  1.0000
  C   C586      1.0  0.87084  0.99878  0.96651  1.0000
  S   S239      1.0  0.93943  0.69170  0.07184  1.0000
  H   H940      1.0  0.89747  0.84138  0.63843  1.0000
  H   H941      1.0  0.05359  0.89984  0.64632  1.0000
  H   H942      1.0  0.04781  0.86101  0.67045  1.0000
  H   H943      1.0  0.89922  0.05473  0.81910  1.0000
  H   H944      1.0  0.08341  0.90837  0.04428  1.0000
  C   C587      1.0  0.08575  0.88314  0.05057  1.0000
  C   C588      1.0  0.91369  0.05392  0.83605  1.0000
  C   C589      1.0  0.96064  0.68072  0.03908  1.0000
  H   H945      1.0  0.87535  0.97796  0.98959  1.0000
  S   S240      1.0  0.07947  0.97339  0.07228  1.0000
  H   H946      1.0  0.87144  0.71972  0.81442  1.0000
  H   H947      1.0  0.00991  0.00733  0.97215  1.0000
  H   H948      1.0  0.97970  0.68598  0.10215  1.0000
  C   C590      1.0  0.95114  0.05220  0.87934  1.0000
  Fe  Fe119     1.0  0.93826  0.89146  0.89361  1.0000
  S   S241      1.0  0.95573  0.86293  0.83913  1.0000
  S   S242      1.0  0.93438  0.87091  0.96922  1.0000
  Fe  Fe120     1.0  0.93140  0.94614  0.82208  1.0000
  S   S243      1.0  0.94827  0.92234  0.76147  1.0000
  S   S244      1.0  0.91440  0.99135  0.80764  1.0000
  Fe  Fe121     1.0  0.93236  0.87773  0.78522  1.0000
  C   C591      1.0  0.08112  0.89798  0.90231  1.0000
  Fe  Fe122     1.0  0.97006  0.90997  0.82100  1.0000
  S   S245      1.0  0.00327  0.91374  0.81971  1.0000
  S   S246      1.0  0.91370  0.90264  0.84123  1.0000
  S   S247      1.0  0.95439  0.93755  0.88022  1.0000
  H   H949      1.0  0.09526  0.58522  0.87085  1.0000
  H   H950      1.0  0.06503  0.86860  0.99462  1.0000
  C   C592      1.0  0.03157  0.95378  0.68046  1.0000
  H   H951      1.0  0.86386  0.06154  0.95103  1.0000
  H   H952      1.0  0.88040  0.73573  0.87141  1.0000
  H   H953      1.0  0.03496  0.95863  0.87671  1.0000
  C   C593      1.0  0.88778  0.85014  0.66707  1.0000
  S   S248      1.0  0.86545  0.76952  0.95827  1.0000
  N   N60       1.0  0.88506  0.76633  0.80883  1.0000
  S   S249      1.0  0.10509  0.03404  0.02775  1.0000
  H   H954      1.0  0.91596  0.77226  0.82512  1.0000
  Fe  Fe123     1.0  0.09380  0.98669  0.00086  1.0000
  H   H955      1.0  0.90047  0.99982  0.70028  1.0000
  N   N61       1.0  0.97838  0.77975  0.00289  1.0000
  H   H956      1.0  0.96366  0.82506  0.99464  1.0000
  H   H957      1.0  0.95258  0.00360  0.85242  1.0000
  C   C594      1.0  0.05399  0.87374  0.63797  1.0000
  C   C595      1.0  0.91435  0.84417  0.96999  1.0000
  C   C596      1.0  0.91562  0.81572  0.99710  1.0000
  C   C597      1.0  0.10093  0.58948  0.10828  1.0000
  C   C598      1.0  0.88363  0.79901  0.96581  1.0000
  C   C599      1.0  0.88190  0.82817  0.94075  1.0000
  C   C600      1.0  0.89737  0.85053  0.94232  1.0000
  C   C601      1.0  0.89640  0.93749  0.67827  1.0000
  C   C602      1.0  0.07871  0.82774  0.02875  1.0000
  C   C603      1.0  0.90480  0.01437  0.95393  1.0000
  H   H958      1.0  0.89596  0.87293  0.92285  1.0000
  C   C604      1.0  0.01384  0.92924  0.76587  1.0000
  C   C605      1.0  0.03422  0.93483  0.76460  1.0000
  C   C606      1.0  0.04303  0.94735  0.72213  1.0000
  H   H959      1.0  0.05864  0.95220  0.72182  1.0000
  C   C607      1.0  0.01115  0.94871  0.68202  1.0000
  C   C608      1.0  0.00229  0.93645  0.72468  1.0000
  H   H960      1.0  0.04322  0.92948  0.79647  1.0000
  S   S250      1.0  0.09679  0.00325  0.63220  1.0000
  S   S251      1.0  0.07602  0.98125  0.93148  1.0000
  H   H961      1.0  0.98658  0.93230  0.72532  1.0000
  H   H962      1.0  0.96562  0.05158  0.89602  1.0000
  C   C609      1.0  0.96898  0.80458  0.97195  1.0000
  C   C610      1.0  0.88875  0.76316  0.75544  1.0000
  H   H963      1.0  0.97944  0.81453  0.94434  1.0000
  H   H964      1.0  0.91582  0.03425  0.95446  1.0000
  C   C611      1.0  0.86639  0.78394  0.81672  1.0000
  H   H965      1.0  0.97035  0.74826  0.06238  1.0000
  H   H966      1.0  0.08510  0.84649  0.84357  1.0000
  S   S252      1.0  0.06727  0.80057  0.98814  1.0000
  H   H967      1.0  0.86691  0.80829  0.80005  1.0000
  H   H968      1.0  0.08880  0.97672  0.75491  1.0000
  H   H969      1.0  0.08309  0.91089  0.93793  1.0000
  C   C612      1.0  0.08288  0.98002  0.83259  1.0000
  H   H970      1.0  0.90270  0.74994  0.74808  1.0000
  H   H971      1.0  0.06914  0.63391  0.92627  1.0000
  S   S253      1.0  0.04262  0.96611  0.62522  1.0000
  Fe  Fe124     1.0  0.07570  0.96205  0.62397  1.0000
  C   C613      1.0  0.88645  0.03616  0.02238  1.0000
  S   S254      1.0  0.03791  0.73131  0.04475  1.0000
  C   C614      1.0  0.87861  0.05247  0.93941  1.0000
  H   H972      1.0  0.91208  0.94552  0.67935  1.0000
  C   C615      1.0  0.96375  0.76689  0.03809  1.0000
  H   H973      1.0  0.06385  0.04804  0.04800  1.0000
  H   H974      1.0  0.00224  0.77610  0.05490  1.0000
  C   C616      1.0  0.98573  0.75348  0.97130  1.0000
  H   H975      1.0  0.01280  0.94810  0.90887  1.0000
  N   N62       1.0  0.01654  0.99868  0.89598  1.0000
  H   H976      1.0  0.86322  0.78702  0.85662  1.0000
  C   C617      1.0  0.92488  0.02579  0.83386  1.0000
  H   H977      1.0  0.00672  0.80323  0.00489  1.0000
  H   H978      1.0  0.01620  0.99166  0.81752  1.0000
  H   H979      1.0  0.95100  0.75543  0.01882  1.0000
  C   C618      1.0  0.09093  0.98551  0.87936  1.0000
  C   C619      1.0  0.00257  0.00760  0.93542  1.0000
  H   H980      1.0  0.06734  0.97460  0.82851  1.0000
  Fe  Fe125     1.0  0.87062  0.65759  0.02739  1.0000
  H   H981      1.0  0.06930  0.87969  0.90758  1.0000
  N   N63       1.0  0.88518  0.02544  0.97058  1.0000
  C   C620      1.0  0.87810  0.59116  0.87826  1.0000
  H   H982      1.0  0.92844  0.81107  0.01960  1.0000
  H   H983      1.0  0.94173  0.61246  0.96446  1.0000
  H   H984      1.0  0.04092  0.02353  0.92988  1.0000
  C   C621      1.0  0.99512  0.79405  0.03030  1.0000
  H   H985      1.0  0.88705  0.86512  0.78994  1.0000
  H   H986      1.0  0.97342  0.74110  0.95170  1.0000
  H   H987      1.0  0.09761  0.61995  0.63083  1.0000
  H   H988      1.0  0.90166  0.77059  0.01445  1.0000
  H   H989      1.0  0.86955  0.99011  0.92782  1.0000
  H   H990      1.0  0.95772  0.78606  0.06229  1.0000
  H   H991      1.0  0.87527  0.01112  0.68848  1.0000
  H   H992      1.0  0.89189  0.01675  0.04694  1.0000
  C   C622      1.0  0.10181  0.84009  0.09475  1.0000
  H   H993      1.0  0.99386  0.98026  0.84798  1.0000
  H   H994      1.0  0.99633  0.76237  0.94319  1.0000
  C   C623      1.0  0.90328  0.58146  0.81689  1.0000
  H   H995      1.0  0.90265  0.80908  0.81715  1.0000
  H   H996      1.0  0.03313  0.96614  0.94149  1.0000
  H   H997      1.0  0.99652  0.03210  0.92957  1.0000
  H   H998      1.0  0.99019  0.81444  0.05375  1.0000
  C   C624      1.0  0.89482  0.85335  0.71531  1.0000
  H   H999      1.0  0.87757  0.04534  0.90000  1.0000
  C   C625      1.0  0.90043  0.79287  0.99431  1.0000
  C   C626      1.0  0.88208  0.86399  0.75229  1.0000
  H   H1000     1.0  0.02730  0.04687  0.88574  1.0000
  H   H1001     1.0  0.99361  0.73510  0.99342  1.0000
  H   H1002     1.0  0.88101  0.98311  0.73669  1.0000
  S   S255      1.0  0.91946  0.84386  0.72915  1.0000
  C   C627      1.0  0.07546  0.86058  0.02210  1.0000
  H   H1003     1.0  0.04386  0.01589  0.86553  1.0000
  H   H1004     1.0  0.07560  0.91582  0.87513  1.0000
  H   H1005     1.0  0.09089  0.88241  0.80985  1.0000
  C   C628      1.0  0.94373  0.02503  0.85495  1.0000
  C   C629      1.0  0.90154  0.78421  0.83189  1.0000
  Fe  Fe126     1.0  0.06631  0.74884  0.01209  1.0000
  C   C630      1.0  0.88501  0.99070  0.69869  1.0000
  H   H1006     1.0  0.00217  0.95389  0.64999  1.0000
  H   H1007     1.0  0.98986  0.99060  0.93690  1.0000
  C   C631      1.0  0.00606  0.99823  0.84816  1.0000
  H   H1008     1.0  0.07766  0.60244  0.99881  1.0000
  H   H1009     1.0  0.95596  0.79490  0.95165  1.0000
  C   C632      1.0  0.06235  0.61182  0.91037  1.0000
  C   C633      1.0  0.02469  0.96650  0.90628  1.0000
  Fe  Fe127     1.0  0.09326  0.01856  0.10086  1.0000
  C   C634      1.0  0.09896  0.87300  0.08693  1.0000
  H   H1010     1.0  0.90413  0.00493  0.91561  1.0000
  C   C635      1.0  0.03281  0.02235  0.89418  1.0000
  H   H1011     1.0  0.89269  0.92832  0.71562  1.0000
  H   H1012     1.0  0.04657  0.61159  0.92205  1.0000
  C   C636      1.0  0.94970  0.58929  0.96917  1.0000
  H   H1013     1.0  0.86036  0.93205  0.63695  1.0000
  C   C637      1.0  0.09633  0.86584  0.83903  1.0000
  H   H1014     1.0  0.89539  0.91689  0.65228  1.0000
  C   C638      1.0  0.10675  0.86023  0.92364  1.0000
  H   H1015     1.0  0.96576  0.59440  0.96510  1.0000
  S   S256      1.0  0.86332  0.67634  0.95199  1.0000
  H   H1016     1.0  0.86880  0.83318  0.91923  1.0000
  H   H1017     1.0  0.04078  0.58337  0.62310  1.0000
  H   H1018     1.0  0.93852  0.60020  0.87596  1.0000
  H   H1019     1.0  0.89654  0.05713  0.02645  1.0000
  Fe  Fe128     1.0  0.05747  0.70469  0.09719  1.0000
  H   H1020     1.0  0.09424  0.63878  0.09315  1.0000
  C   C639      1.0  0.86259  0.87243  0.74089  1.0000
  H   H1021     1.0  0.86299  0.85674  0.61815  1.0000
  H   H1022     1.0  0.06979  0.86679  0.63439  1.0000
  N   N64       1.0  0.09977  0.88308  0.88585  1.0000
  H   H1023     1.0  0.09566  0.84092  0.93034  1.0000
  H   H1024     1.0  0.96245  0.58173  0.87621  1.0000
  C   C640      1.0  0.94646  0.57722  0.88267  1.0000
