data_image0
_chemical_formula_structural       HSFeS2CS3C6H5CHNFeH3SHSH3C3HCH2CFeCHSHC2FeHC2HSCH3C2H5NHCFeC2H2NH5CH5CHFeCHCHFeH2CSC2SC2SH3SFeH3FeSNFeS4C6H5C2H8CNHSFeCH3CH2FeSCFeSCFeSFeS2H3SCH4CHSCHCH2CSHC2H2C3HC4H2CHNH2CSHC2H7CH5CFeHSHC2HC2H2S2HCFeH2C3H4CH3SC3H6CNCSH2FeSH2FeS2C3NHSNC2H2CH3C2H4CFe2CH3C2H4C2HCH4CSH2N2H3SCHSHC2FeH4SHNC2HCH2SFeH3CSCSCHCNHCH3CHC2SFeSHSCH9C5HSCHCSH5CHCHC2HSHSCH6CSHC2HC3H3C2FeCHFeCH2CSHCH2SH3SHC3H5SH3C2HFeC2HC3H3C2SCH2SCHC2H7CHCHFeCFeSHCHS2HC2SH5C2FeH3FeH3CH2SH2C3HNHCHCNHC2HC2H2C3H2FeSH2SH3C2H2C3H3SHC2H2NH2CH3CSFeH2CHCH4SC2SC4HSHSH2CHCH2NH9CH2C2N2HFeSC2HC2SH2CH2CFeH3CHFeCSHCH2CSC2FeH6SCH2NHCHS2CSH2CSHFeH2SC3H3C3NFeH2SCHC3H3SC2HSCFeSCHSH4SH7CHFeCHCHC2HFeH3FeS2FeSFeS3CHCH3CHCHSCSH3C2FeHCH3SHC2NC2H3CHC3HFeH4CH5CHCFeSC2H5CHCH2CHCHC2SHCH4SH3FeC2FeS2NFe2S2CNCH3CH4C2H3CH3C2NCHCH3CSHCH2FeNHSHFeSFeS2HCSFeNH3C6H4SH3CHCH2NHFeH2CH4NC3SNHC2HCFeSCH5CH3CH2CH2CH2S2HC3H3FeCS2C2HFeCH2SC3S2CFeCS3C4H3CHCS2HCHC3H5NH3SHSH2C2FeHCH3CHCFeNH2FeH2CH3S
_chemical_formula_sum              "H512 S128 Fe64 C320 N32"
_cell_length_a       29.4761
_cell_length_b       42.6169
_cell_length_c       31.4069
_cell_angle_alpha    90.2694
_cell_angle_beta     116.624
_cell_angle_gamma    89.7385

_space_group_name_H-M_alt    "P 1"
_space_group_IT_number       1

loop_
  _space_group_symop_operation_xyz
  'x, y, z'

loop_
  _atom_site_type_symbol
  _atom_site_label
  _atom_site_symmetry_multiplicity
  _atom_site_fract_x
  _atom_site_fract_y
  _atom_site_fract_z
  _atom_site_occupancy
  H   H1        1.0  0.30828  0.18082  0.26534  1.0000
  S   S1        1.0  0.43480  0.17943  0.28237  1.0000
  Fe  Fe1       1.0  0.38776  0.13680  0.27462  1.0000
  S   S2        1.0  0.32302  0.13122  0.20100  1.0000
  S   S3        1.0  0.45422  0.10418  0.30164  1.0000
  C   C1        1.0  0.50469  0.19852  0.17688  1.0000
  S   S4        1.0  0.09804  0.13393  0.17622  1.0000
  S   S5        1.0  0.07834  0.19916  0.08448  1.0000
  S   S6        1.0  0.47045  0.06854  0.41841  1.0000
  C   C2        1.0  0.26070  0.12928  0.19455  1.0000
  C   C3        1.0  0.22021  0.13446  0.14951  1.0000
  C   C4        1.0  0.17020  0.13556  0.14370  1.0000
  C   C5        1.0  0.16036  0.13115  0.18284  1.0000
  C   C6        1.0  0.20067  0.12483  0.22765  1.0000
  C   C7        1.0  0.25085  0.12398  0.23356  1.0000
  H   H2        1.0  0.22748  0.13838  0.11910  1.0000
  H   H3        1.0  0.13929  0.13991  0.10880  1.0000
  H   H4        1.0  0.19316  0.12111  0.25797  1.0000
  H   H5        1.0  0.28189  0.11944  0.26829  1.0000
  H   H6        1.0  0.15405  0.06146  0.19086  1.0000
  C   C8        1.0  0.42335  0.12105  0.14860  1.0000
  H   H7        1.0  0.52811  0.22551  0.40114  1.0000
  N   N1        1.0  0.26507  0.22357  0.24863  1.0000
  Fe  Fe2       1.0  0.50178  0.14718  0.31493  1.0000
  H   H8        1.0  0.13212  0.02033  0.12863  1.0000
  H   H9        1.0  0.11289  0.06902  0.21780  1.0000
  H   H10       1.0  0.40543  0.18117  0.11857  1.0000
  S   S7        1.0  0.50238  0.20117  0.08934  1.0000
  H   H11       1.0  0.50251  0.19549  0.24430  1.0000
  S   S8        1.0  0.51278  0.15406  0.39019  1.0000
  H   H12       1.0  0.33453  0.24991  0.27863  1.0000
  H   H13       1.0  0.24535  0.19739  0.18401  1.0000
  H   H14       1.0  0.32227  0.11381  0.11088  1.0000
  C   C9        1.0  0.52066  0.05899  0.47485  1.0000
  C   C10       1.0  0.05668  0.05785  0.12477  1.0000
  C   C11       1.0  0.05096  0.01963  0.17868  1.0000
  H   H15       1.0  0.47902  0.21835  0.16489  1.0000
  C   C12       1.0  0.51762  0.18542  0.22174  1.0000
  H   H16       1.0  0.14945  0.03328  0.23118  1.0000
  H   H17       1.0  0.20803  0.23218  0.17683  1.0000
  C   C13       1.0  0.37181  0.16558  0.10723  1.0000
  Fe  Fe3       1.0  0.44084  0.18281  0.35590  1.0000
  C   C14       1.0  0.52184  0.24687  0.41649  1.0000
  H   H18       1.0  0.31716  0.20404  0.31620  1.0000
  S   S9        1.0  0.38864  0.14204  0.34605  1.0000
  H   H19       1.0  0.32487  0.22672  0.22752  1.0000
  C   C15       1.0  0.30506  0.24152  0.24340  1.0000
  C   C16       1.0  0.47324  0.25428  0.41086  1.0000
  Fe  Fe4       1.0  0.46025  0.11279  0.37466  1.0000
  H   H20       1.0  0.14098  0.06655  0.50343  1.0000
  C   C17       1.0  0.52058  0.02942  0.49446  1.0000
  C   C18       1.0  0.28845  0.19645  0.28015  1.0000
  H   H21       1.0  0.08182  0.07036  0.11252  1.0000
  S   S10       1.0  0.42129  0.22974  0.37754  1.0000
  C   C19       1.0  0.40584  0.13132  0.06708  1.0000
  H   H22       1.0  0.19722  0.19794  0.20409  1.0000
  H   H23       1.0  0.07038  0.12302  0.48344  1.0000
  H   H24       1.0  0.13619  0.12461  0.49605  1.0000
  C   C20       1.0  0.23971  0.24388  0.26981  1.0000
  C   C21       1.0  0.22730  0.21234  0.20136  1.0000
  H   H25       1.0  0.35723  0.16760  0.13432  1.0000
  H   H26       1.0  0.45881  0.13506  0.16190  1.0000
  H   H27       1.0  0.34745  0.08813  0.08119  1.0000
  H   H28       1.0  0.34215  0.17498  0.07300  1.0000
  H   H29       1.0  0.25957  0.18210  0.28485  1.0000
  N   N2        1.0  0.08526  0.03443  0.16187  1.0000
  H   H30       1.0  0.40930  0.12240  0.17613  1.0000
  C   C22       1.0  0.12729  0.05016  0.20228  1.0000
  Fe  Fe5       1.0  0.04668  0.15901  0.10830  1.0000
  C   C23       1.0  0.33893  0.11312  0.08526  1.0000
  C   C24       1.0  0.10982  0.12443  0.51262  1.0000
  H   H31       1.0  0.43377  0.09620  0.14632  1.0000
  H   H32       1.0  0.26713  0.25246  0.30574  1.0000
  N   N3        1.0  0.38499  0.13275  0.10202  1.0000
  H   H33       1.0  0.41609  0.10690  0.06207  1.0000
  H   H34       1.0  0.03937  0.07615  0.13843  1.0000
  H   H35       1.0  0.30911  0.12132  0.05021  1.0000
  H   H36       1.0  0.44084  0.14578  0.07889  1.0000
  H   H37       1.0  0.20911  0.23097  0.27389  1.0000
  C   C25       1.0  0.52444  0.18601  0.14730  1.0000
  H   H38       1.0  0.10073  0.26283  0.13322  1.0000
  H   H39       1.0  0.52631  0.05080  0.33679  1.0000
  H   H40       1.0  0.22201  0.26478  0.24718  1.0000
  H   H41       1.0  0.07573  0.06438  0.49262  1.0000
  H   H42       1.0  0.28899  0.26232  0.22003  1.0000
  C   C26       1.0  0.11536  0.06791  0.52074  1.0000
  H   H43       1.0  0.11365  0.14741  0.53110  1.0000
  Fe  Fe6       1.0  0.11202  0.06179  0.68229  1.0000
  C   C27       1.0  0.09678  0.20365  0.63280  1.0000
  H   H44       1.0  0.17856  0.12295  0.60533  1.0000
  C   C28       1.0  0.10596  0.23015  0.61148  1.0000
  H   H45       1.0  0.08723  0.12172  0.58561  1.0000
  Fe  Fe7       1.0  0.03821  0.17664  0.01201  1.0000
  H   H46       1.0  0.13935  0.23091  0.60551  1.0000
  H   H47       1.0  0.06777  0.06033  0.91499  1.0000
  C   C29       1.0  0.06392  0.15318  0.91592  1.0000
  S   S11       1.0  0.13987  0.17203  0.64926  1.0000
  C   C30       1.0  0.13207  0.05970  0.87639  1.0000
  C   C31       1.0  0.08517  0.09897  0.56729  1.0000
  S   S12       1.0  0.11037  0.01822  0.63927  1.0000
  C   C32       1.0  0.05345  0.20273  0.64024  1.0000
  C   C33       1.0  0.07191  0.25559  0.59747  1.0000
  S   S13       1.0  0.18184  0.09149  0.70464  1.0000
  H   H48       1.0  0.17701  0.26070  0.75807  1.0000
  H   H49       1.0  0.30786  0.03273  0.82477  1.0000
  H   H50       1.0  0.20159  0.10086  0.56999  1.0000
  S   S14       1.0  0.05760  0.10245  0.66451  1.0000
  Fe  Fe8       1.0  0.12806  0.13212  0.69037  1.0000
  H   H51       1.0  0.34406  0.03464  0.91204  1.0000
  H   H52       1.0  0.14433  0.07491  0.90854  1.0000
  H   H53       1.0  0.09376  0.08006  0.59410  1.0000
  Fe  Fe9       1.0  0.07410  0.10163  0.74222  1.0000
  S   S15       1.0  0.13982  0.13492  0.76594  1.0000
  N   N4        1.0  0.10072  0.03312  0.87786  1.0000
  Fe  Fe10      1.0  0.18695  0.09138  0.77797  1.0000
  S   S16       1.0  0.25271  0.08269  0.85041  1.0000
  S   S17       1.0  0.12186  0.05811  0.75731  1.0000
  S   S18       1.0  0.47504  0.12086  0.89125  1.0000
  S   S19       1.0  0.49751  0.20078  0.96517  1.0000
  C   C34       1.0  0.31216  0.09790  0.86068  1.0000
  C   C35       1.0  0.34893  0.10332  0.90764  1.0000
  C   C36       1.0  0.39833  0.11243  0.91712  1.0000
  C   C37       1.0  0.41150  0.11525  0.87970  1.0000
  C   C38       1.0  0.37459  0.11012  0.83272  1.0000
  C   C39       1.0  0.32480  0.10192  0.82314  1.0000
  H   H54       1.0  0.33931  0.10012  0.93676  1.0000
  H   H55       1.0  0.42676  0.11610  0.95344  1.0000
  H   H56       1.0  0.38474  0.11213  0.80372  1.0000
  H   H57       1.0  0.29674  0.09764  0.78687  1.0000
  H   H58       1.0  0.04610  0.18239  0.65669  1.0000
  C   C40       1.0  0.08273  0.13649  0.85121  1.0000
  C   C41       1.0  0.09743  0.15115  0.89549  1.0000
  H   H59       1.0  0.10935  0.13501  0.83655  1.0000
  H   H60       1.0  0.13504  0.16110  0.91399  1.0000
  H   H61       1.0  0.16674  0.05156  0.87384  1.0000
  H   H62       1.0  0.11871  0.25842  0.70427  1.0000
  H   H63       1.0  0.44494  0.02211  0.90698  1.0000
  H   H64       1.0  0.14502  0.02587  0.95307  1.0000
  H   H65       1.0  0.18315  0.08097  0.61006  1.0000
  H   H66       1.0  0.11058  0.07482  0.84493  1.0000
  C   C42       1.0  0.05622  0.04520  0.88281  1.0000
  N   N5        1.0  0.12096  0.09803  0.54621  1.0000
  H   H67       1.0  0.39703  0.04995  0.87247  1.0000
  S   S20       1.0  0.08520  0.17197  0.97178  1.0000
  Fe  Fe11      1.0  0.52146  0.15307  0.95242  1.0000
  C   C43       1.0  0.17342  0.10085  0.58451  1.0000
  H   H68       1.0  0.37823  0.14041  0.03165  1.0000
  H   H69       1.0  0.05903  0.02943  0.80168  1.0000
  H   H70       1.0  0.41731  0.02107  0.84296  1.0000
  C   C44       1.0  0.40892  0.02508  0.87376  1.0000
  H   H71       1.0  0.12462  0.04763  0.54554  1.0000
  H   H72       1.0  0.04524  0.09585  0.53977  1.0000
  Fe  Fe12      1.0  0.10656  0.44911  0.26178  1.0000
  S   S21       1.0  0.18016  0.42315  0.28833  1.0000
  C   C45       1.0  0.51370  0.36201  0.36544  1.0000
  Fe  Fe13      1.0  0.12267  0.48211  0.18266  1.0000
  S   S22       1.0  0.19875  0.45872  0.20398  1.0000
  C   C46       1.0  0.43081  0.36799  0.36252  1.0000
  Fe  Fe14      1.0  0.15899  0.41512  0.21098  1.0000
  S   S23       1.0  0.17577  0.36582  0.19437  1.0000
  Fe  Fe15      1.0  0.21334  0.46832  0.27950  1.0000
  S   S24       1.0  0.28125  0.48719  0.34383  1.0000
  S   S25       1.0  0.14082  0.49491  0.25805  1.0000
  H   H73       1.0  0.52653  0.34675  0.39738  1.0000
  H   H74       1.0  0.45260  0.40520  0.30528  1.0000
  H   H75       1.0  0.41219  0.46013  0.29339  1.0000
  S   S26       1.0  0.51807  0.39655  0.48088  1.0000
  C   C47       1.0  0.11599  0.41313  0.37264  1.0000
  H   H76       1.0  0.50072  0.50972  0.06053  1.0000
  H   H77       1.0  0.10108  0.36279  0.23854  1.0000
  H   H78       1.0  0.32382  0.47259  0.27850  1.0000
  H   H79       1.0  0.04705  0.31678  0.20382  1.0000
  C   C48       1.0  0.35341  0.47013  0.31462  1.0000
  H   H80       1.0  0.17227  0.29960  0.17658  1.0000
  S   S27       1.0  0.50469  0.45213  0.38026  1.0000
  C   C49       1.0  0.40344  0.46312  0.32313  1.0000
  H   H81       1.0  0.04762  0.33813  0.31959  1.0000
  C   C50       1.0  0.50626  0.30266  0.45584  1.0000
  H   H82       1.0  0.14319  0.41391  0.35846  1.0000
  H   H83       1.0  0.38897  0.36636  0.34054  1.0000
  C   C51       1.0  0.12468  0.34064  0.16081  1.0000
  S   S28       1.0  0.08199  0.43783  0.18461  1.0000
  H   H84       1.0  0.44133  0.35251  0.39400  1.0000
  C   C52       1.0  0.08804  0.36310  0.26679  1.0000
  C   C53       1.0  0.34213  0.47515  0.35293  1.0000
  H   H85       1.0  0.43937  0.39257  0.37588  1.0000
  H   H86       1.0  0.43629  0.50155  0.04903  1.0000
  C   C54       1.0  0.09347  0.28764  0.13415  1.0000
  C   C55       1.0  0.13386  0.30844  0.15886  1.0000
  C   C56       1.0  0.46553  0.28218  0.43071  1.0000
  H   H87       1.0  0.45825  0.30976  0.34836  1.0000
  C   C57       1.0  0.06953  0.42880  0.34944  1.0000
  C   C58       1.0  0.44314  0.38036  0.29358  1.0000
  C   C59       1.0  0.07503  0.35203  0.13709  1.0000
  C   C60       1.0  0.44193  0.46008  0.36990  1.0000
  H   H88       1.0  0.40150  0.37930  0.27017  1.0000
  H   H89       1.0  0.42805  0.28788  0.42677  1.0000
  C   C61       1.0  0.44624  0.32641  0.31802  1.0000
  H   H90       1.0  0.09021  0.38778  0.27903  1.0000
  N   N6        1.0  0.45846  0.35917  0.33489  1.0000
  H   H91       1.0  0.50023  0.32394  0.47153  1.0000
  H   H92       1.0  0.16278  0.38339  0.43155  1.0000
  C   C62       1.0  0.09226  0.39457  0.43325  1.0000
  S   S29       1.0  0.10702  0.37146  0.48416  1.0000
  H   H93       1.0  0.37234  0.47635  0.42938  1.0000
  C   C63       1.0  0.12708  0.39587  0.41415  1.0000
  C   C64       1.0  0.38080  0.47238  0.39962  1.0000
  H   H94       1.0  0.52438  0.38648  0.37844  1.0000
  H   H95       1.0  0.45980  0.46214  0.44434  1.0000
  H   H96       1.0  0.46288  0.37429  0.27161  1.0000
  H   H97       1.0  0.40476  0.32322  0.29559  1.0000
  H   H98       1.0  0.46602  0.31910  0.29657  1.0000
  H   H99       1.0  0.06774  0.37686  0.13732  1.0000
  H   H100      1.0  0.10016  0.48216  0.06628  1.0000
  C   C65       1.0  0.43035  0.46430  0.40811  1.0000
  H   H101      1.0  0.19376  0.49175  0.36934  1.0000
  H   H102      1.0  0.49074  0.42203  0.05355  1.0000
  H   H103      1.0  0.11567  0.34917  0.29736  1.0000
  H   H104      1.0  0.13009  0.50512  0.35226  1.0000
  H   H105      1.0  0.16987  0.49394  0.41273  1.0000
  C   C66       1.0  0.16973  0.50597  0.38130  1.0000
  Fe  Fe16      1.0  0.05893  0.37377  0.52356  1.0000
  H   H106      1.0  0.48759  0.50992  0.32502  1.0000
  S   S30       1.0  0.05200  0.44773  0.29441  1.0000
  H   H107      1.0  0.52337  0.45453  0.09155  1.0000
  C   C67       1.0  0.48617  0.44677  0.06281  1.0000
  C   C68       1.0  0.08743  0.50484  0.04979  1.0000
  H   H108      1.0  0.45821  0.44681  0.07758  1.0000
  C   C69       1.0  0.04631  0.41088  0.41078  1.0000
  C   C70       1.0  0.04368  0.29902  0.11106  1.0000
  H   H109      1.0  0.05936  0.30252  0.26156  1.0000
  H   H110      1.0  0.53586  0.35521  0.34600  1.0000
  S   S31       1.0  0.13056  0.40487  0.69676  1.0000
  S   S32       1.0  0.09120  0.34662  0.59217  1.0000
  H   H111      1.0  0.17209  0.40862  0.62888  1.0000
  C   C71       1.0  0.20136  0.41515  0.66372  1.0000
  Fe  Fe17      1.0  0.07403  0.38973  0.62300  1.0000
  H   H112      1.0  0.17194  0.33587  0.69614  1.0000
  H   H113      1.0  0.25645  0.42565  0.63828  1.0000
  C   C72       1.0  0.24918  0.42475  0.66911  1.0000
  C   C73       1.0  0.19129  0.41459  0.70318  1.0000
  C   C74       1.0  0.42027  0.45609  0.98320  1.0000
  H   H114      1.0  0.36354  0.34967  0.61065  1.0000
  H   H115      1.0  0.52569  0.27710  0.98294  1.0000
  H   H116      1.0  0.20636  0.31265  0.79835  1.0000
  H   H117      1.0  0.42349  0.35677  0.61038  1.0000
  C   C75       1.0  0.50771  0.46633  0.00243  1.0000
  H   H118      1.0  0.08506  0.49080  0.98269  1.0000
  H   H119      1.0  0.14625  0.31848  0.79909  1.0000
  H   H120      1.0  0.13438  0.47348  0.68720  1.0000
  S   S33       1.0  0.47950  0.38694  0.93832  1.0000
  C   C76       1.0  0.12283  0.48573  0.65261  1.0000
  C   C77       1.0  0.40507  0.35194  0.63387  1.0000
  C   C78       1.0  0.39132  0.36969  0.70032  1.0000
  H   H121      1.0  0.39074  0.45553  0.99605  1.0000
  H   H122      1.0  0.39793  0.38856  0.72701  1.0000
  H   H123      1.0  0.48801  0.35734  0.71838  1.0000
  H   H124      1.0  0.41935  0.32882  0.65117  1.0000
  H   H125      1.0  0.35386  0.40689  0.62468  1.0000
  H   H126      1.0  0.46047  0.46109  0.64098  1.0000
  C   C79       1.0  0.51645  0.45797  0.71426  1.0000
  N   N7        1.0  0.41597  0.37711  0.66966  1.0000
  C   C80       1.0  0.49908  0.45461  0.66497  1.0000
  S   S34       1.0  0.50612  0.43674  0.58481  1.0000
  H   H127      1.0  0.16957  0.34737  0.77231  1.0000
  H   H128      1.0  0.22191  0.42272  0.77879  1.0000
  Fe  Fe18      1.0  0.41224  0.45391  0.79132  1.0000
  S   S35       1.0  0.46622  0.49400  0.80415  1.0000
  H   H129      1.0  0.20934  0.30137  0.72224  1.0000
  H   H130      1.0  0.41181  0.41281  0.61985  1.0000
  Fe  Fe19      1.0  0.47501  0.49486  0.87930  1.0000
  S   S36       1.0  0.47228  0.41653  0.81400  1.0000
  S   S37       1.0  0.41480  0.45820  0.86345  1.0000
  C   C81       1.0  0.22955  0.42305  0.74815  1.0000
  C   C82       1.0  0.50540  0.32553  0.96319  1.0000
  C   C83       1.0  0.13853  0.27128  0.73869  1.0000
  N   N8        1.0  0.46946  0.46729  0.02065  1.0000
  H   H131      1.0  0.48112  0.39838  0.72658  1.0000
  S   S38       1.0  0.34546  0.44749  0.71856  1.0000
  N   N9        1.0  0.14118  0.30530  0.73094  1.0000
  C   C84       1.0  0.53117  0.44272  0.64664  1.0000
  C   C85       1.0  0.16981  0.31041  0.70314  1.0000
  H   H132      1.0  0.40610  0.34743  0.72022  1.0000
  H   H133      1.0  0.51388  0.44204  0.99296  1.0000
  C   C86       1.0  0.16702  0.32163  0.77729  1.0000
  H   H134      1.0  0.30671  0.43918  0.78831  1.0000
  H   H135      1.0  0.22236  0.49160  0.70962  1.0000
  H   H136      1.0  0.21261  0.48866  0.64919  1.0000
  C   C87       1.0  0.47147  0.37959  0.69919  1.0000
  C   C88       1.0  0.28730  0.43356  0.71398  1.0000
  H   H137      1.0  0.49126  0.38541  0.67720  1.0000
  H   H138      1.0  0.34942  0.36754  0.67920  1.0000
  H   H139      1.0  0.07891  0.27571  0.58044  1.0000
  H   H140      1.0  0.06590  0.31376  0.72354  1.0000
  C   C89       1.0  0.07888  0.50982  0.00246  1.0000
  Fe  Fe20      1.0  0.52644  0.45673  0.83083  1.0000
  Fe  Fe21      1.0  0.47961  0.42403  0.88740  1.0000
  C   C90       1.0  0.27759  0.43235  0.75363  1.0000
  H   H141      1.0  0.49109  0.46662  0.72806  1.0000
  H   H142      1.0  0.40575  0.42700  0.67110  1.0000
  H   H143      1.0  0.15154  0.29819  0.66806  1.0000
  C   C91       1.0  0.39598  0.40724  0.64514  1.0000
  C   C92       1.0  0.20779  0.50447  0.67521  1.0000
  H   H144      1.0  0.12651  0.46847  0.62760  1.0000
  H   H145      1.0  0.49550  0.48083  0.96984  1.0000
  H   H146      1.0  0.08188  0.49179  0.63853  1.0000
  H   H147      1.0  0.48304  0.32756  0.98256  1.0000
  C   C93       1.0  0.50989  0.35135  0.93780  1.0000
  C   C94       1.0  0.08926  0.31800  0.70446  1.0000
  H   H148      1.0  0.08965  0.34374  0.69886  1.0000
  C   C95       1.0  0.52948  0.29694  0.96340  1.0000
  H   H149      1.0  0.40603  0.47168  0.95145  1.0000
  H   H150      1.0  0.06928  0.30694  0.66875  1.0000
  H   H151      1.0  0.42367  0.43199  0.97089  1.0000
  H   H152      1.0  0.13724  0.51446  0.58421  1.0000
  C   C96       1.0  0.46383  0.49992  0.03387  1.0000
  S   S39       1.0  0.04698  0.41822  0.55604  1.0000
  H   H153      1.0  0.49797  0.51021  0.60443  1.0000
  H   H154      1.0  0.11730  0.26648  0.75967  1.0000
  N   N10       1.0  0.15416  0.51390  0.65835  1.0000
  N   N11       1.0  0.48580  0.55621  0.35167  1.0000
  H   H155      1.0  0.52761  0.67125  0.28921  1.0000
  H   H156      1.0  0.14651  0.75546  0.05309  1.0000
  H   H157      1.0  0.46352  0.56305  0.40759  1.0000
  S   S40       1.0  0.49669  0.69832  0.42585  1.0000
  C   C97       1.0  0.51539  0.68377  0.35008  1.0000
  H   H158      1.0  0.25639  0.56269  0.44053  1.0000
  S   S41       1.0  0.51999  0.63491  0.52800  1.0000
  H   H159      1.0  0.43390  0.53327  0.28707  1.0000
  C   C98       1.0  0.15577  0.55656  0.40865  1.0000
  C   C99       1.0  0.07895  0.52915  0.07541  1.0000
  Fe  Fe22      1.0  0.51527  0.68405  0.50103  1.0000
  H   H160      1.0  0.22328  0.71564  0.45133  1.0000
  H   H161      1.0  0.05603  0.57745  0.07323  1.0000
  H   H162      1.0  0.48952  0.70274  0.33184  1.0000
  H   H163      1.0  0.18132  0.74835  0.44299  1.0000
  S   S42       1.0  0.08675  0.52392  0.13414  1.0000
  H   H164      1.0  0.24377  0.52710  0.46377  1.0000
  N   N12       1.0  0.23795  0.74147  0.51529  1.0000
  C   C100      1.0  0.26503  0.63063  0.52899  1.0000
  C   C101      1.0  0.45809  0.54617  0.37854  1.0000
  H   H165      1.0  0.16881  0.58131  0.41747  1.0000
  C   C102      1.0  0.52624  0.67663  0.39726  1.0000
  H   H166      1.0  0.17445  0.71291  0.47015  1.0000
  H   H167      1.0  0.09313  0.74522  0.44596  1.0000
  S   S43       1.0  0.08783  0.61029  0.49025  1.0000
  Fe  Fe23      1.0  0.12730  0.65117  0.47656  1.0000
  H   H168      1.0  0.36328  0.65292  0.48322  1.0000
  H   H169      1.0  0.27100  0.66026  0.43132  1.0000
  H   H170      1.0  0.47778  0.60559  0.36172  1.0000
  C   C103      1.0  0.28382  0.65087  0.46682  1.0000
  S   S44       1.0  0.18306  0.64817  0.44527  1.0000
  C   C104      1.0  0.24820  0.64287  0.48319  1.0000
  S   S45       1.0  0.50981  0.72058  0.13811  1.0000
  C   C105      1.0  0.52046  0.74588  0.09935  1.0000
  H   H171      1.0  0.21188  0.54077  0.33702  1.0000
  C   C106      1.0  0.33608  0.64682  0.49618  1.0000
  N   N13       1.0  0.18843  0.53860  0.39267  1.0000
  H   H172      1.0  0.52720  0.60278  0.06303  1.0000
  C   C107      1.0  0.06233  0.55848  0.05346  1.0000
  H   H173      1.0  0.49555  0.54122  0.29086  1.0000
  H   H174      1.0  0.20073  0.57828  0.35706  1.0000
  H   H175      1.0  0.47160  0.52282  0.39527  1.0000
  C   C108      1.0  0.24119  0.53840  0.43090  1.0000
  H   H176      1.0  0.15584  0.54604  0.44104  1.0000
  C   C109      1.0  0.18720  0.55357  0.34979  1.0000
  C   C110      1.0  0.20275  0.72914  0.46785  1.0000
  S   S46       1.0  0.05527  0.67848  0.43463  1.0000
  Fe  Fe24      1.0  0.06994  0.69918  0.50536  1.0000
  S   S47       1.0  0.05890  0.74981  0.51907  1.0000
  H   H177      1.0  0.42770  0.58909  0.30888  1.0000
  S   S48       1.0  0.46590  0.70122  0.53393  1.0000
  C   C111      1.0  0.47518  0.53419  0.31183  1.0000
  H   H178      1.0  0.14809  0.55387  0.31993  1.0000
  H   H179      1.0  0.49650  0.75072  0.48220  1.0000
  H   H180      1.0  0.48894  0.59621  0.31154  1.0000
  H   H181      1.0  0.29603  0.75212  0.49399  1.0000
  H   H182      1.0  0.29054  0.70290  0.53193  1.0000
  H   H183      1.0  0.26686  0.52523  0.41968  1.0000
  H   H184      1.0  0.11569  0.55725  0.38056  1.0000
  H   H185      1.0  0.22749  0.73147  0.06116  1.0000
  H   H186      1.0  0.41656  0.54417  0.35503  1.0000
  C   C112      1.0  0.46923  0.58814  0.33262  1.0000
  C   C113      1.0  0.53692  0.58402  0.04524  1.0000
  C   C114      1.0  0.20865  0.75784  0.53661  1.0000
  C   C115      1.0  0.53711  0.66606  0.32597  1.0000
  C   C116      1.0  0.27355  0.76372  0.51024  1.0000
  H   H187      1.0  0.11953  0.75000  0.98971  1.0000
  S   S49       1.0  0.12614  0.61428  0.62893  1.0000
  C   C117      1.0  0.51435  0.55059  0.97508  1.0000
  H   H188      1.0  0.06415  0.59969  0.74830  1.0000
  C   C118      1.0  0.07835  0.60819  0.64694  1.0000
  S   S50       1.0  0.05829  0.70059  0.85919  1.0000
  H   H189      1.0  0.23275  0.52518  0.68082  1.0000
  H   H190      1.0  0.04244  0.58639  0.99023  1.0000
  H   H191      1.0  0.10966  0.54210  0.68256  1.0000
  H   H192      1.0  0.16454  0.52416  0.72929  1.0000
  H   H193      1.0  0.08459  0.70397  0.68314  1.0000
  C   C119      1.0  0.03887  0.73239  0.88311  1.0000
  H   H194      1.0  0.05278  0.66346  0.77045  1.0000
  C   C120      1.0  0.06215  0.53913  0.98052  1.0000
  H   H195      1.0  0.18020  0.74204  0.53961  1.0000
  C   C121      1.0  0.09140  0.60611  0.69560  1.0000
  C   C122      1.0  0.31721  0.62577  0.55785  1.0000
  H   H196      1.0  0.15978  0.55114  0.61497  1.0000
  S   S51       1.0  0.46825  0.53862  0.91789  1.0000
  H   H197      1.0  0.10004  0.69332  0.78638  1.0000
  S   S52       1.0  0.04783  0.61120  0.83320  1.0000
  C   C123      1.0  0.06390  0.71878  0.69815  1.0000
  H   H198      1.0  0.19972  0.72644  0.99765  1.0000
  H   H199      1.0  0.47675  0.56258  0.62670  1.0000
  H   H200      1.0  0.09636  0.53874  0.59926  1.0000
  H   H201      1.0  0.33002  0.61569  0.59294  1.0000
  H   H202      1.0  0.52639  0.52949  0.57167  1.0000
  H   H203      1.0  0.46618  0.58682  0.98101  1.0000
  C   C124      1.0  0.06027  0.76202  0.88528  1.0000
  S   S53       1.0  0.14479  0.67507  0.54594  1.0000
  H   H204      1.0  0.13065  0.60855  0.72169  1.0000
  C   C125      1.0  0.51366  0.57127  0.62973  1.0000
  C   C126      1.0  0.13611  0.53018  0.61211  1.0000
  H   H205      1.0  0.29288  0.72340  0.58289  1.0000
  C   C127      1.0  0.50243  0.57496  0.99871  1.0000
  C   C128      1.0  0.14987  0.53528  0.69356  1.0000
  C   C129      1.0  0.22075  0.74323  0.02726  1.0000
  H   H206      1.0  0.50609  0.58156  0.59464  1.0000
  H   H207      1.0  0.09480  0.66401  0.74308  1.0000
  H   H208      1.0  0.17162  0.55734  0.69752  1.0000
  C   C130      1.0  0.05439  0.56357  0.00638  1.0000
  C   C131      1.0  0.05378  0.60118  0.71073  1.0000
  Fe  Fe25      1.0  0.47712  0.65351  0.56660  1.0000
  C   C132      1.0  0.35291  0.63388  0.54161  1.0000
  H   H209      1.0  0.23786  0.62433  0.54189  1.0000
  Fe  Fe26      1.0  0.09898  0.63652  0.55643  1.0000
  C   C133      1.0  0.07260  0.67912  0.75594  1.0000
  H   H210      1.0  0.24122  0.69731  0.54951  1.0000
  H   H211      1.0  0.52602  0.59084  0.65609  1.0000
  C   C134      1.0  0.53387  0.52069  0.60752  1.0000
  S   S54       1.0  0.41784  0.62618  0.57798  1.0000
  H   H212      1.0  0.09236  0.73401  0.72624  1.0000
  C   C135      1.0  0.26690  0.71519  0.54632  1.0000
  H   H213      1.0  0.25845  0.74743  0.02813  1.0000
  H   H214      1.0  0.52533  0.52392  0.68956  1.0000
  S   S55       1.0  0.04885  0.54362  0.92005  1.0000
  H   H215      1.0  0.08692  0.76524  0.87069  1.0000
  H   H216      1.0  0.44984  0.51568  0.00226  1.0000
  H   H217      1.0  0.49365  0.82076  0.05697  1.0000
  S   S56       1.0  0.11280  0.92753  0.12132  1.0000
  H   H218      1.0  0.25296  0.78391  0.48708  1.0000
  C   C136      1.0  0.51717  0.78987  0.42737  1.0000
  C   C137      1.0  0.05033  0.97832  0.50737  1.0000
  C   C138      1.0  0.04931  0.93510  0.21170  1.0000
  H   H219      1.0  0.48219  0.80445  0.41518  1.0000
  H   H220      1.0  0.52604  0.83576  0.48961  1.0000
  H   H221      1.0  0.07109  0.00151  0.20627  1.0000
  H   H222      1.0  0.04831  0.85622  0.45801  1.0000
  H   H223      1.0  0.10256  0.78576  0.39377  1.0000
  S   S57       1.0  0.08056  0.85153  0.38364  1.0000
  H   H224      1.0  0.12281  0.92427  0.21604  1.0000
  H   H225      1.0  0.48930  0.01353  0.47567  1.0000
  H   H226      1.0  0.25879  0.80042  0.06246  1.0000
  C   C139      1.0  0.08406  0.76943  0.44909  1.0000
  C   C140      1.0  0.08348  0.92949  0.19248  1.0000
  H   H227      1.0  0.18742  0.77831  0.51468  1.0000
  Fe  Fe27      1.0  0.09372  0.91028  0.04686  1.0000
  C   C141      1.0  0.10615  0.01009  0.14184  1.0000
  C   C142      1.0  0.06674  0.77796  0.48233  1.0000
  H   H228      1.0  0.47593  0.78925  0.48909  1.0000
  C   C143      1.0  0.51004  0.79750  0.06302  1.0000
  C   C144      1.0  0.51001  0.77434  0.49786  1.0000
  C   C145      1.0  0.06723  0.93084  0.14312  1.0000
  H   H229      1.0  0.22833  0.78395  0.09579  1.0000
  H   H230      1.0  0.52957  0.77147  0.53717  1.0000
  H   H231      1.0  0.06004  0.95910  0.49031  1.0000
  C   C146      1.0  0.07590  0.82363  0.42240  1.0000
  C   C147      1.0  0.05809  0.83204  0.45528  1.0000
  S   S58       1.0  0.51700  0.88872  0.06694  1.0000
  C   C148      1.0  0.08929  0.79234  0.41961  1.0000
  H   H232      1.0  0.47418  0.78293  0.10633  1.0000
  H   H233      1.0  0.12801  0.99200  0.16891  1.0000
  S   S59       1.0  0.11971  0.86187  0.03947  1.0000
  C   C149      1.0  0.05407  0.80929  0.48556  1.0000
  H   H234      1.0  0.06240  0.93426  0.24986  1.0000
  C   C150      1.0  0.49889  0.77601  0.09079  1.0000
  C   C151      1.0  0.22136  0.79434  0.06098  1.0000
  H   H235      1.0  0.20089  0.81692  0.05731  1.0000
  H   H236      1.0  0.07553  0.99744  0.11155  1.0000
  H   H237      1.0  0.04069  0.81599  0.51129  1.0000
  H   H238      1.0  0.50545  0.76610  0.41115  1.0000
  H   H239      1.0  0.11417  0.97071  0.57605  1.0000
  H   H240      1.0  0.32997  0.99391  0.91463  1.0000
  H   H241      1.0  0.29636  0.95888  0.96670  1.0000
  C   C152      1.0  0.08092  0.98496  0.55598  1.0000
  H   H242      1.0  0.39445  0.87827  0.01154  1.0000
  C   C153      1.0  0.38686  0.97080  0.87521  1.0000
  H   H243      1.0  0.42260  0.96667  0.90836  1.0000
  Fe  Fe28      1.0  0.15095  0.88432  0.99363  1.0000
  C   C154      1.0  0.18467  0.78773  0.97568  1.0000
  Fe  Fe29      1.0  0.47553  0.92161  0.00555  1.0000
  S   S60       1.0  0.39699  0.94248  0.98159  1.0000
  H   H244      1.0  0.53383  0.82637  0.64183  1.0000
  C   C155      1.0  0.27315  0.88642  0.99778  1.0000
  H   H245      1.0  0.11954  0.78820  0.01394  1.0000
  S   S61       1.0  0.49993  0.89759  0.95500  1.0000
  S   S62       1.0  0.07940  0.87681  0.92607  1.0000
  H   H246      1.0  0.05994  0.99431  0.83330  1.0000
  C   C156      1.0  0.30306  0.93472  0.97822  1.0000
  C   C157      1.0  0.26473  0.91772  0.98296  1.0000
  S   S63       1.0  0.13032  0.93329  0.00548  1.0000
  H   H247      1.0  0.11557  0.00577  0.82768  1.0000
  H   H248      1.0  0.51225  0.87039  0.74429  1.0000
  H   H249      1.0  0.16109  0.80938  0.96849  1.0000
  H   H250      1.0  0.23376  0.76678  0.57296  1.0000
  H   H251      1.0  0.52982  0.83265  0.81095  1.0000
  C   C158      1.0  0.53637  0.85481  0.73422  1.0000
  C   C159      1.0  0.35848  0.88938  0.00361  1.0000
  Fe  Fe30      1.0  0.04682  0.85805  0.97275  1.0000
  H   H252      1.0  0.48985  0.92541  0.78517  1.0000
  H   H253      1.0  0.10877  0.99244  0.92095  1.0000
  H   H254      1.0  0.32844  0.00340  0.79602  1.0000
  Fe  Fe31      1.0  0.05551  0.92375  0.94186  1.0000
  H   H255      1.0  0.06471  0.81010  0.90839  1.0000
  H   H256      1.0  0.32683  0.84813  0.01944  1.0000
  H   H257      1.0  0.39438  0.96471  0.84447  1.0000
  C   C160      1.0  0.35005  0.92061  0.98860  1.0000
  H   H258      1.0  0.35838  0.95389  0.87573  1.0000
  H   H259      1.0  0.22869  0.92872  0.97500  1.0000
  S   S64       1.0  0.22597  0.86384  0.00327  1.0000
  H   H260      1.0  0.51139  0.83686  0.70877  1.0000
  H   H261      1.0  0.22142  0.79483  0.97657  1.0000
  C   C161      1.0  0.32007  0.87234  0.00801  1.0000
  C   C162      1.0  0.04766  0.78747  0.90656  1.0000
  C   C163      1.0  0.06905  0.00996  0.57866  1.0000
  H   H262      1.0  0.53290  0.80016  0.77557  1.0000
  N   N14       1.0  0.36916  0.00358  0.87257  1.0000
  H   H263      1.0  0.51428  0.93194  0.87153  1.0000
  C   C164      1.0  0.52706  0.93427  0.80896  1.0000
  H   H264      1.0  0.16505  0.00310  0.91608  1.0000
  C   C165      1.0  0.08312  0.01482  0.83319  1.0000
  N   N15       1.0  0.19226  0.77290  0.02085  1.0000
  H   H265      1.0  0.39355  0.00766  0.94800  1.0000
  C   C166      1.0  0.32218  0.00819  0.82784  1.0000
  C   C167      1.0  0.13131  0.01277  0.91884  1.0000
  H   H266      1.0  0.29130  0.99246  0.82603  1.0000
  C   C168      1.0  0.35873  0.01033  0.91358  1.0000
  C   C169      1.0  0.14235  0.76632  0.01938  1.0000
  H   H267      1.0  0.16542  0.77158  0.94493  1.0000
  H   H268      1.0  0.30086  0.77339  0.54541  1.0000
  C   C170      1.0  0.80161  0.13955  0.07399  1.0000
  C   C171      1.0  0.99549  0.02163  0.50367  1.0000
  C   C172      1.0  0.55071  0.15979  0.23760  1.0000
  H   H269      1.0  0.87695  0.14156  0.07838  1.0000
  H   H270      1.0  0.81524  0.13667  0.11198  1.0000
  Fe  Fe32      1.0  0.54008  0.18799  0.04290  1.0000
  S   S65       1.0  0.70619  0.13709  0.06869  1.0000
  H   H271      1.0  0.62861  0.03794  0.45794  1.0000
  H   H272      1.0  0.02547  0.04676  0.09311  1.0000
  S   S66       1.0  0.97528  0.18463  0.09726  1.0000
  H   H273      1.0  0.62031  0.09438  0.44201  1.0000
  H   H274      1.0  0.60003  0.26134  0.44590  1.0000
  H   H275      1.0  0.96217  0.03580  0.48355  1.0000
  C   C173      1.0  0.55852  0.16081  0.16343  1.0000
  C   C174      1.0  0.56504  0.05249  0.33904  1.0000
  H   H276      1.0  0.74194  0.20893  0.05682  1.0000
  H   H277      1.0  0.56149  0.10236  0.48527  1.0000
  C   C175      1.0  0.60147  0.03351  0.41997  1.0000
  C   C176      1.0  0.57185  0.14783  0.20869  1.0000
  C   C177      1.0  0.56129  0.07934  0.49952  1.0000
  H   H278      1.0  0.68436  0.06419  0.42715  1.0000
  H   H279      1.0  0.57273  0.03008  0.32510  1.0000
  H   H280      1.0  0.79339  0.20436  0.04142  1.0000
  S   S67       1.0  0.56428  0.14188  0.29254  1.0000
  H   H281      1.0  0.66394  0.03683  0.37835  1.0000
  C   C178      1.0  0.74920  0.14083  0.04407  1.0000
  C   C179      1.0  0.83661  0.14236  0.05507  1.0000
  H   H282      1.0  0.65689  0.07829  0.36687  1.0000
  H   H283      1.0  0.55422  0.08940  0.40261  1.0000
  N   N16       1.0  0.60351  0.05860  0.38849  1.0000
  H   H284      1.0  0.59782  0.12815  0.22090  1.0000
  H   H285      1.0  0.56415  0.07168  0.31464  1.0000
  C   C180      1.0  0.65448  0.05947  0.39034  1.0000
  H   H286      1.0  0.57412  0.15111  0.14088  1.0000
  H   H287      1.0  0.59452  0.10874  0.38195  1.0000
  H   H288      1.0  0.56295  0.03190  0.41829  1.0000
  C   C181      1.0  0.59277  0.08914  0.40451  1.0000
  S   S68       1.0  0.61426  0.20825  0.05189  1.0000
  Fe  Fe33      1.0  0.00440  0.22313  0.06741  1.0000
  H   H289      1.0  0.79607  0.23444  0.08249  1.0000
  H   H290      1.0  0.03490  0.03721  0.19458  1.0000
  C   C182      1.0  0.77020  0.22200  0.04926  1.0000
  H   H291      1.0  0.83585  0.08482  0.81288  1.0000
  C   C183      1.0  0.60137  0.04039  0.56279  1.0000
  H   H292      1.0  0.80648  0.24246  0.98972  1.0000
  H   H293      1.0  0.98542  0.22712  0.63122  1.0000
  H   H294      1.0  0.61563  0.09799  0.99360  1.0000
  H   H295      1.0  0.59672  0.02633  0.99535  1.0000
  S   S69       1.0  0.01615  0.10379  0.77162  1.0000
  C   C184      1.0  0.01535  0.14017  0.89172  1.0000
  C   C185      1.0  0.67794  0.06766  0.96722  1.0000
  S   S70       1.0  0.59358  0.17045  0.95346  1.0000
  C   C186      1.0  0.77505  0.05936  0.69806  1.0000
  C   C187      1.0  0.60208  0.03976  0.91456  1.0000
  C   C188      1.0  0.00055  0.12548  0.84709  1.0000
  C   C189      1.0  0.76684  0.14606  0.97596  1.0000
  H   H296      1.0  0.67456  0.08430  0.93871  1.0000
  S   S71       1.0  0.86141  0.14786  0.98023  1.0000
  H   H297      1.0  0.70227  0.04773  0.96681  1.0000
  S   S72       1.0  0.96685  0.20454  0.99240  1.0000
  H   H298      1.0  0.03137  0.05964  0.85149  1.0000
  H   H299      1.0  0.98922  0.14166  0.90726  1.0000
  C   C190      1.0  0.81925  0.14546  0.00590  1.0000
  H   H300      1.0  0.69847  0.08012  0.00194  1.0000
  C   C191      1.0  0.71016  0.22643  0.96631  1.0000
  H   H301      1.0  0.55867  0.07682  0.95657  1.0000
  H   H302      1.0  0.96299  0.11555  0.82847  1.0000
  N   N17       1.0  0.62758  0.05673  0.96039  1.0000
  H   H303      1.0  0.75324  0.14818  0.93786  1.0000
  H   H304      1.0  0.69176  0.14489  0.97153  1.0000
  H   H305      1.0  0.56440  0.03065  0.90878  1.0000
  H   H306      1.0  0.87714  0.05455  0.74963  1.0000
  H   H307      1.0  0.62489  0.01918  0.91338  1.0000
  H   H308      1.0  0.03264  0.02570  0.88555  1.0000
  H   H309      1.0  0.83592  0.10213  0.76087  1.0000
  H   H310      1.0  0.79587  0.07378  0.68313  1.0000
  H   H311      1.0  0.68105  0.21367  0.97288  1.0000
  C   C192      1.0  0.73195  0.14431  0.99500  1.0000
  H   H312      1.0  0.73742  0.04689  0.75945  1.0000
  H   H313      1.0  0.01546  0.04689  0.56958  1.0000
  C   C193      1.0  0.81386  0.08682  0.77345  1.0000
  C   C194      1.0  0.01913  0.22805  0.62576  1.0000
  N   N18       1.0  0.80437  0.05565  0.75022  1.0000
  N   N19       1.0  0.74513  0.24399  0.00910  1.0000
  H   H314      1.0  0.59590  0.05518  0.88391  1.0000
  Fe  Fe34      1.0  0.57317  0.21713  0.97326  1.0000
  S   S73       1.0  0.55825  0.13879  0.02933  1.0000
  C   C195      1.0  0.02582  0.02809  0.55236  1.0000
  C   C196      1.0  0.85337  0.04011  0.76135  1.0000
  H   H315      1.0  0.73765  0.07087  0.68829  1.0000
  C   C197      1.0  0.02823  0.25452  0.60433  1.0000
  C   C198      1.0  0.60162  0.06996  0.54311  1.0000
  S   S74       1.0  0.65320  0.02938  0.61738  1.0000
  H   H316      1.0  0.87569  0.03594  0.80032  1.0000
  H   H317      1.0  0.77765  0.09917  0.76584  1.0000
  C   C199      1.0  0.59647  0.08407  0.96015  1.0000
  H   H318      1.0  0.58936  0.10011  0.92988  1.0000
  H   H319      1.0  0.63287  0.08583  0.56198  1.0000
  C   C200      1.0  0.63392  0.03553  0.99982  1.0000
  Fe  Fe35      1.0  0.94248  0.16431  0.02347  1.0000
  H   H320      1.0  0.73080  0.20890  0.95514  1.0000
  H   H321      1.0  0.76670  0.03623  0.67943  1.0000
  H   H322      1.0  0.68920  0.24242  0.93567  1.0000
  C   C201      1.0  0.03424  0.12367  0.82658  1.0000
  H   H323      1.0  0.79561  0.03310  0.80736  1.0000
  Fe  Fe36      1.0  0.62899  0.16012  0.03124  1.0000
  C   C202      1.0  0.77509  0.03624  0.76802  1.0000
  S   S75       1.0  0.59006  0.25892  0.93892  1.0000
  H   H324      1.0  0.84756  0.01691  0.74325  1.0000
  C   C203      1.0  0.78398  0.25977  0.99924  1.0000
  H   H325      1.0  0.68651  0.25634  0.02917  1.0000
  H   H326      1.0  0.65223  0.04780  0.03488  1.0000
  C   C204      1.0  0.56056  0.02019  0.53827  1.0000
  S   S76       1.0  0.01135  0.13475  0.03725  1.0000
  C   C205      1.0  0.85181  0.42768  0.52504  1.0000
  C   C206      1.0  0.03467  0.33128  0.11241  1.0000
  Fe  Fe37      1.0  0.55285  0.43314  0.45401  1.0000
  H   H327      1.0  0.74113  0.28153  0.05345  1.0000
  H   H328      1.0  0.71085  0.29536  0.52082  1.0000
  H   H329      1.0  0.98214  0.34143  0.27633  1.0000
  H   H330      1.0  0.99630  0.34024  0.09414  1.0000
  H   H331      1.0  0.99885  0.43989  0.35105  1.0000
  H   H332      1.0  0.00166  0.39558  0.22098  1.0000
  S   S77       1.0  0.60649  0.32074  0.49097  1.0000
  C   C207      1.0  0.03424  0.31823  0.23215  1.0000
  H   H333      1.0  0.99511  0.30850  0.21688  1.0000
  H   H334      1.0  0.73940  0.37387  0.48825  1.0000
  N   N20       1.0  0.03591  0.35085  0.24903  1.0000
  H   H335      1.0  0.78867  0.43593  0.45637  1.0000
  C   C208      1.0  0.00084  0.37072  0.20934  1.0000
  H   H336      1.0  0.74338  0.33772  0.46056  1.0000
  S   S78       1.0  0.97977  0.35563  0.50051  1.0000
  S   S79       1.0  0.99155  0.27364  0.08249  1.0000
  C   C209      1.0  0.76491  0.43768  0.51211  1.0000
  S   S80       1.0  0.89558  0.42472  0.50116  1.0000
  H   H337      1.0  0.72573  0.44288  0.48807  1.0000
  H   H338      1.0  0.96103  0.36233  0.19505  1.0000
  C   C210      1.0  0.80063  0.43385  0.49425  1.0000
  S   S81       1.0  0.62411  0.40548  0.47178  1.0000
  H   H339      1.0  0.76255  0.28800  0.50650  1.0000
  Fe  Fe38      1.0  0.59184  0.37094  0.50442  1.0000
  H   H340      1.0  0.01923  0.40997  0.42526  1.0000
  H   H341      1.0  0.69133  0.34452  0.47461  1.0000
  S   S82       1.0  0.58684  0.46115  0.52183  1.0000
  C   C211      1.0  0.56253  0.26724  0.44177  1.0000
  C   C212      1.0  0.73282  0.34814  0.48746  1.0000
  C   C213      1.0  0.02062  0.35153  0.28792  1.0000
  H   H342      1.0  0.01125  0.37082  0.17940  1.0000
  H   H343      1.0  0.82986  0.32808  0.52525  1.0000
  H   H344      1.0  0.01955  0.37597  0.30007  1.0000
  C   C214      1.0  0.55483  0.29523  0.46127  1.0000
  C   C215      1.0  0.75193  0.29996  0.53235  1.0000
  C   C216      1.0  0.03492  0.42784  0.36883  1.0000
  N   N21       1.0  0.76239  0.33400  0.53494  1.0000
  Fe  Fe39      1.0  0.01107  0.33265  0.57228  1.0000
  H   H345      1.0  0.96226  0.51440  0.93777  1.0000
  H   H346      1.0  0.91301  0.49628  0.94772  1.0000
  S   S83       1.0  0.62717  0.39334  0.57693  1.0000
  C   C217      1.0  0.58161  0.43556  0.67770  1.0000
  H   H347      1.0  0.90366  0.49739  0.64169  1.0000
  C   C218      1.0  0.56654  0.45019  0.74553  1.0000
  C   C219      1.0  0.86714  0.42540  0.57401  1.0000
  C   C220      1.0  0.83157  0.42982  0.59199  1.0000
  H   H348      1.0  0.90658  0.42089  0.59805  1.0000
  H   H349      1.0  0.84383  0.42852  0.62998  1.0000
  H   H350      1.0  0.77358  0.28853  0.56759  1.0000
  S   S84       1.0  0.54015  0.46078  0.90729  1.0000
  C   C221      1.0  0.78040  0.43603  0.56109  1.0000
  C   C222      1.0  0.74746  0.34882  0.56947  1.0000
  H   H351      1.0  0.60673  0.42657  0.66381  1.0000
  S   S85       1.0  0.98487  0.28606  0.58721  1.0000
  C   C223      1.0  0.56332  0.32007  0.91341  1.0000
  Fe  Fe40      1.0  0.55626  0.42277  0.55043  1.0000
  S   S86       1.0  0.99590  0.37388  0.60877  1.0000
  C   C224      1.0  0.59932  0.43949  0.72712  1.0000
  H   H352      1.0  0.63820  0.43357  0.75123  1.0000
  S   S87       1.0  0.58851  0.45373  0.80747  1.0000
  H   H353      1.0  0.54506  0.47536  0.02914  1.0000
  H   H354      1.0  0.76913  0.33888  0.60579  1.0000
  H   H355      1.0  0.81129  0.27313  0.03083  1.0000
  H   H356      1.0  0.75431  0.37455  0.57209  1.0000
  S   S88       1.0  0.73750  0.44367  0.58494  1.0000
  H   H357      1.0  0.76632  0.27651  0.96905  1.0000
  H   H358      1.0  0.58583  0.31805  0.89419  1.0000
  H   H359      1.0  0.69586  0.28430  0.99164  1.0000
  H   H360      1.0  0.56211  0.50128  0.61670  1.0000
  H   H361      1.0  0.81955  0.48723  0.63755  1.0000
  H   H362      1.0  0.70636  0.34532  0.55892  1.0000
  H   H363      1.0  0.84078  0.32898  0.58625  1.0000
  C   C225      1.0  0.55854  0.29418  0.93853  1.0000
  H   H364      1.0  0.82618  0.36452  0.55216  1.0000
  Fe  Fe41      1.0  0.65514  0.42963  0.54260  1.0000
  C   C226      1.0  0.81715  0.33909  0.55036  1.0000
  H   H365      1.0  0.58889  0.51351  0.70156  1.0000
  C   C227      1.0  0.53886  0.34856  0.91284  1.0000
  H   H366      1.0  0.83024  0.49509  0.56298  1.0000
  C   C228      1.0  0.81271  0.51294  0.63704  1.0000
  C   C229      1.0  0.71611  0.26763  0.02153  1.0000
  H   H367      1.0  0.54280  0.36841  0.89344  1.0000
  Fe  Fe42      1.0  0.96980  0.39806  0.53855  1.0000
  H   H368      1.0  0.84953  0.51497  0.86616  1.0000
  H   H369      1.0  0.57933  0.74381  0.47966  1.0000
  H   H370      1.0  0.62794  0.75832  0.24288  1.0000
  Fe  Fe43      1.0  0.67949  0.67142  0.23589  1.0000
  S   S89       1.0  0.66755  0.62065  0.24561  1.0000
  S   S90       1.0  0.75481  0.69702  0.26575  1.0000
  Fe  Fe44      1.0  0.61457  0.61982  0.16723  1.0000
  S   S91       1.0  0.62774  0.57870  0.12753  1.0000
  Fe  Fe45      1.0  0.60046  0.63673  0.25572  1.0000
  S   S92       1.0  0.59172  0.61571  0.31769  1.0000
  S   S93       1.0  0.63180  0.66976  0.15665  1.0000
  S   S94       1.0  0.61626  0.68769  0.25168  1.0000
  C   C230      1.0  0.80708  0.67587  0.30793  1.0000
  H   H371      1.0  0.76050  0.63699  0.22443  1.0000
  C   C231      1.0  0.85652  0.68659  0.32111  1.0000
  H   H372      1.0  0.79065  0.58530  0.14487  1.0000
  H   H373      1.0  0.60723  0.61539  0.41463  1.0000
  H   H374      1.0  0.86218  0.70791  0.30578  1.0000
  C   C232      1.0  0.84208  0.63007  0.35785  1.0000
  H   H375      1.0  0.84583  0.61326  0.27055  1.0000
  C   C233      1.0  0.89149  0.64064  0.37082  1.0000
  H   H376      1.0  0.72334  0.57000  0.21812  1.0000
  S   S95       1.0  0.54590  0.63174  0.17804  1.0000
  C   C234      1.0  0.58370  0.56871  0.06859  1.0000
  S   S96       1.0  0.02546  0.66275  0.52176  1.0000
  H   H377      1.0  0.76223  0.63983  0.31837  1.0000
  H   H378      1.0  0.61814  0.74579  0.18483  1.0000
  H   H379      1.0  0.56773  0.71361  0.08421  1.0000
  C   C235      1.0  0.75670  0.62222  0.19378  1.0000
  C   C236      1.0  0.76465  0.57501  0.23890  1.0000
  Fe  Fe46      1.0  0.01709  0.63970  0.45430  1.0000
  H   H380      1.0  0.76985  0.58876  0.27099  1.0000
  C   C237      1.0  0.89872  0.66920  0.35292  1.0000
  H   H381      1.0  0.83634  0.60810  0.37190  1.0000
  H   H382      1.0  0.77112  0.63614  0.17255  1.0000
  H   H383      1.0  0.78449  0.55216  0.25151  1.0000
  S   S97       1.0  0.94307  0.61642  0.40610  1.0000
  H   H384      1.0  0.73557  0.56789  0.14541  1.0000
  C   C238      1.0  0.80003  0.64785  0.32708  1.0000
  C   C239      1.0  0.55974  0.65208  0.42060  1.0000
  N   N22       1.0  0.78431  0.59218  0.20987  1.0000
  C   C240      1.0  0.77665  0.57300  0.16785  1.0000
  C   C241      1.0  0.83902  0.59849  0.23889  1.0000
  H   H385      1.0  0.85533  0.61118  0.21809  1.0000
  H   H386      1.0  0.86102  0.57638  0.25239  1.0000
  H   H387      1.0  0.93679  0.67722  0.36230  1.0000
  C   C242      1.0  0.58130  0.63433  0.39643  1.0000
  H   H388      1.0  0.71543  0.61835  0.17110  1.0000
  C   C243      1.0  0.55191  0.73699  0.07875  1.0000
  C   C244      1.0  0.94042  0.75697  0.37483  1.0000
  C   C245      1.0  0.56957  0.64100  0.34890  1.0000
  H   H389      1.0  0.79686  0.55010  0.17853  1.0000
  Fe  Fe47      1.0  0.56707  0.68195  0.17305  1.0000
  H   H390      1.0  0.56891  0.64669  0.45720  1.0000
  H   H391      1.0  0.92029  0.74458  0.39253  1.0000
  H   H392      1.0  0.94392  0.74036  0.34902  1.0000
  H   H393      1.0  0.63201  0.53261  0.06257  1.0000
  C   C246      1.0  0.56234  0.75827  0.05031  1.0000
  H   H394      1.0  0.55022  0.57220  0.41470  1.0000
  H   H395      1.0  0.86197  0.76316  0.28666  1.0000
  H   H396      1.0  0.55486  0.53236  0.39786  1.0000
  H   H397      1.0  0.97938  0.76199  0.40278  1.0000
  H   H398      1.0  0.70829  0.75595  0.20588  1.0000
  C   C247      1.0  0.59579  0.54446  0.04489  1.0000
  H   H399      1.0  0.56294  0.56438  0.36482  1.0000
  C   C248      1.0  0.54089  0.55627  0.38372  1.0000
  Fe  Fe48      1.0  0.58962  0.65223  0.59144  1.0000
  S   S98       1.0  0.65858  0.62087  0.61500  1.0000
  C   C249      1.0  0.83317  0.56426  0.61860  1.0000
  C   C250      1.0  0.02766  0.60471  0.61340  1.0000
  H   H400      1.0  0.97837  0.66365  0.69267  1.0000
  H   H401      1.0  0.84620  0.57230  0.65607  1.0000
  H   H402      1.0  0.91897  0.53602  0.62926  1.0000
  H   H403      1.0  0.95096  0.59685  0.60232  1.0000
  H   H404      1.0  0.90221  0.59361  0.91162  1.0000
  C   C251      1.0  0.75650  0.61327  0.68276  1.0000
  H   H405      1.0  0.76299  0.60327  0.65427  1.0000
  C   C252      1.0  0.89602  0.52287  0.64335  1.0000
  H   H406      1.0  0.57144  0.51712  0.98020  1.0000
  H   H407      1.0  0.78222  0.52493  0.54459  1.0000
  C   C253      1.0  0.93351  0.51871  0.95111  1.0000
  H   H408      1.0  0.96370  0.75083  0.93627  1.0000
  C   C254      1.0  0.70817  0.62471  0.67312  1.0000
  H   H409      1.0  0.87789  0.55468  0.98066  1.0000
  C   C255      1.0  0.99015  0.59937  0.62850  1.0000
  C   C256      1.0  0.87298  0.53653  0.87317  1.0000
  S   S99       1.0  0.95469  0.59307  0.69480  1.0000
  H   H410      1.0  0.01822  0.66415  0.66304  1.0000
  C   C257      1.0  0.00303  0.59796  0.67718  1.0000
  H   H411      1.0  0.83390  0.60653  0.73591  1.0000
  H   H412      1.0  0.90126  0.53230  0.85929  1.0000
  H   H413      1.0  0.85485  0.57808  0.60386  1.0000
  H   H414      1.0  0.63401  0.75897  0.62608  1.0000
  S   S100      1.0  0.58784  0.70030  0.56147  1.0000
  H   H415      1.0  0.66273  0.64647  0.70296  1.0000
  H   H416      1.0  0.94693  0.58055  0.96983  1.0000
  H   H417      1.0  0.83702  0.52705  0.93705  1.0000
  Fe  Fe49      1.0  0.01471  0.65530  0.84780  1.0000
  C   C258      1.0  0.69993  0.63769  0.71006  1.0000
  C   C259      1.0  0.00917  0.71967  0.73692  1.0000
  Fe  Fe50      1.0  0.91524  0.62377  0.82759  1.0000
  S   S101      1.0  0.93954  0.57765  0.81045  1.0000
  S   S102      1.0  0.83785  0.62886  0.82461  1.0000
  N   N23       1.0  0.84136  0.53017  0.61622  1.0000
  Fe  Fe51      1.0  0.97173  0.60577  0.77036  1.0000
  Fe  Fe52      1.0  0.01332  0.58682  0.87521  1.0000
  S   S103      1.0  0.94077  0.65140  0.78185  1.0000
  S   S104      1.0  0.98683  0.63154  0.89547  1.0000
  C   C260      1.0  0.78831  0.62765  0.76610  1.0000
  N   N24       1.0  0.55215  0.54600  0.64365  1.0000
  C   C261      1.0  0.60007  0.55884  0.64680  1.0000
  H   H418      1.0  0.97039  0.69369  0.64989  1.0000
  H   H419      1.0  0.57581  0.55150  0.71881  1.0000
  H   H420      1.0  0.98814  0.70555  0.75203  1.0000
  C   C262      1.0  0.85985  0.54871  0.94202  1.0000
  H   H421      1.0  0.98656  0.70579  0.89919  1.0000
  H   H422      1.0  0.61454  0.57856  0.67288  1.0000
  H   H423      1.0  0.63037  0.54064  0.65796  1.0000
  H   H424      1.0  0.82385  0.52047  0.67439  1.0000
  C   C263      1.0  0.56099  0.53321  0.69044  1.0000
  C   C264      1.0  0.73983  0.63880  0.75661  1.0000
  H   H425      1.0  0.59485  0.56824  0.61185  1.0000
  H   H426      1.0  0.95682  0.57104  0.91894  1.0000
  H   H427      1.0  0.73324  0.64857  0.78522  1.0000
  C   C265      1.0  0.92729  0.57372  0.93156  1.0000
  H   H428      1.0  0.01735  0.60578  0.57575  1.0000
  H   H429      1.0  0.91062  0.52951  0.68158  1.0000
  H   H430      1.0  0.84770  0.55601  0.85184  1.0000
  C   C266      1.0  0.00352  0.72852  0.90098  1.0000
  C   C267      1.0  0.99062  0.75406  0.92197  1.0000
  N   N25       1.0  0.89837  0.54436  0.92450  1.0000
  C   C268      1.0  0.79665  0.61511  0.72895  1.0000
  H   H431      1.0  0.95496  0.52438  0.98978  1.0000
  C   C269      1.0  0.56144  0.53557  0.99824  1.0000
  H   H432      1.0  0.83307  0.56809  0.92266  1.0000
  H   H433      1.0  0.79234  0.57065  0.59833  1.0000
  H   H434      1.0  0.58682  0.75129  0.03455  1.0000
  C   C270      1.0  0.99913  0.67935  0.67911  1.0000
  S   S105      1.0  0.54738  0.66682  0.63262  1.0000
  H   H435      1.0  0.98130  0.73524  0.70906  1.0000
  C   C271      1.0  0.82362  0.52056  0.56598  1.0000
  H   H436      1.0  0.84391  0.53353  0.54898  1.0000
  H   H437      1.0  0.03760  0.73426  0.66898  1.0000
  Fe  Fe53      1.0  0.53923  0.71362  0.59701  1.0000
  N   N26       1.0  0.03618  0.69925  0.71752  1.0000
  H   H438      1.0  0.03607  0.73476  0.76641  1.0000
  S   S106      1.0  0.53807  0.76005  0.63178  1.0000
  H   H439      1.0  0.77104  0.51669  0.61624  1.0000
  Fe  Fe54      1.0  0.96975  0.93566  0.27702  1.0000
  S   S107      1.0  0.96205  0.88406  0.28367  1.0000
  Fe  Fe55      1.0  0.90643  0.89602  0.31151  1.0000
  S   S108      1.0  0.83635  0.86564  0.28080  1.0000
  S   S109      1.0  0.90961  0.94746  0.29989  1.0000
  H   H440      1.0  0.68234  0.83588  0.23779  1.0000
  C   C272      1.0  0.94142  0.80136  0.32765  1.0000
  S   S110      1.0  0.63305  0.94025  0.16069  1.0000
  Fe  Fe56      1.0  0.97320  0.94884  0.37485  1.0000
  N   N27       1.0  0.91376  0.78612  0.35126  1.0000
  H   H441      1.0  0.92204  0.82326  0.30915  1.0000
  H   H442      1.0  0.58606  0.83079  0.48832  1.0000
  H   H443      1.0  0.72959  0.93460  0.13535  1.0000
  C   C273      1.0  0.77985  0.88641  0.24789  1.0000
  C   C274      1.0  0.77327  0.91680  0.26106  1.0000
  C   C275      1.0  0.72753  0.93288  0.23463  1.0000
  C   C276      1.0  0.68870  0.91889  0.19443  1.0000
  C   C277      1.0  0.69562  0.88865  0.18077  1.0000
  C   C278      1.0  0.74108  0.87237  0.20770  1.0000
  H   H444      1.0  0.80305  0.92774  0.29212  1.0000
  H   H445      1.0  0.72238  0.95634  0.24514  1.0000
  H   H446      1.0  0.66590  0.87793  0.14949  1.0000
  H   H447      1.0  0.74666  0.84911  0.19694  1.0000
  S   S111      1.0  0.95730  0.95492  0.20529  1.0000
  H   H448      1.0  0.73556  0.79370  0.22901  1.0000
  H   H449      1.0  0.79641  0.99271  0.16480  1.0000
  H   H450      1.0  0.98055  0.80802  0.35375  1.0000
  C   C279      1.0  0.00753  0.99672  0.48091  1.0000
  H   H451      1.0  0.66803  0.81846  0.15644  1.0000
  C   C280      1.0  0.65474  0.81761  0.23611  1.0000
  H   H452      1.0  0.00373  0.93933  0.07492  1.0000
  H   H453      1.0  0.61617  0.77760  0.48118  1.0000
  N   N28       1.0  0.80114  0.94701  0.13750  1.0000
  H   H454      1.0  0.95029  0.81418  0.41468  1.0000
  Fe  Fe57      1.0  0.58270  0.92176  0.08721  1.0000
  H   H455      1.0  0.86240  0.96196  0.12309  1.0000
  H   H456      1.0  0.64034  0.78084  0.13457  1.0000
  C   C281      1.0  0.86166  0.77844  0.31535  1.0000
  H   H457      1.0  0.89181  0.83009  0.37063  1.0000
  H   H458      1.0  0.94378  0.95084  0.10891  1.0000
  H   H459      1.0  0.83998  0.80003  0.29806  1.0000
  H   H460      1.0  0.57926  0.77628  0.19076  1.0000
  N   N29       1.0  0.65533  0.79042  0.20696  1.0000
  C   C282      1.0  0.74540  0.94346  0.11158  1.0000
  C   C283      1.0  0.64105  0.80084  0.15776  1.0000
  C   C284      1.0  0.98258  0.94442  0.13229  1.0000
  S   S112      1.0  0.96461  0.89765  0.38820  1.0000
  N   N30       1.0  0.54408  0.78807  0.47992  1.0000
  H   H461      1.0  0.89117  0.79712  0.40597  1.0000
  C   C285      1.0  0.70669  0.77640  0.22745  1.0000
  C   C286      1.0  0.99899  0.94317  0.18174  1.0000
  H   H462      1.0  0.60266  0.81181  0.14131  1.0000
  C   C287      1.0  0.91157  0.80778  0.38722  1.0000
  Fe  Fe58      1.0  0.02104  0.88974  0.35924  1.0000
  S   S113      1.0  0.96868  0.99018  0.41929  1.0000
  C   C288      1.0  0.58966  0.76806  0.49426  1.0000
  H   H463      1.0  0.94465  0.78569  0.30071  1.0000
  H   H464      1.0  0.61657  0.82893  0.22103  1.0000
  H   H465      1.0  0.86688  0.91807  0.17613  1.0000
  H   H466      1.0  0.84022  0.76593  0.33165  1.0000
  H   H467      1.0  0.81149  0.94273  0.07415  1.0000
  C   C289      1.0  0.82042  0.95905  0.10463  1.0000
  H   H468      1.0  0.81576  0.89868  0.12744  1.0000
  H   H469      1.0  0.80088  0.96067  0.20342  1.0000
  H   H470      1.0  0.73412  0.92662  0.08134  1.0000
  C   C290      1.0  0.82478  0.91623  0.15641  1.0000
  H   H471      1.0  0.80366  0.98234  0.08996  1.0000
  H   H472      1.0  0.81156  0.90664  0.18175  1.0000
  C   C291      1.0  0.81408  0.96931  0.17745  1.0000
  H   H473      1.0  0.85590  0.97282  0.19734  1.0000
  H   H474      1.0  0.66465  0.81052  0.27331  1.0000
  C   C292      1.0  0.55941  0.81989  0.50018  1.0000
  H   H475      1.0  0.72621  0.96621  0.09691  1.0000
  H   H476      1.0  0.71822  0.76755  0.26419  1.0000
  S   S114      1.0  0.61542  0.89762  0.04400  1.0000
  S   S115      1.0  0.03403  0.94106  0.35077  1.0000
  H   H477      1.0  0.61051  0.01016  0.40972  1.0000
  C   C293      1.0  0.61864  0.76672  0.20641  1.0000
  C   C294      1.0  0.01644  0.93788  0.11295  1.0000
  C   C295      1.0  0.54228  0.78877  0.04317  1.0000
  H   H478      1.0  0.54164  0.80019  0.41251  1.0000
  H   H479      1.0  0.01855  0.00777  0.14903  1.0000
  H   H480      1.0  0.61092  0.76614  0.53371  1.0000
  Fe  Fe59      1.0  0.65338  0.98493  0.65752  1.0000
  C   C296      1.0  0.58014  0.78981  0.63389  1.0000
  S   S116      1.0  0.72514  0.95588  0.68666  1.0000
  S   S117      1.0  0.68896  0.86874  0.64380  1.0000
  C   C297      1.0  0.64692  0.83852  0.63994  1.0000
  C   C298      1.0  0.65800  0.80739  0.63309  1.0000
  H   H481      1.0  0.64174  0.80982  0.79246  1.0000
  Fe  Fe60      1.0  0.67280  0.91453  0.67071  1.0000
  C   C299      1.0  0.60215  0.84527  0.64323  1.0000
  H   H482      1.0  0.69270  0.80208  0.63064  1.0000
  H   H483      1.0  0.59307  0.86926  0.64795  1.0000
  S   S118      1.0  0.60107  0.94307  0.63608  1.0000
  C   C300      1.0  0.55548  0.81939  0.79988  1.0000
  C   C301      1.0  0.56874  0.82098  0.63991  1.0000
  C   C302      1.0  0.56129  0.94211  0.79086  1.0000
  S   S119      1.0  0.56044  0.81576  0.01148  1.0000
  S   S120      1.0  0.67524  0.91432  0.74287  1.0000
  C   C303      1.0  0.58868  0.94981  0.88850  1.0000
  Fe  Fe61      1.0  0.72111  0.95812  0.75610  1.0000
  C   C304      1.0  0.01318  0.78347  0.92542  1.0000
  S   S121      1.0  0.65372  0.99029  0.72904  1.0000
  S   S122      1.0  0.01730  0.90456  0.98402  1.0000
  S   S123      1.0  0.01543  0.95600  0.87916  1.0000
  C   C305      1.0  0.84754  0.96486  0.84216  1.0000
  C   C306      1.0  0.88451  0.96636  0.88966  1.0000
  C   C307      1.0  0.93613  0.96417  0.90104  1.0000
  C   C308      1.0  0.95106  0.96091  0.86487  1.0000
  H   H484      1.0  0.62243  0.88224  0.79302  1.0000
  H   H485      1.0  0.65993  0.96666  0.89388  1.0000
  H   H486      1.0  0.92517  0.82039  0.84519  1.0000
  C   C309      1.0  0.86234  0.96193  0.80577  1.0000
  H   H487      1.0  0.63619  0.95929  0.80830  1.0000
  C   C310      1.0  0.91419  0.96039  0.81712  1.0000
  S   S124      1.0  0.99762  0.81471  0.95349  1.0000
  S   S125      1.0  0.78341  0.96615  0.83014  1.0000
  H   H488      1.0  0.84888  0.88943  0.77699  1.0000
  C   C311      1.0  0.60790  0.86492  0.81035  1.0000
  H   H489      1.0  0.55984  0.99740  0.55296  1.0000
  C   C312      1.0  0.62279  0.95758  0.87032  1.0000
  C   C313      1.0  0.89377  0.83452  0.81778  1.0000
  C   C314      1.0  0.86174  0.84797  0.87409  1.0000
  H   H490      1.0  0.80332  0.86378  0.78194  1.0000
  H   H491      1.0  0.86150  0.81832  0.79812  1.0000
  H   H492      1.0  0.82419  0.89836  0.81849  1.0000
  H   H493      1.0  0.90733  0.84333  0.79218  1.0000
  H   H494      1.0  0.83394  0.96062  0.76905  1.0000
  N   N31       1.0  0.87875  0.86067  0.83992  1.0000
  H   H495      1.0  0.82870  0.83204  0.85619  1.0000
  H   H496      1.0  0.95546  0.86831  0.89283  1.0000
  H   H497      1.0  0.93608  0.89226  0.84084  1.0000
  S   S126      1.0  0.60627  0.95688  0.94918  1.0000
  H   H498      1.0  0.85043  0.86712  0.89168  1.0000
  S   S127      1.0  0.54432  0.93632  0.73004  1.0000
  H   H499      1.0  0.89255  0.83432  0.90282  1.0000
  H   H500      1.0  0.87319  0.96878  0.91790  1.0000
  C   C315      1.0  0.62470  0.78302  0.63019  1.0000
  C   C316      1.0  0.83696  0.87880  0.80271  1.0000
  Fe  Fe62      1.0  0.54623  0.86713  0.01839  1.0000
  H   H501      1.0  0.91341  0.90073  0.88409  1.0000
  C   C317      1.0  0.92281  0.88142  0.86545  1.0000
  H   H502      1.0  0.92570  0.95783  0.78905  1.0000
  H   H503      1.0  0.96439  0.96503  0.93789  1.0000
  H   H504      1.0  0.58866  0.80291  0.73554  1.0000
  C   C318      1.0  0.61053  0.82157  0.76162  1.0000
  H   H505      1.0  0.58550  0.80832  0.83242  1.0000
  C   C319      1.0  0.60936  0.95347  0.82178  1.0000
  Fe  Fe63      1.0  0.60783  0.94611  0.71047  1.0000
  N   N32       1.0  0.57760  0.84016  0.77654  1.0000
  H   H506      1.0  0.58479  0.87832  0.82420  1.0000
  H   H507      1.0  0.64097  0.85497  0.84162  1.0000
  Fe  Fe64      1.0  0.56695  0.92999  0.98498  1.0000
  H   H508      1.0  0.62821  0.83666  0.74427  1.0000
  H   H509      1.0  0.76793  0.01242  0.75176  1.0000
  C   C320      1.0  0.54088  0.93785  0.85781  1.0000
  H   H510      1.0  0.57890  0.81932  0.53980  1.0000
  H   H511      1.0  0.55179  0.86966  0.71463  1.0000
  H   H512      1.0  0.65769  0.01479  0.00134  1.0000
  S   S128      1.0  0.53906  0.95665  0.03018  1.0000
