data_image0
_chemical_formula_structural       CH2FeHSHC2FeHCHFeCHSHCH4C2HSHSCHS2HNH2C3HCSCFeHCNCHCH5CH2NHC2SCH6CHC3H2SH4CHCSCHC2FeHC2HSHC2H3CH2FeS2HFe2HCH2FeH2NS2CSCNHCHCH2CSFeS2FeS2FeSFeS3C2HC3HC2H2C2H2SCH2CH4CNHCH3CH8CNC2H5CHCH3C2H4CHSHCFeH2CH4C2H3C2HCHC5H5CHCHNH2CHNHCHC2HCHSHSHFeH2C3H2CHC2HCHSFeS2FeSNFeSFeS3HC2H2CH4C2HCH3CHC2H2C5H3CHC2HC2H2CHC2H2CSC3SH12CSH2NSNC2SH2SHFeHCHCS2H3SCH2FeHSHC2H7FeCHCHCFeH3CH2FeS2CFe2CS2CH2FeHSFeC7H3CH2NH2CSH2CSNHCH4SH2FeHS2HC3H2SH3CFeCH2CH4CHNHC2HCH2FeHSH3CHSCH2C3HCH2NC3H2CH6CH3SCHSFeHC2HCSCSCHC2HCNH2CSFeSFeHCSH2CH5CHCH3CHFeCS2HSH2SHC4H2FeNHNSCH2CHCHSCFeC2HC2HCH2CH3NHSCH5FeHS2H2NSCSCHSCSFeSH2SHFeHC6H4C2H4SC2H4Fe2CH3SC3HC2H3CNCFeSFeH2CFeCHC2SH2SHCSCHSCFeH14CH6CNH2SFe2SHSHCH2SH2CNH2SH4C3HCH2CFeSCS2FeHFeHS2H3C2SCH2C2H2CSHCFeHCSCFeH2CHSH7FeSHC2FeH7SHCFeC2HC6H5CSHC2NH4SCHSCH4CHSN2HCSHSC2SH2SH3CHCH2CHS2H2CFeH5CH2C2H2CHSFeHFeCH4SC2SHC2SCHCH3CHCSHFeSCHNHCHC5H3CHFeNHCFeCH4CHS2H2SHCFeCH2C3H2C2HCHC3HCSCH3NHSHC2H5C3H3C2H2CNH5NFeS3Fe2CS3CNH8C6H4CH2C2H3SH2CNH5CHSC2HSCHCH4C2FeC2HCHCFeH5CH4C2H2SH3FeS2FeS2CS2H4CH2NSCFeH2CNHNHCH3CHFeCHCSC2H6CH7C3HS2HCHCH2C2H3C6HSH3CHSCFeH2C2NH2SHCH3FeC4FeSCHCSH3C2HC2H2CH3SCFeCHCSHNC2HCH2C2FeS2HFeCFeHCH2SCSHCH2CHCH4CH3CS3H3Fe2NS3HSC2HSC2H3CHCFeCH3SH2CH3CH3CH2CSNSH4C2HSH2C2H4FeCHSCHCHCH2CHCSCFe2H3CH2CHSNC2HCSFeC2H2SH3C2HC2FeCH3CH2CHCH3CS3H2N2C2H4CH2FeHCHC2H7NCHCHCSHCHC3HFeS2FeSNFeCFeCS2H5S2CH5CH2SHC2H2CHCH4C2H5C2H3FeCH3SCHC2HC3HCSCHCH2NC2H2C2H2S2H2CHSHC2HFeS2FeSCFeSFeS3C3HCH2C2H2SCHNSH3C2HC3SH4N2CSCH6CHFeH3C2H3CH2SHC2HCHCHC2H2C3H7C2HCHCSC2HCFeH5S2C2HCH2CH3NCHC2H3CH2FeHCH4FeS2FeS2FeSFeS3HC3H2C4HFeHCHC3HFeH3SHCH4CHCH2CNSH3CH2C2SCH2CHC2HCH3C2H2CH2CH5CH6NHSC2SH2SH2CHFeHSFeH2SH6SH2CNCHNSC3HCH2NC3H3FeCH2CH2CNCH2CH2C2HC2SH2SH2C2SH5CHNHCHCH2C3H6FeS2H2C2FeH2SC2HSH3CHC2NCH2CHFeH3FeHC2HSCHCFeHSCHCHC2FeC3SNH4CH2FeHCSFeSH2S2HCH3CH6CH2SHCHS2C2H3CFeH4C3H3CHCHCHFeS2FeHFeS3HC2SC6HCNC2HSCH2CH3CH3CSCH3CSH2C2FeHC2HSC2H2FeSFeH3S2HSCNHFeNCH2FeH2CH2CH3CFeCNH2CFeC2H8SH5
_chemical_formula_sum              "C640 H1024 Fe128 S256 N64"
_cell_length_a       40.2706
_cell_length_b       37.2737
_cell_length_c       24.858
_cell_angle_alpha    90.4735
_cell_angle_beta     90.6083
_cell_angle_gamma    88.5614

_space_group_name_H-M_alt    "P 1"
_space_group_IT_number       1

loop_
  _space_group_symop_operation_xyz
  'x, y, z'

loop_
  _atom_site_type_symbol
  _atom_site_label
  _atom_site_symmetry_multiplicity
  _atom_site_fract_x
  _atom_site_fract_y
  _atom_site_fract_z
  _atom_site_occupancy
  C   C1        1.0  0.27781  0.36167  0.24931  1.0000
  H   H1        1.0  0.22226  0.45656  0.29915  1.0000
  H   H2        1.0  0.34019  0.48082  0.20830  1.0000
  Fe  Fe1       1.0  0.40164  0.36465  0.22366  1.0000
  H   H3        1.0  0.26902  0.38313  0.22144  1.0000
  S   S1        1.0  0.40040  0.33053  0.29757  1.0000
  H   H4        1.0  0.37769  0.50503  0.21869  1.0000
  C   C2        1.0  0.19214  0.41934  0.25495  1.0000
  C   C3        1.0  0.30699  0.68484  0.46833  1.0000
  Fe  Fe2       1.0  0.28149  0.50001  0.30586  1.0000
  H   H5        1.0  0.33368  0.68465  0.45700  1.0000
  C   C4        1.0  0.23545  0.32080  0.21987  1.0000
  H   H6        1.0  0.31238  0.40097  0.09235  1.0000
  Fe  Fe3       1.0  0.28761  0.48304  0.42563  1.0000
  C   C5        1.0  0.33247  0.54740  0.16779  1.0000
  H   H7        1.0  0.30569  0.69210  0.51182  1.0000
  S   S2        1.0  0.31886  0.46816  0.35422  1.0000
  H   H8        1.0  0.32417  0.56685  0.13632  1.0000
  C   C6        1.0  0.28536  0.29799  0.26362  1.0000
  H   H9        1.0  0.30984  0.53818  0.18812  1.0000
  H   H10       1.0  0.37643  0.46825  0.17122  1.0000
  H   H11       1.0  0.30482  0.36570  0.25641  1.0000
  H   H12       1.0  0.19757  0.57159  0.06439  1.0000
  C   C7        1.0  0.38143  0.53062  0.11756  1.0000
  C   C8        1.0  0.36209  0.49176  0.18748  1.0000
  H   H13       1.0  0.34516  0.47581  0.08454  1.0000
  S   S3        1.0  0.35626  0.38858  0.18278  1.0000
  H   H14       1.0  0.38659  0.27187  0.19492  1.0000
  S   S4        1.0  0.42541  0.69143  0.11586  1.0000
  C   C9        1.0  0.36418  0.39668  0.11467  1.0000
  H   H15       1.0  0.31529  0.32419  0.17766  1.0000
  S   S5        1.0  0.31443  0.53366  0.44396  1.0000
  S   S6        1.0  0.24737  0.50927  0.37541  1.0000
  H   H16       1.0  0.27899  0.34323  0.14562  1.0000
  N   N1        1.0  0.35175  0.51695  0.14437  1.0000
  H   H17       1.0  0.37430  0.54997  0.08523  1.0000
  H   H18       1.0  0.22985  0.29321  0.20538  1.0000
  C   C10       1.0  0.41567  0.54199  0.31558  1.0000
  C   C11       1.0  0.20560  0.41117  0.16086  1.0000
  C   C12       1.0  0.28783  0.32190  0.17381  1.0000
  H   H19       1.0  0.28261  0.29547  0.15473  1.0000
  C   C13       1.0  0.37559  0.24784  0.20978  1.0000
  S   S7        1.0  0.26722  0.48522  0.22101  1.0000
  C   C14       1.0  0.21754  0.44420  0.26050  1.0000
  Fe  Fe4       1.0  0.34270  0.52098  0.36893  1.0000
  H   H20       1.0  0.27391  0.30024  0.30407  1.0000
  C   C15       1.0  0.18590  0.40318  0.20497  1.0000
  N   N2        1.0  0.40065  0.46628  0.51529  1.0000
  C   C16       1.0  0.33770  0.40192  0.07834  1.0000
  H   H21       1.0  0.22455  0.33983  0.18994  1.0000
  C   C17       1.0  0.23647  0.45306  0.21593  1.0000
  H   H22       1.0  0.26490  0.36611  0.28824  1.0000
  H   H23       1.0  0.41745  0.39471  0.12433  1.0000
  H   H24       1.0  0.30896  0.48624  0.12357  1.0000
  H   H25       1.0  0.24588  0.44245  0.13203  1.0000
  H   H26       1.0  0.41565  0.70412  0.25406  1.0000
  C   C18       1.0  0.33096  0.49811  0.10436  1.0000
  H   H27       1.0  0.39788  0.54479  0.14656  1.0000
  H   H28       1.0  0.31274  0.30033  0.26884  1.0000
  N   N3        1.0  0.27160  0.32561  0.22669  1.0000
  H   H29       1.0  0.22192  0.32539  0.25825  1.0000
  C   C19       1.0  0.24110  0.51550  0.06144  1.0000
  C   C20       1.0  0.23075  0.43626  0.16627  1.0000
  S   S8        1.0  0.39852  0.51916  0.36931  1.0000
  C   C21       1.0  0.39687  0.39828  0.09645  1.0000
  H   H30       1.0  0.28077  0.27043  0.24804  1.0000
  H   H31       1.0  0.20103  0.39836  0.12234  1.0000
  H   H32       1.0  0.24290  0.54708  0.47831  1.0000
  H   H33       1.0  0.39615  0.50843  0.09845  1.0000
  H   H34       1.0  0.34732  0.56216  0.19832  1.0000
  H   H35       1.0  0.31591  0.70009  0.36401  1.0000
  C   C22       1.0  0.34331  0.23936  0.19372  1.0000
  H   H36       1.0  0.38765  0.51887  0.48574  1.0000
  C   C23       1.0  0.28970  0.69972  0.37775  1.0000
  C   C24       1.0  0.22471  0.65524  0.03035  1.0000
  C   C25       1.0  0.19139  0.48103  0.05153  1.0000
  H   H37       1.0  0.32972  0.25668  0.16626  1.0000
  H   H38       1.0  0.38760  0.41958  0.46897  1.0000
  S   S9        1.0  0.30743  0.55219  0.31538  1.0000
  H   H39       1.0  0.24261  0.50990  0.10537  1.0000
  H   H40       1.0  0.42487  0.69678  0.37422  1.0000
  H   H41       1.0  0.37731  0.46144  0.43755  1.0000
  H   H42       1.0  0.24164  0.68217  0.44647  1.0000
  C   C26       1.0  0.40010  0.71168  0.50461  1.0000
  H   H43       1.0  0.35274  0.44641  0.49240  1.0000
  C   C27       1.0  0.21941  0.56159  0.48041  1.0000
  S   S10       1.0  0.27817  0.44302  0.49097  1.0000
  C   C28       1.0  0.37855  0.44758  0.47701  1.0000
  H   H44       1.0  0.19282  0.45158  0.50807  1.0000
  C   C29       1.0  0.21500  0.59429  0.45398  1.0000
  C   C30       1.0  0.19330  0.54707  0.50892  1.0000
  Fe  Fe5       1.0  0.42092  0.63207  0.12560  1.0000
  H   H45       1.0  0.19033  0.53215  0.30134  1.0000
  C   C31       1.0  0.28085  0.64323  0.06260  1.0000
  C   C32       1.0  0.39736  0.56920  0.28992  1.0000
  H   H46       1.0  0.30113  0.64994  0.08930  1.0000
  S   S11       1.0  0.36637  0.63468  0.14181  1.0000
  H   H47       1.0  0.37317  0.57725  0.30464  1.0000
  C   C33       1.0  0.41078  0.58693  0.24622  1.0000
  C   C34       1.0  0.25121  0.66357  0.06458  1.0000
  H   H48       1.0  0.29810  0.65689  0.46370  1.0000
  H   H49       1.0  0.24890  0.68591  0.09259  1.0000
  H   H50       1.0  0.25611  0.49432  0.04031  1.0000
  C   C35       1.0  0.40306  0.40439  0.04190  1.0000
  H   H51       1.0  0.32192  0.51661  0.07211  1.0000
  H   H52       1.0  0.40475  0.66528  0.29172  1.0000
  Fe  Fe6       1.0  0.27629  0.55923  0.38921  1.0000
  S   S12       1.0  0.35884  0.68733  0.03688  1.0000
  S   S13       1.0  0.24619  0.60876  0.41100  1.0000
  H   H53       1.0  0.39680  0.60855  0.22825  1.0000
  Fe  Fe7       1.0  0.36995  0.69328  0.12476  1.0000
  Fe  Fe8       1.0  0.36027  0.62830  0.05326  1.0000
  H   H54       1.0  0.20643  0.45873  0.03320  1.0000
  C   C36       1.0  0.42538  0.67798  0.27001  1.0000
  H   H55       1.0  0.43178  0.66068  0.23484  1.0000
  H   H56       1.0  0.18906  0.47556  0.09520  1.0000
  Fe  Fe9       1.0  0.41406  0.68011  0.02884  1.0000
  H   H57       1.0  0.25311  0.54162  0.05449  1.0000
  H   H58       1.0  0.28054  0.67209  0.37066  1.0000
  N   N4        1.0  0.20627  0.51624  0.04194  1.0000
  S   S14       1.0  0.42643  0.67563  0.48676  1.0000
  S   S15       1.0  0.41450  0.62039  0.03779  1.0000
  C   C37       1.0  0.18468  0.61337  0.45832  1.0000
  S   S16       1.0  0.32211  0.59128  0.02070  1.0000
  C   C38       1.0  0.28419  0.61478  0.02589  1.0000
  N   N5        1.0  0.28702  0.71024  0.43506  1.0000
  H   H59       1.0  0.24902  0.71730  0.49461  1.0000
  C   C39       1.0  0.25187  0.70949  0.45153  1.0000
  H   H60       1.0  0.27485  0.71820  0.35140  1.0000
  C   C40       1.0  0.34391  0.40811  0.02370  1.0000
  H   H61       1.0  0.42835  0.40494  0.02779  1.0000
  H   H62       1.0  0.18759  0.53971  0.11529  1.0000
  C   C41       1.0  0.18728  0.54455  0.07119  1.0000
  S   S17       1.0  0.18869  0.68237  0.03143  1.0000
  Fe  Fe10      1.0  0.30840  0.45375  0.78755  1.0000
  S   S18       1.0  0.30714  0.46607  0.87610  1.0000
  S   S19       1.0  0.31309  0.49694  0.72623  1.0000
  Fe  Fe11      1.0  0.29961  0.37425  0.80270  1.0000
  S   S20       1.0  0.29805  0.37877  0.89245  1.0000
  S   S21       1.0  0.28710  0.32261  0.76152  1.0000
  Fe  Fe12      1.0  0.26559  0.42729  0.87733  1.0000
  S   S22       1.0  0.21846  0.43414  0.92356  1.0000
  Fe  Fe13      1.0  0.33990  0.41678  0.88352  1.0000
  S   S23       1.0  0.38516  0.41643  0.93725  1.0000
  S   S24       1.0  0.26363  0.41966  0.78800  1.0000
  S   S25       1.0  0.34487  0.40772  0.79434  1.0000
  C   C42       1.0  0.30378  0.48161  0.66104  1.0000
  C   C43       1.0  0.29829  0.50648  0.61989  1.0000
  H   H63       1.0  0.19301  0.38213  0.57454  1.0000
  C   C44       1.0  0.28733  0.68925  0.92742  1.0000
  C   C45       1.0  0.29388  0.43317  0.59738  1.0000
  C   C46       1.0  0.30141  0.44489  0.64985  1.0000
  H   H64       1.0  0.23268  0.29584  0.82701  1.0000
  C   C47       1.0  0.42660  0.68537  0.90040  1.0000
  C   C48       1.0  0.29022  0.49476  0.56776  1.0000
  H   H65       1.0  0.30567  0.42550  0.68148  1.0000
  H   H66       1.0  0.21610  0.40025  0.63055  1.0000
  C   C49       1.0  0.40957  0.56141  0.81745  1.0000
  C   C50       1.0  0.37834  0.70823  0.54755  1.0000
  H   H67       1.0  0.26513  0.67299  0.91819  1.0000
  H   H68       1.0  0.32339  0.41208  0.99581  1.0000
  S   S26       1.0  0.38061  0.64421  0.74418  1.0000
  C   C51       1.0  0.18664  0.44535  0.87788  1.0000
  H   H69       1.0  0.19683  0.52129  0.52767  1.0000
  H   H70       1.0  0.29682  0.68082  0.96764  1.0000
  C   C52       1.0  0.32173  0.29329  0.75975  1.0000
  H   H71       1.0  0.41077  0.41898  0.56210  1.0000
  H   H72       1.0  0.38914  0.23500  0.56564  1.0000
  H   H73       1.0  0.22673  0.31945  0.88941  1.0000
  H   H74       1.0  0.21804  0.47513  0.82577  1.0000
  C   C53       1.0  0.35310  0.30538  0.77480  1.0000
  N   N6        1.0  0.18593  0.32476  0.83322  1.0000
  H   H75       1.0  0.43244  0.37947  0.76302  1.0000
  C   C54       1.0  0.22785  0.62650  0.99405  1.0000
  H   H76       1.0  0.35618  0.33285  0.78724  1.0000
  H   H77       1.0  0.41814  0.46051  0.59683  1.0000
  H   H78       1.0  0.21086  0.46422  0.65377  1.0000
  C   C55       1.0  0.37663  0.40912  0.00539  1.0000
  H   H79       1.0  0.29236  0.40474  0.58879  1.0000
  H   H80       1.0  0.39435  0.30174  0.88495  1.0000
  H   H81       1.0  0.29378  0.24811  0.73177  1.0000
  H   H82       1.0  0.24395  0.72363  0.86117  1.0000
  H   H83       1.0  0.42173  0.55380  0.85625  1.0000
  H   H84       1.0  0.40441  0.56173  0.70954  1.0000
  H   H85       1.0  0.41370  0.33966  0.85512  1.0000
  H   H86       1.0  0.22191  0.50496  0.96091  1.0000
  C   C56       1.0  0.38072  0.28188  0.77331  1.0000
  N   N7        1.0  0.40611  0.52998  0.78134  1.0000
  C   C57       1.0  0.38585  0.50282  0.80774  1.0000
  C   C58       1.0  0.37695  0.24608  0.75799  1.0000
  H   H87       1.0  0.37697  0.68299  0.56853  1.0000
  H   H88       1.0  0.22740  0.41053  0.56282  1.0000
  H   H89       1.0  0.36465  0.55378  0.73812  1.0000
  H   H90       1.0  0.41502  0.30188  0.66872  1.0000
  H   H91       1.0  0.29959  0.53492  0.62858  1.0000
  C   C59       1.0  0.31804  0.25759  0.74329  1.0000
  H   H92       1.0  0.22978  0.72185  0.95760  1.0000
  C   C60       1.0  0.21375  0.30372  0.85761  1.0000
  H   H93       1.0  0.40513  0.29154  0.78325  1.0000
  H   H94       1.0  0.21737  0.35149  0.77775  1.0000
  H   H95       1.0  0.22281  0.47559  0.58693  1.0000
  C   C61       1.0  0.28844  0.45810  0.55613  1.0000
  C   C62       1.0  0.41202  0.32373  0.89267  1.0000
  H   H96       1.0  0.43195  0.30762  0.99350  1.0000
  H   H97       1.0  0.38629  0.51838  0.70254  1.0000
  H   H98       1.0  0.38229  0.47906  0.78107  1.0000
  H   H99       1.0  0.38261  0.66556  0.93731  1.0000
  C   C63       1.0  0.20590  0.40633  0.58973  1.0000
  H   H100      1.0  0.18472  0.49375  0.61369  1.0000
  S   S27       1.0  0.40847  0.60594  0.60567  1.0000
  H   H101      1.0  0.40089  0.34174  0.92390  1.0000
  C   C64       1.0  0.19358  0.46453  0.83138  1.0000
  Fe  Fe14      1.0  0.41869  0.63846  0.67990  1.0000
  H   H102      1.0  0.38989  0.31251  0.61049  1.0000
  H   H103      1.0  0.36068  0.51390  0.81756  1.0000
  C   C65       1.0  0.42974  0.67612  0.80370  1.0000
  H   H104      1.0  0.35760  0.64437  0.85225  1.0000
  H   H105      1.0  0.38492  0.57414  0.82660  1.0000
  H   H106      1.0  0.30683  0.68193  0.89758  1.0000
  H   H107      1.0  0.36245  0.50405  0.54014  1.0000
  C   C66       1.0  0.40837  0.25388  0.55222  1.0000
  C   C67       1.0  0.38813  0.50348  0.52395  1.0000
  H   H108      1.0  0.21136  0.37448  0.84069  1.0000
  H   H109      1.0  0.26088  0.58522  0.96194  1.0000
  H   H110      1.0  0.18773  0.29516  0.75857  1.0000
  C   C68       1.0  0.34565  0.23389  0.74270  1.0000
  C   C69       1.0  0.40234  0.29014  0.63280  1.0000
  H   H111      1.0  0.42471  0.58244  0.79871  1.0000
  C   C70       1.0  0.25775  0.60643  0.99156  1.0000
  H   H112      1.0  0.42568  0.23818  0.52587  1.0000
  C   C71       1.0  0.38969  0.54143  0.73064  1.0000
  C   C72       1.0  0.20117  0.46932  0.61233  1.0000
  C   C73       1.0  0.39850  0.66044  0.80375  1.0000
  C   C74       1.0  0.38154  0.65692  0.85206  1.0000
  C   C75       1.0  0.39572  0.66900  0.90031  1.0000
  H   H113      1.0  0.37627  0.44644  0.58518  1.0000
  H   H114      1.0  0.38270  0.27250  0.64818  1.0000
  H   H115      1.0  0.20769  0.62057  0.96670  1.0000
  H   H116      1.0  0.28433  0.51426  0.53721  1.0000
  H   H117      1.0  0.39577  0.27484  0.52718  1.0000
  C   C76       1.0  0.40147  0.44716  0.56717  1.0000
  H   H118      1.0  0.21305  0.55139  0.97499  1.0000
  C   C77       1.0  0.20529  0.52377  0.98361  1.0000
  H   H119      1.0  0.20496  0.27864  0.87616  1.0000
  N   N8        1.0  0.42615  0.26981  0.59857  1.0000
  H   H120      1.0  0.39771  0.49305  0.84578  1.0000
  H   H121      1.0  0.42468  0.26692  0.95604  1.0000
  C   C78       1.0  0.19880  0.35781  0.80958  1.0000
  H   H122      1.0  0.40417  0.51821  0.55297  1.0000
  N   N9        1.0  0.18327  0.43817  0.59055  1.0000
  H   H123      1.0  0.18815  0.05801  0.36779  1.0000
  C   C79       1.0  0.28977  0.78985  0.07136  1.0000
  H   H124      1.0  0.24931  0.87475  0.39768  1.0000
  C   C80       1.0  0.29105  0.06235  0.45958  1.0000
  C   C81       1.0  0.25627  0.78567  0.15111  1.0000
  H   H125      1.0  0.23605  0.72827  0.42718  1.0000
  C   C82       1.0  0.26042  0.79844  0.09890  1.0000
  H   H126      1.0  0.39244  0.12561  0.20973  1.0000
  S   S28       1.0  0.35806  0.89364  0.47598  1.0000
  H   H127      1.0  0.23368  0.79222  0.17265  1.0000
  S   S29       1.0  0.22857  0.82500  0.06904  1.0000
  H   H128      1.0  0.27178  0.04407  0.44388  1.0000
  Fe  Fe15      1.0  0.40604  0.91170  0.51315  1.0000
  H   H129      1.0  0.32614  0.74843  0.43181  1.0000
  H   H130      1.0  0.29950  0.04578  0.02912  1.0000
  C   C83       1.0  0.40934  0.15697  0.11763  1.0000
  C   C84       1.0  0.28151  0.76495  0.17605  1.0000
  C   C85       1.0  0.31070  0.75600  0.14840  1.0000
  H   H131      1.0  0.22970  0.09058  0.47288  1.0000
  H   H132      1.0  0.42615  0.84848  0.46359  1.0000
  C   C86       1.0  0.31475  0.76833  0.09584  1.0000
  H   H133      1.0  0.33757  0.76221  0.07482  1.0000
  C   C87       1.0  0.28400  0.02842  0.05217  1.0000
  C   C88       1.0  0.29948  0.74692  0.44272  1.0000
  H   H134      1.0  0.32664  0.95877  0.22617  1.0000
  C   C89       1.0  0.29996  0.96704  0.22277  1.0000
  H   H135      1.0  0.27826  0.75557  0.21666  1.0000
  S   S30       1.0  0.19200  0.90379  0.34244  1.0000
  Fe  Fe16      1.0  0.27271  0.15078  0.24115  1.0000
  S   S31       1.0  0.29521  0.09725  0.21806  1.0000
  S   S32       1.0  0.28719  0.20010  0.19733  1.0000
  Fe  Fe17      1.0  0.23059  0.12060  0.32921  1.0000
  S   S33       1.0  0.24980  0.06472  0.31464  1.0000
  N   N10       1.0  0.28091  0.95464  0.26931  1.0000
  Fe  Fe18      1.0  0.29956  0.08937  0.30701  1.0000
  S   S34       1.0  0.34368  0.06041  0.34335  1.0000
  Fe  Fe19      1.0  0.24347  0.07792  0.22737  1.0000
  S   S35       1.0  0.21871  0.03755  0.17450  1.0000
  S   S36       1.0  0.28101  0.14457  0.33011  1.0000
  S   S37       1.0  0.22029  0.13216  0.24223  1.0000
  H   H136      1.0  0.26736  0.90487  0.30502  1.0000
  C   C90       1.0  0.28078  0.99241  0.03684  1.0000
  C   C91       1.0  0.38258  0.07211  0.43231  1.0000
  H   H137      1.0  0.28820  0.90181  0.46328  1.0000
  H   H138      1.0  0.27178  0.90299  0.23356  1.0000
  C   C92       1.0  0.21182  0.95706  0.41116  1.0000
  H   H139      1.0  0.29320  0.79981  0.03130  1.0000
  H   H140      1.0  0.28115  0.96132  0.35531  1.0000
  H   H141      1.0  0.29543  0.99925  0.31913  1.0000
  H   H142      1.0  0.41262  0.08158  0.50299  1.0000
  C   C93       1.0  0.38052  0.14674  0.42129  1.0000
  C   C94       1.0  0.26709  0.91736  0.44868  1.0000
  H   H143      1.0  0.38344  0.04322  0.43667  1.0000
  C   C95       1.0  0.24596  0.96716  0.26381  1.0000
  H   H144      1.0  0.32156  0.95994  0.32572  1.0000
  H   H145      1.0  0.23389  0.95583  0.22722  1.0000
  H   H146      1.0  0.42516  0.17396  0.09224  1.0000
  C   C96       1.0  0.21747  0.92191  0.39271  1.0000
  H   H147      1.0  0.18891  0.97678  0.02617  1.0000
  C   C97       1.0  0.29538  0.96940  0.31950  1.0000
  C   C98       1.0  0.39779  0.13116  0.46469  1.0000
  H   H148      1.0  0.29863  0.99686  0.21952  1.0000
  H   H149      1.0  0.39027  0.09341  0.15598  1.0000
  C   C99       1.0  0.26614  0.04230  0.09632  1.0000
  C   C100      1.0  0.24443  0.02033  0.12382  1.0000
  C   C101      1.0  0.24197  0.98424  0.10925  1.0000
  C   C102      1.0  0.26097  0.97010  0.06706  1.0000
  C   C103      1.0  0.24500  0.90201  0.41172  1.0000
  H   H150      1.0  0.26794  0.07034  0.10733  1.0000
  H   H151      1.0  0.22543  0.96708  0.13067  1.0000
  H   H152      1.0  0.26019  0.94184  0.05793  1.0000
  C   C104      1.0  0.36499  0.08772  0.38927  1.0000
  H   H153      1.0  0.22981  0.99986  0.46120  1.0000
  C   C105      1.0  0.36402  0.12504  0.38381  1.0000
  C   C106      1.0  0.28222  0.91499  0.27108  1.0000
  H   H154      1.0  0.35102  0.13721  0.35021  1.0000
  C   C107      1.0  0.38219  0.77397  0.49458  1.0000
  C   C108      1.0  0.34685  0.18546  0.24716  1.0000
  H   H155      1.0  0.25756  0.12549  0.45622  1.0000
  H   H156      1.0  0.29821  0.07993  0.42600  1.0000
  C   C109      1.0  0.25052  0.10686  0.48874  1.0000
  H   H157      1.0  0.33585  0.16132  0.26157  1.0000
  C   C110      1.0  0.40775  0.10876  0.18180  1.0000
  C   C111      1.0  0.39876  0.09383  0.47021  1.0000
  H   H158      1.0  0.30814  0.90443  0.27624  1.0000
  H   H159      1.0  0.38352  0.79933  0.47392  1.0000
  C   C112      1.0  0.37932  0.19370  0.26283  1.0000
  S   S38       1.0  0.19242  0.13383  0.39189  1.0000
  C   C113      1.0  0.23406  0.97251  0.44778  1.0000
  C   C114      1.0  0.32863  0.20864  0.21339  1.0000
  C   C115      1.0  0.26203  0.95285  0.46587  1.0000
  S   S39       1.0  0.34204  0.73013  0.18078  1.0000
  H   H160      1.0  0.19106  0.97287  0.39563  1.0000
  H   H161      1.0  0.23097  0.95927  0.29878  1.0000
  H   H162      1.0  0.24395  0.99678  0.26109  1.0000
  H   H163      1.0  0.29011  0.95585  0.18431  1.0000
  H   H164      1.0  0.37971  0.17560  0.41674  1.0000
  H   H165      1.0  0.42232  0.08913  0.20664  1.0000
  H   H166      1.0  0.29727  0.75593  0.48541  1.0000
  H   H167      1.0  0.39304  0.17610  0.28989  1.0000
  H   H168      1.0  0.41864  0.74695  0.44469  1.0000
  H   H169      1.0  0.31520  0.12449  0.49498  1.0000
  H   H170      1.0  0.39167  0.14318  0.09017  1.0000
  H   H171      1.0  0.28533  0.76680  0.41772  1.0000
  C   C116      1.0  0.40176  0.74437  0.47770  1.0000
  S   S40       1.0  0.29154  0.97371  0.50687  1.0000
  H   H172      1.0  0.31319  0.04534  0.47062  1.0000
  H   H173      1.0  0.39459  0.17530  0.14438  1.0000
  N   N11       1.0  0.27895  0.08376  0.50597  1.0000
  S   S41       1.0  0.41900  0.15843  0.51072  1.0000
  N   N12       1.0  0.42971  0.13091  0.14911  1.0000
  C   C117      1.0  0.39355  0.22511  0.24452  1.0000
  C   C118      1.0  0.21340  0.91897  0.69392  1.0000
  S   S42       1.0  0.23302  0.83499  0.91321  1.0000
  H   H174      1.0  0.36869  0.86317  0.68361  1.0000
  H   H175      1.0  0.30355  0.77791  0.93978  1.0000
  S   S43       1.0  0.22344  0.91061  0.97948  1.0000
  H   H176      1.0  0.23149  0.97127  0.62660  1.0000
  Fe  Fe20      1.0  0.28449  0.85302  0.89667  1.0000
  H   H177      1.0  0.26097  0.76741  0.86994  1.0000
  C   C119      1.0  0.34044  0.84982  0.80978  1.0000
  H   H178      1.0  0.24872  0.04108  0.53419  1.0000
  C   C120      1.0  0.36503  0.90827  0.80304  1.0000
  S   S44       1.0  0.40518  0.87385  0.58264  1.0000
  S   S45       1.0  0.33302  0.80550  0.55563  1.0000
  H   H179      1.0  0.34131  0.81734  0.73766  1.0000
  H   H180      1.0  0.26726  0.98285  0.73397  1.0000
  H   H181      1.0  0.20565  0.02392  0.89785  1.0000
  S   S46       1.0  0.29692  0.86936  0.98109  1.0000
  C   C121      1.0  0.34811  0.84258  0.75609  1.0000
  H   H182      1.0  0.28936  0.04253  0.56413  1.0000
  H   H183      1.0  0.42622  0.76695  0.79178  1.0000
  Fe  Fe21      1.0  0.42927  0.09257  0.69066  1.0000
  H   H184      1.0  0.22232  0.99225  0.94567  1.0000
  S   S47       1.0  0.31877  0.81889  0.84701  1.0000
  H   H185      1.0  0.42865  0.83694  0.92885  1.0000
  C   C122      1.0  0.25143  0.95188  0.63943  1.0000
  C   C123      1.0  0.36343  0.86865  0.72543  1.0000
  H   H186      1.0  0.21335  0.89643  0.66429  1.0000
  H   H187      1.0  0.23866  0.95830  0.77426  1.0000
  H   H188      1.0  0.34341  0.88802  0.87522  1.0000
  H   H189      1.0  0.27442  0.88943  0.68061  1.0000
  H   H190      1.0  0.30363  0.03549  0.89102  1.0000
  H   H191      1.0  0.24070  0.12347  0.52269  1.0000
  H   H192      1.0  0.34838  0.07958  0.90050  1.0000
  Fe  Fe22      1.0  0.24405  0.85537  0.99633  1.0000
  C   C124      1.0  0.34906  0.88254  0.83344  1.0000
  H   H193      1.0  0.40741  0.75439  0.85375  1.0000
  C   C125      1.0  0.25300  0.73639  0.96671  1.0000
  H   H194      1.0  0.26870  0.90118  0.74993  1.0000
  C   C126      1.0  0.41298  0.77760  0.82781  1.0000
  Fe  Fe23      1.0  0.21806  0.89185  0.89454  1.0000
  H   H195      1.0  0.34256  0.20611  0.73137  1.0000
  H   H196      1.0  0.25243  0.93003  0.60861  1.0000
  H   H197      1.0  0.32769  0.08948  0.54061  1.0000
  C   C127      1.0  0.37161  0.90159  0.74879  1.0000
  H   H198      1.0  0.21154  0.05131  0.76325  1.0000
  H   H199      1.0  0.35708  0.99529  0.78309  1.0000
  Fe  Fe24      1.0  0.35752  0.11040  0.66674  1.0000
  S   S48       1.0  0.36783  0.16551  0.63690  1.0000
  S   S49       1.0  0.30901  0.08285  0.66431  1.0000
  C   C128      1.0  0.19010  0.04577  0.99779  1.0000
  Fe  Fe25      1.0  0.41061  0.13867  0.59450  1.0000
  Fe  Fe26      1.0  0.40318  0.16816  0.70712  1.0000
  C   C129      1.0  0.35664  0.07148  0.85948  1.0000
  S   S50       1.0  0.39729  0.08292  0.61819  1.0000
  S   S51       1.0  0.38822  0.11576  0.74121  1.0000
  C   C130      1.0  0.36702  0.01057  0.88822  1.0000
  H   H200      1.0  0.38371  0.07677  0.85698  1.0000
  H   H201      1.0  0.20804  0.90786  0.73434  1.0000
  Fe  Fe27      1.0  0.37852  0.91941  0.62416  1.0000
  H   H202      1.0  0.22332  0.98743  0.72220  1.0000
  S   S52       1.0  0.26866  0.90830  0.87032  1.0000
  Fe  Fe28      1.0  0.27572  0.92309  0.95696  1.0000
  C   C131      1.0  0.23809  0.09241  0.80558  1.0000
  C   C132      1.0  0.23301  0.06789  0.76366  1.0000
  C   C133      1.0  0.25515  0.06526  0.72096  1.0000
  C   C134      1.0  0.28293  0.08683  0.71998  1.0000
  C   C135      1.0  0.28893  0.11079  0.76253  1.0000
  C   C136      1.0  0.26649  0.11347  0.80563  1.0000
  C   C137      1.0  0.24368  0.96791  0.73290  1.0000
  H   H203      1.0  0.25028  0.04693  0.68796  1.0000
  H   H204      1.0  0.31022  0.12790  0.76149  1.0000
  H   H205      1.0  0.27043  0.13273  0.83773  1.0000
  C   C138      1.0  0.36013  0.77031  0.53717  1.0000
  H   H206      1.0  0.34081  0.73447  0.59604  1.0000
  H   H207      1.0  0.24648  0.76554  0.96823  1.0000
  N   N13       1.0  0.34972  0.03341  0.84789  1.0000
  H   H208      1.0  0.35897  0.01765  0.92983  1.0000
  H   H209      1.0  0.39441  0.01346  0.88649  1.0000
  C   C139      1.0  0.31357  0.02776  0.85077  1.0000
  S   S53       1.0  0.29899  0.97577  0.97764  1.0000
  H   H210      1.0  0.34890  0.04063  0.76195  1.0000
  H   H211      1.0  0.30760  0.99908  0.84382  1.0000
  C   C140      1.0  0.36162  0.02390  0.79334  1.0000
  S   S54       1.0  0.38313  0.95856  0.55743  1.0000
  N   N14       1.0  0.24529  0.93780  0.69385  1.0000
  H   H212      1.0  0.38881  0.02806  0.78950  1.0000
  C   C141      1.0  0.19889  0.00248  0.92640  1.0000
  H   H213      1.0  0.36151  0.98176  0.88196  1.0000
  H   H214      1.0  0.18830  0.98017  0.90216  1.0000
  H   H215      1.0  0.25790  0.07479  0.58377  1.0000
  H   H216      1.0  0.38872  0.78929  0.81386  1.0000
  S   S55       1.0  0.20741  0.09777  0.85502  1.0000
  H   H217      1.0  0.42348  0.22182  0.64500  1.0000
  H   H218      1.0  0.29969  0.04392  0.82016  1.0000
  Fe  Fe29      1.0  0.35490  0.86001  0.55017  1.0000
  H   H219      1.0  0.37173  0.93351  0.82117  1.0000
  S   S56       1.0  0.32807  0.90213  0.59867  1.0000
  S   S57       1.0  0.38868  0.93493  0.70969  1.0000
  H   H220      1.0  0.34358  0.08956  0.83037  1.0000
  C   C142      1.0  0.26686  0.73816  0.87235  1.0000
  C   C143      1.0  0.35795  0.73734  0.56318  1.0000
  C   C144      1.0  0.27256  0.91249  0.70927  1.0000
  H   H221      1.0  0.29705  0.92578  0.70984  1.0000
  H   H222      1.0  0.19652  0.06838  0.97099  1.0000
  S   S58       1.0  0.41178  0.21724  0.75734  1.0000
  H   H223      1.0  0.27537  0.96614  0.63771  1.0000
  H   H224      1.0  0.19227  0.93747  0.68336  1.0000
  H   H225      1.0  0.29782  0.12301  0.56151  1.0000
  C   C145      1.0  0.26820  0.05951  0.54883  1.0000
  Fe  Fe30      1.0  0.33477  0.93706  0.52755  1.0000
  C   C146      1.0  0.41477  0.81619  0.90605  1.0000
  H   H226      1.0  0.38980  0.82787  0.89574  1.0000
  H   H227      1.0  0.41418  0.84908  0.81071  1.0000
  C   C147      1.0  0.30607  0.10629  0.52657  1.0000
  H   H228      1.0  0.21343  0.03663  0.01832  1.0000
  H   H229      1.0  0.41095  0.79328  0.93365  1.0000
  H   H230      1.0  0.32917  0.74309  0.91041  1.0000
  H   H231      1.0  0.31879  0.74170  0.98063  1.0000
  C   C148      1.0  0.30902  0.74851  0.93994  1.0000
  H   H232      1.0  0.28591  0.73208  0.84118  1.0000
  N   N15       1.0  0.27903  0.72809  0.92661  1.0000
  H   H233      1.0  0.26119  0.72865  0.00803  1.0000
  C   C149      1.0  0.46119  0.55076  0.25405  1.0000
  C   C150      1.0  0.58081  0.55864  0.14885  1.0000
  H   H234      1.0  0.50348  0.69120  0.11828  1.0000
  C   C151      1.0  0.47238  0.47019  0.15070  1.0000
  H   H235      1.0  0.43468  0.48077  0.45351  1.0000
  H   H236      1.0  0.57918  0.64929  0.05719  1.0000
  Fe  Fe31      1.0  0.47566  0.35810  0.21366  1.0000
  H   H237      1.0  0.56082  0.35623  0.39628  1.0000
  S   S59       1.0  0.48239  0.32333  0.28583  1.0000
  H   H238      1.0  0.50469  0.52867  0.06191  1.0000
  H   H239      1.0  0.47497  0.44084  0.15824  1.0000
  H   H240      1.0  0.47968  0.48428  0.18849  1.0000
  C   C152      1.0  0.51707  0.29863  0.44655  1.0000
  H   H241      1.0  0.51620  0.25807  0.07741  1.0000
  S   S60       1.0  0.43375  0.23600  0.26475  1.0000
  C   C153      1.0  0.49510  0.36329  0.49339  1.0000
  H   H242      1.0  0.49737  0.53548  0.13218  1.0000
  H   H243      1.0  0.52574  0.27380  0.42819  1.0000
  C   C154      1.0  0.52830  0.47212  0.11744  1.0000
  C   C155      1.0  0.48924  0.51989  0.09614  1.0000
  C   C156      1.0  0.53398  0.31246  0.49114  1.0000
  H   H244      1.0  0.62168  0.46334  0.14908  1.0000
  C   C157      1.0  0.54954  0.37076  0.36132  1.0000
  H   H245      1.0  0.54950  0.41814  0.28062  1.0000
  H   H246      1.0  0.50736  0.30061  0.15301  1.0000
  N   N16       1.0  0.55394  0.40986  0.36609  1.0000
  C   C158      1.0  0.56284  0.66874  0.07952  1.0000
  C   C159      1.0  0.53814  0.42321  0.41607  1.0000
  C   C160      1.0  0.53830  0.42786  0.31907  1.0000
  H   H247      1.0  0.54880  0.40952  0.45224  1.0000
  H   H248      1.0  0.54149  0.45742  0.32093  1.0000
  C   C161      1.0  0.60528  0.50805  0.10059  1.0000
  H   H249      1.0  0.54172  0.45238  0.42216  1.0000
  H   H250      1.0  0.59383  0.44671  0.37067  1.0000
  H   H251      1.0  0.51116  0.42285  0.31676  1.0000
  H   H252      1.0  0.60220  0.40490  0.40362  1.0000
  H   H253      1.0  0.52277  0.36440  0.35993  1.0000
  H   H254      1.0  0.57741  0.69321  0.08830  1.0000
  C   C162      1.0  0.61085  0.49019  0.14932  1.0000
  H   H255      1.0  0.60255  0.40749  0.33104  1.0000
  H   H256      1.0  0.56094  0.35963  0.32393  1.0000
  H   H257      1.0  0.61224  0.49501  0.06324  1.0000
  S   S61       1.0  0.60769  0.48271  0.25794  1.0000
  C   C163      1.0  0.58976  0.41742  0.36795  1.0000
  H   H258      1.0  0.51092  0.41889  0.41541  1.0000
  S   S62       1.0  0.51681  0.37700  0.16229  1.0000
  Fe  Fe32      1.0  0.65297  0.55673  0.40768  1.0000
  H   H259      1.0  0.53672  0.48570  0.15503  1.0000
  C   C164      1.0  0.52335  0.34653  0.10894  1.0000
  C   C165      1.0  0.58728  0.54114  0.19789  1.0000
  H   H260      1.0  0.50391  0.70322  0.30005  1.0000
  C   C166      1.0  0.43452  0.46692  0.49302  1.0000
  S   S63       1.0  0.57838  0.56188  0.03856  1.0000
  C   C167      1.0  0.60188  0.50665  0.19801  1.0000
  S   S64       1.0  0.61572  0.56279  0.47333  1.0000
  C   C168      1.0  0.48928  0.31712  0.42530  1.0000
  H   H261      1.0  0.53282  0.44285  0.12261  1.0000
  C   C169      1.0  0.51621  0.31024  0.11493  1.0000
  C   C170      1.0  0.47942  0.35045  0.44673  1.0000
  H   H262      1.0  0.57996  0.55381  0.23539  1.0000
  C   C171      1.0  0.44544  0.70753  0.35007  1.0000
  N   N17       1.0  0.49310  0.48082  0.10505  1.0000
  H   H263      1.0  0.46300  0.52792  0.08719  1.0000
  H   H264      1.0  0.44573  0.63529  0.35149  1.0000
  C   C172      1.0  0.52120  0.28607  0.07199  1.0000
  S   S65       1.0  0.56449  0.52057  0.39017  1.0000
  Fe  Fe33      1.0  0.60710  0.51664  0.33298  1.0000
  S   S66       1.0  0.64444  0.49827  0.39487  1.0000
  Fe  Fe34      1.0  0.60299  0.50610  0.45300  1.0000
  H   H265      1.0  0.44564  0.47632  0.14295  1.0000
  C   C173      1.0  0.58947  0.54188  0.10010  1.0000
  S   S67       1.0  0.57051  0.29078  0.51387  1.0000
  H   H266      1.0  0.48607  0.54390  0.24078  1.0000
  H   H267      1.0  0.54458  0.48064  0.08448  1.0000
  C   C174      1.0  0.53523  0.35865  0.05978  1.0000
  H   H268      1.0  0.48745  0.65078  0.35560  1.0000
  H   H269      1.0  0.65859  0.67725  0.38972  1.0000
  H   H270      1.0  0.47594  0.30596  0.39156  1.0000
  H   H271      1.0  0.54094  0.38663  0.05489  1.0000
  H   H272      1.0  0.46684  0.71171  0.37784  1.0000
  C   C175      1.0  0.46570  0.64785  0.32796  1.0000
  H   H273      1.0  0.45627  0.46664  0.04559  1.0000
  C   C176      1.0  0.61932  0.71438  0.36635  1.0000
  H   H274      1.0  0.47331  0.62861  0.29568  1.0000
  H   H275      1.0  0.66989  0.40394  0.16521  1.0000
  H   H276      1.0  0.48835  0.71104  0.05665  1.0000
  C   C177      1.0  0.53240  0.29827  0.02246  1.0000
  H   H277      1.0  0.48970  0.67973  0.24106  1.0000
  Fe  Fe35      1.0  0.58080  0.57687  0.40558  1.0000
  C   C178      1.0  0.48176  0.69813  0.27423  1.0000
  S   S68       1.0  0.54913  0.62669  0.41351  1.0000
  S   S69       1.0  0.45060  0.37800  0.41179  1.0000
  H   H278      1.0  0.65963  0.42766  0.22624  1.0000
  S   S70       1.0  0.45880  0.59895  0.17155  1.0000
  H   H279      1.0  0.67914  0.48335  0.18650  1.0000
  H   H280      1.0  0.48420  0.23498  0.37560  1.0000
  S   S71       1.0  0.43454  0.32626  0.17766  1.0000
  H   H281      1.0  0.49628  0.69241  0.49651  1.0000
  C   C179      1.0  0.56330  0.69489  0.38375  1.0000
  C   C180      1.0  0.57604  0.66175  0.40098  1.0000
  C   C181      1.0  0.61048  0.65606  0.40507  1.0000
  C   C182      1.0  0.63212  0.68233  0.38776  1.0000
  H   H282      1.0  0.53675  0.69974  0.38174  1.0000
  H   H283      1.0  0.62060  0.63116  0.42066  1.0000
  Fe  Fe36      1.0  0.43760  0.29534  0.25460  1.0000
  N   N18       1.0  0.53233  0.67772  0.04834  1.0000
  H   H284      1.0  0.46225  0.51229  0.31860  1.0000
  N   N19       1.0  0.67378  0.25933  0.50109  1.0000
  S   S72       1.0  0.61903  0.57477  0.34068  1.0000
  C   C183      1.0  0.51122  0.70310  0.07963  1.0000
  H   H285      1.0  0.64998  0.68938  0.25304  1.0000
  H   H286      1.0  0.56841  0.58472  0.14866  1.0000
  C   C184      1.0  0.65852  0.27014  0.44916  1.0000
  H   H287      1.0  0.63129  0.27530  0.45311  1.0000
  C   C185      1.0  0.68003  0.41287  0.20486  1.0000
  H   H288      1.0  0.55158  0.52781  0.50158  1.0000
  S   S73       1.0  0.44267  0.39877  0.25509  1.0000
  C   C186      1.0  0.51855  0.70388  0.51645  1.0000
  Fe  Fe37      1.0  0.44500  0.36066  0.32485  1.0000
  C   C187      1.0  0.65726  0.66615  0.22687  1.0000
  C   C188      1.0  0.52226  0.34413  0.51587  1.0000
  H   H289      1.0  0.50645  0.63133  0.07498  1.0000
  C   C189      1.0  0.44781  0.53303  0.29815  1.0000
  C   C190      1.0  0.44242  0.57744  0.22753  1.0000
  H   H290      1.0  0.55686  0.65621  0.11862  1.0000
  C   C191      1.0  0.48282  0.46105  0.05603  1.0000
  H   H291      1.0  0.67894  0.54476  0.31601  1.0000
  H   H292      1.0  0.64110  0.64354  0.23767  1.0000
  C   C192      1.0  0.58495  0.72125  0.36686  1.0000
  H   H293      1.0  0.65139  0.67386  0.18461  1.0000
  H   H294      1.0  0.48740  0.38885  0.51071  1.0000
  H   H295      1.0  0.66221  0.24886  0.41793  1.0000
  N   N20       1.0  0.45458  0.68285  0.30557  1.0000
  H   H296      1.0  0.48611  0.43148  0.06135  1.0000
  S   S74       1.0  0.59280  0.46496  0.51569  1.0000
  C   C193      1.0  0.51393  0.64458  0.03712  1.0000
  H   H297      1.0  0.47399  0.72430  0.25611  1.0000
  H   H298      1.0  0.44490  0.43932  0.48647  1.0000
  H   H299      1.0  0.54034  0.69656  0.49117  1.0000
  H   H300      1.0  0.66969  0.29506  0.43377  1.0000
  H   H301      1.0  0.49777  0.46853  0.02058  1.0000
  Fe  Fe38      1.0  0.55252  0.47428  0.89081  1.0000
  H   H302      1.0  0.60681  0.59083  0.59480  1.0000
  S   S75       1.0  0.49983  0.46344  0.86626  1.0000
  S   S76       1.0  0.53732  0.26867  0.96736  1.0000
  H   H303      1.0  0.60693  0.33578  0.95823  1.0000
  H   H304      1.0  0.45534  0.53385  0.74949  1.0000
  N   N21       1.0  0.65760  0.43136  0.68751  1.0000
  S   S77       1.0  0.56946  0.53107  0.88662  1.0000
  C   C194      1.0  0.66769  0.46469  0.66102  1.0000
  S   S78       1.0  0.63839  0.50231  0.94649  1.0000
  C   C195      1.0  0.45850  0.28493  0.86805  1.0000
  H   H305      1.0  0.59232  0.26915  0.89304  1.0000
  S   S79       1.0  0.56189  0.27036  0.75712  1.0000
  C   C196      1.0  0.44213  0.24086  0.63059  1.0000
  S   S80       1.0  0.52777  0.25606  0.63820  1.0000
  Fe  Fe39      1.0  0.52657  0.29935  0.70106  1.0000
  S   S81       1.0  0.47767  0.32462  0.72429  1.0000
  H   H306      1.0  0.61383  0.40950  0.72199  1.0000
  H   H307      1.0  0.60678  0.58217  0.74407  1.0000
  S   S82       1.0  0.56513  0.33245  0.66197  1.0000
  H   H308      1.0  0.55275  0.43215  0.59702  1.0000
  Fe  Fe40      1.0  0.58773  0.52202  0.97118  1.0000
  H   H309      1.0  0.57130  0.61717  0.61569  1.0000
  C   C197      1.0  0.49414  0.42449  0.82739  1.0000
  C   C198      1.0  0.46218  0.41635  0.80895  1.0000
  C   C199      1.0  0.45717  0.38565  0.77717  1.0000
  C   C200      1.0  0.48412  0.36300  0.76381  1.0000
  C   C201      1.0  0.51598  0.37081  0.78284  1.0000
  C   C202      1.0  0.52096  0.40149  0.81469  1.0000
  H   H310      1.0  0.65996  0.24995  0.73042  1.0000
  H   H311      1.0  0.43766  0.49044  0.74232  1.0000
  H   H312      1.0  0.53680  0.35309  0.77335  1.0000
  H   H313      1.0  0.54551  0.40716  0.82957  1.0000
  C   C203      1.0  0.54072  0.51137  0.53185  1.0000
  C   C204      1.0  0.66260  0.40071  0.65009  1.0000
  H   H314      1.0  0.44298  0.67876  0.76639  1.0000
  H   H315      1.0  0.48337  0.27364  0.87989  1.0000
  H   H316      1.0  0.49092  0.65035  0.01311  1.0000
  H   H317      1.0  0.65272  0.46996  0.62385  1.0000
  S   S83       1.0  0.64424  0.32462  0.75389  1.0000
  C   C205      1.0  0.43932  0.51423  0.76954  1.0000
  C   C206      1.0  0.67798  0.42564  0.73668  1.0000
  H   H318      1.0  0.68024  0.28132  0.58070  1.0000
  H   H319      1.0  0.46617  0.27856  0.97487  1.0000
  H   H320      1.0  0.66110  0.56166  0.88957  1.0000
  H   H321      1.0  0.68033  0.32744  0.92690  1.0000
  Fe  Fe41      1.0  0.56707  0.23013  0.68992  1.0000
  Fe  Fe42      1.0  0.61634  0.44787  0.94500  1.0000
  C   C207      1.0  0.55572  0.47865  0.54639  1.0000
  H   H322      1.0  0.44189  0.26195  0.86018  1.0000
  H   H323      1.0  0.46540  0.30683  0.61300  1.0000
  H   H324      1.0  0.65477  0.37516  0.66836  1.0000
  S   S84       1.0  0.56718  0.46693  0.97710  1.0000
  C   C208      1.0  0.51164  0.52342  0.55693  1.0000
  C   C209      1.0  0.61086  0.28819  0.87790  1.0000
  C   C210      1.0  0.44174  0.28978  0.96086  1.0000
  H   H325      1.0  0.59709  0.31331  0.86643  1.0000
  C   C211      1.0  0.44373  0.68879  0.85203  1.0000
  C   C212      1.0  0.53534  0.71861  0.69897  1.0000
  H   H326      1.0  0.47045  0.27956  0.55377  1.0000
  H   H327      1.0  0.62168  0.27645  0.84048  1.0000
  H   H328      1.0  0.61765  0.45704  0.73103  1.0000
  C   C213      1.0  0.62146  0.31077  0.96756  1.0000
  N   N22       1.0  0.63691  0.29527  0.91869  1.0000
  C   C214      1.0  0.55011  0.57104  0.68987  1.0000
  Fe  Fe43      1.0  0.56911  0.28670  0.60340  1.0000
  S   S85       1.0  0.59990  0.44982  0.85868  1.0000
  Fe  Fe44      1.0  0.61826  0.50605  0.86189  1.0000
  H   H329      1.0  0.60600  0.43901  0.66618  1.0000
  H   H330      1.0  0.50127  0.45403  0.64258  1.0000
  C   C215      1.0  0.62216  0.43443  0.70224  1.0000
  Fe  Fe45      1.0  0.43841  0.64715  0.56387  1.0000
  C   C216      1.0  0.60515  0.59387  0.70299  1.0000
  H   H331      1.0  0.45844  0.35863  0.94970  1.0000
  C   C217      1.0  0.66066  0.32090  0.89690  1.0000
  C   C218      1.0  0.54136  0.45769  0.58596  1.0000
  S   S86       1.0  0.64852  0.52338  0.79140  1.0000
  H   H332      1.0  0.55751  0.67633  0.97246  1.0000
  H   H333      1.0  0.52218  0.69006  0.55568  1.0000
  S   S87       1.0  0.60885  0.25705  0.64934  1.0000
  H   H334      1.0  0.60421  0.29176  0.98625  1.0000
  C   C219      1.0  0.51222  0.46998  0.61149  1.0000
  S   S88       1.0  0.44354  0.68255  0.63646  1.0000
  C   C220      1.0  0.65458  0.26126  0.93236  1.0000
  H   H335      1.0  0.62317  0.53579  0.64417  1.0000
  S   S89       1.0  0.46231  0.51965  0.63042  1.0000
  C   C221      1.0  0.49769  0.50317  0.59738  1.0000
  Fe  Fe46      1.0  0.60081  0.29962  0.71244  1.0000
  H   H336      1.0  0.44124  0.43364  0.81953  1.0000
  H   H337      1.0  0.53515  0.35484  0.55064  1.0000
  H   H338      1.0  0.54778  0.34440  0.97820  1.0000
  H   H339      1.0  0.67729  0.31402  0.52786  1.0000
  H   H340      1.0  0.55501  0.71990  0.00431  1.0000
  H   H341      1.0  0.67508  0.44859  0.76542  1.0000
  H   H342      1.0  0.67070  0.40096  0.75809  1.0000
  H   H343      1.0  0.64800  0.40455  0.61219  1.0000
  H   H344      1.0  0.63095  0.59503  0.68760  1.0000
  H   H345      1.0  0.45491  0.25169  0.66708  1.0000
  H   H346      1.0  0.59536  0.62198  0.70727  1.0000
  H   H347      1.0  0.53298  0.55582  0.66325  1.0000
  H   H348      1.0  0.46152  0.29899  0.82919  1.0000
  H   H349      1.0  0.49978  0.54818  0.54416  1.0000
  C   C222      1.0  0.46770  0.33963  0.91814  1.0000
  H   H350      1.0  0.63153  0.22953  0.52567  1.0000
  H   H351      1.0  0.66654  0.24882  0.89633  1.0000
  H   H352      1.0  0.66482  0.48830  0.68842  1.0000
  H   H353      1.0  0.53915  0.59848  0.69550  1.0000
  H   H354      1.0  0.55058  0.55784  0.72992  1.0000
  H   H355      1.0  0.64793  0.34669  0.88557  1.0000
  C   C223      1.0  0.59787  0.53567  0.66170  1.0000
  N   N23       1.0  0.58375  0.57248  0.66693  1.0000
  H   H356      1.0  0.58211  0.51877  0.63518  1.0000
  H   H357      1.0  0.56573  0.57407  0.58513  1.0000
  S   S90       1.0  0.46605  0.60950  0.70192  1.0000
  Fe  Fe47      1.0  0.45782  0.57973  0.62464  1.0000
  Fe  Fe48      1.0  0.49049  0.65065  0.65184  1.0000
  S   S91       1.0  0.53965  0.67490  0.67273  1.0000
  H   H358      1.0  0.45240  0.50532  0.80692  1.0000
  S   S92       1.0  0.48724  0.61811  0.57601  1.0000
  H   H359      1.0  0.59990  0.52238  0.70158  1.0000
  C   C224      1.0  0.58184  0.58934  0.61330  1.0000
  H   H360      1.0  0.63723  0.24137  0.94884  1.0000
  H   H361      1.0  0.49295  0.32983  0.93026  1.0000
  S   S93       1.0  0.64391  0.40069  0.98102  1.0000
  H   H362      1.0  0.47047  0.35524  0.88066  1.0000
  H   H363      1.0  0.51886  0.70153  0.97245  1.0000
  C   C225      1.0  0.45173  0.29416  0.57894  1.0000
  N   N24       1.0  0.44499  0.30949  0.90991  1.0000
  H   H364      1.0  0.48270  0.71562  0.71049  1.0000
  H   H365      1.0  0.46778  0.70107  0.85181  1.0000
  S   S94       1.0  0.44323  0.70221  0.96081  1.0000
  H   H366      1.0  0.64043  0.31795  0.99843  1.0000
  H   H367      1.0  0.67306  0.31000  0.86023  1.0000
  H   H368      1.0  0.67436  0.26562  0.96319  1.0000
  H   H369      1.0  0.44059  0.31617  0.55418  1.0000
  C   C226      1.0  0.68053  0.26603  0.71833  1.0000
  C   C227      1.0  0.54137  0.69458  0.99708  1.0000
  C   C228      1.0  0.68013  0.30297  0.72930  1.0000
  H   H370      1.0  0.64080  0.29210  0.54932  1.0000
  C   C229      1.0  0.66781  0.28794  0.54161  1.0000
  H   H371      1.0  0.52933  0.62469  0.01399  1.0000
  H   H372      1.0  0.45176  0.48128  0.52038  1.0000
  C   C230      1.0  0.53926  0.33467  0.01640  1.0000
  Fe  Fe49      1.0  0.53821  0.79793  0.28247  1.0000
  S   S95       1.0  0.56943  0.75542  0.24188  1.0000
  C   C231      1.0  0.59762  0.84945  0.07506  1.0000
  S   S96       1.0  0.62377  0.81860  0.22014  1.0000
  S   S97       1.0  0.45369  0.91964  0.46970  1.0000
  Fe  Fe50      1.0  0.57833  0.79680  0.17933  1.0000
  H   H373      1.0  0.55524  0.92443  0.44139  1.0000
  Fe  Fe51      1.0  0.61158  0.78079  0.28669  1.0000
  H   H374      1.0  0.67803  0.02697  0.13175  1.0000
  S   S98       1.0  0.64567  0.74414  0.33429  1.0000
  S   S99       1.0  0.57972  0.82073  0.33127  1.0000
  H   H375      1.0  0.50821  0.14629  0.31786  1.0000
  H   H376      1.0  0.65857  0.01633  0.22741  1.0000
  H   H377      1.0  0.48305  0.20182  0.46344  1.0000
  C   C232      1.0  0.62860  0.98503  0.09539  1.0000
  C   C233      1.0  0.48713  0.88469  0.38960  1.0000
  S   S100      1.0  0.54245  0.83702  0.21519  1.0000
  C   C234      1.0  0.49563  0.85494  0.35746  1.0000
  H   H378      1.0  0.59154  0.93246  0.40174  1.0000
  H   H379      1.0  0.62834  0.05692  0.09167  1.0000
  C   C235      1.0  0.44551  0.85034  0.43402  1.0000
  C   C236      1.0  0.46250  0.88236  0.42837  1.0000
  H   H380      1.0  0.60183  0.85093  0.11799  1.0000
  H   H381      1.0  0.60515  0.97927  0.07317  1.0000
  C   C237      1.0  0.50037  0.21255  0.36038  1.0000
  S   S101      1.0  0.49161  0.78472  0.32613  1.0000
  H   H382      1.0  0.51459  0.85724  0.32738  1.0000
  C   C238      1.0  0.50891  0.76041  0.47116  1.0000
  Fe  Fe52      1.0  0.58711  0.85629  0.26062  1.0000
  H   H383      1.0  0.62181  0.99862  0.13392  1.0000
  C   C239      1.0  0.47927  0.82267  0.36376  1.0000
  S   S102      1.0  0.57541  0.78136  0.09176  1.0000
  C   C240      1.0  0.45379  0.82055  0.40140  1.0000
  Fe  Fe53      1.0  0.66979  0.04368  0.45516  1.0000
  H   H384      1.0  0.66249  0.20374  0.48956  1.0000
  H   H385      1.0  0.55276  0.92467  0.36920  1.0000
  C   C241      1.0  0.57359  0.99351  0.45208  1.0000
  H   H386      1.0  0.44989  0.14452  0.39253  1.0000
  S   S103      1.0  0.65371  0.09021  0.50642  1.0000
  H   H387      1.0  0.46472  0.08740  0.13439  1.0000
  H   H388      1.0  0.49678  0.21145  0.31587  1.0000
  H   H389      1.0  0.43723  0.73438  0.33482  1.0000
  H   H390      1.0  0.61679  0.90194  0.06078  1.0000
  H   H391      1.0  0.49921  0.90969  0.38381  1.0000
  H   H392      1.0  0.60685  0.16005  0.51386  1.0000
  H   H393      1.0  0.44021  0.19179  0.39366  1.0000
  Fe  Fe54      1.0  0.53929  0.16047  0.08483  1.0000
  S   S104      1.0  0.53876  0.15211  0.17369  1.0000
  H   H394      1.0  0.52498  0.18520  0.45351  1.0000
  C   C242      1.0  0.58436  0.81854  0.05181  1.0000
  C   C243      1.0  0.65637  0.91368  0.25139  1.0000
  Fe  Fe55      1.0  0.66843  0.08883  0.35412  1.0000
  H   H395      1.0  0.57480  0.74655  0.35310  1.0000
  H   H396      1.0  0.48578  0.75074  0.45165  1.0000
  H   H397      1.0  0.65586  0.88516  0.25861  1.0000
  H   H398      1.0  0.49219  0.15454  0.46428  1.0000
  H   H399      1.0  0.61080  0.03999  0.03007  1.0000
  H   H400      1.0  0.56294  0.02254  0.35475  1.0000
  H   H401      1.0  0.60579  0.98818  0.25062  1.0000
  S   S105      1.0  0.67545  0.99025  0.49549  1.0000
  H   H402      1.0  0.50654  0.97212  0.37523  1.0000
  C   C244      1.0  0.52018  0.98305  0.41069  1.0000
  Fe  Fe56      1.0  0.61760  0.10202  0.43983  1.0000
  C   C245      1.0  0.62731  0.93477  0.25601  1.0000
  C   C246      1.0  0.45272  0.15046  0.18480  1.0000
  H   H403      1.0  0.56865  0.02307  0.45386  1.0000
  C   C247      1.0  0.57647  0.13317  0.19684  1.0000
  C   C248      1.0  0.60303  0.12607  0.16201  1.0000
  C   C249      1.0  0.63342  0.11229  0.18250  1.0000
  C   C250      1.0  0.63702  0.10552  0.23763  1.0000
  C   C251      1.0  0.61010  0.11174  0.27177  1.0000
  C   C252      1.0  0.58000  0.12554  0.25146  1.0000
  H   H404      1.0  0.60038  0.13169  0.11959  1.0000
  H   H405      1.0  0.65422  0.10758  0.15597  1.0000
  H   H406      1.0  0.61241  0.10634  0.31410  1.0000
  H   H407      1.0  0.55957  0.13063  0.27824  1.0000
  H   H408      1.0  0.51366  0.01220  0.41368  1.0000
  C   C253      1.0  0.49837  0.18014  0.44420  1.0000
  S   S106      1.0  0.63123  0.05324  0.39151  1.0000
  H   H409      1.0  0.52971  0.75479  0.44295  1.0000
  C   C254      1.0  0.44910  0.10749  0.11213  1.0000
  C   C255      1.0  0.56791  0.99303  0.35535  1.0000
  N   N25       1.0  0.65069  0.00732  0.06318  1.0000
  H   H410      1.0  0.44063  0.79593  0.40550  1.0000
  H   H411      1.0  0.59509  0.98826  0.35000  1.0000
  H   H412      1.0  0.45090  0.17004  0.33144  1.0000
  H   H413      1.0  0.55541  0.98108  0.31949  1.0000
  S   S107      1.0  0.49651  0.18904  0.04414  1.0000
  C   C256      1.0  0.56429  0.93791  0.40477  1.0000
  H   H414      1.0  0.46621  0.12333  0.08740  1.0000
  S   S108      1.0  0.58969  0.91584  0.27363  1.0000
  C   C257      1.0  0.63439  0.04265  0.05335  1.0000
  H   H415      1.0  0.64078  0.95881  0.10585  1.0000
  H   H416      1.0  0.50616  0.79011  0.47524  1.0000
  H   H417      1.0  0.52671  0.21940  0.36832  1.0000
  H   H418      1.0  0.50785  0.12271  0.38082  1.0000
  C   C258      1.0  0.62821  0.97177  0.24746  1.0000
  H   H419      1.0  0.51031  0.96984  0.44703  1.0000
  S   S109      1.0  0.53664  0.11190  0.03270  1.0000
  N   N26       1.0  0.49210  0.17815  0.38552  1.0000
  N   N27       1.0  0.55644  0.97687  0.40574  1.0000
  H   H420      1.0  0.52451  0.72823  0.08937  1.0000
  C   C259      1.0  0.51287  0.14898  0.36191  1.0000
  S   S110      1.0  0.65168  0.13900  0.39786  1.0000
  H   H421      1.0  0.53981  0.15396  0.36815  1.0000
  S   S111      1.0  0.57895  0.18583  0.03649  1.0000
  C   C260      1.0  0.65803  0.98768  0.23391  1.0000
  C   C261      1.0  0.60591  0.87848  0.04265  1.0000
  S   S112      1.0  0.56424  0.11008  0.46151  1.0000
  H   H422      1.0  0.43914  0.16701  0.21503  1.0000
  H   H423      1.0  0.56547  0.98207  0.49085  1.0000
  S   S113      1.0  0.67510  0.09025  0.26488  1.0000
  H   H424      1.0  0.46993  0.13181  0.20687  1.0000
  H   H425      1.0  0.46836  0.16902  0.16169  1.0000
  H   H426      1.0  0.65068  0.06037  0.02998  1.0000
  C   C262      1.0  0.45672  0.17075  0.37529  1.0000
  H   H427      1.0  0.60102  0.98907  0.44967  1.0000
  C   C263      1.0  0.68220  0.01253  0.09286  1.0000
  H   H428      1.0  0.43271  0.09275  0.08369  1.0000
  H   H429      1.0  0.68260  0.92093  0.44560  1.0000
  C   C264      1.0  0.65878  0.22583  0.51946  1.0000
  H   H430      1.0  0.47143  0.96140  0.73289  1.0000
  S   S114      1.0  0.61267  0.84616  0.82178  1.0000
  S   S115      1.0  0.52165  0.83436  0.75684  1.0000
  H   H431      1.0  0.56787  0.79360  0.97811  1.0000
  H   H432      1.0  0.51322  0.94330  0.72781  1.0000
  C   C265      1.0  0.65021  0.98895  0.55279  1.0000
  Fe  Fe57      1.0  0.53582  0.21050  0.99069  1.0000
  H   H433      1.0  0.58075  0.79275  0.72684  1.0000
  H   H434      1.0  0.55100  0.74404  0.58807  1.0000
  H   H435      1.0  0.45373  0.85603  0.84270  1.0000
  H   H436      1.0  0.46234  0.76457  0.89933  1.0000
  H   H437      1.0  0.45734  0.14544  0.86910  1.0000
  C   C266      1.0  0.58614  0.84658  0.96398  1.0000
  H   H438      1.0  0.43907  0.97605  0.65205  1.0000
  H   H439      1.0  0.52878  0.98404  0.62352  1.0000
  C   C267      1.0  0.52760  0.79001  0.73438  1.0000
  C   C268      1.0  0.49999  0.76825  0.72870  1.0000
  H   H440      1.0  0.45763  0.01392  0.83509  1.0000
  H   H441      1.0  0.56742  0.75185  0.52242  1.0000
  C   C269      1.0  0.55928  0.77603  0.72249  1.0000
  H   H442      1.0  0.47543  0.77894  0.73711  1.0000
  S   S116      1.0  0.56801  0.17040  0.69878  1.0000
  Fe  Fe58      1.0  0.56900  0.86382  0.77069  1.0000
  H   H443      1.0  0.58091  0.84559  0.92140  1.0000
  Fe  Fe59      1.0  0.64347  0.87228  0.75914  1.0000
  C   C270      1.0  0.65760  0.98921  0.01119  1.0000
  H   H444      1.0  0.66950  0.06037  0.92580  1.0000
  H   H445      1.0  0.46067  0.22503  0.60674  1.0000
  H   H446      1.0  0.63806  0.07080  0.68437  1.0000
  H   H447      1.0  0.52263  0.09700  0.55274  1.0000
  S   S117      1.0  0.60008  0.88422  0.70387  1.0000
  C   C271      1.0  0.58898  0.15127  0.54281  1.0000
  C   C272      1.0  0.50397  0.73246  0.71237  1.0000
  S   S118      1.0  0.44705  0.14558  0.66239  1.0000
  H   H448      1.0  0.47057  0.00602  0.63226  1.0000
  C   C273      1.0  0.54147  0.11576  0.56470  1.0000
  C   C274      1.0  0.48643  0.75130  0.55946  1.0000
  S   S119      1.0  0.61169  0.10033  0.95129  1.0000
  C   C275      1.0  0.56459  0.12712  0.52725  1.0000
  H   H449      1.0  0.65445  0.12094  0.74551  1.0000
  C   C276      1.0  0.47709  0.91554  0.64804  1.0000
  H   H450      1.0  0.53973  0.93826  0.63801  1.0000
  H   H451      1.0  0.65563  0.84346  0.93278  1.0000
  H   H452      1.0  0.55626  0.07237  0.89175  1.0000
  C   C277      1.0  0.45769  0.04256  0.84258  1.0000
  H   H453      1.0  0.46135  0.12186  0.77622  1.0000
  C   C278      1.0  0.45964  0.06632  0.79954  1.0000
  S   S120      1.0  0.64246  0.92656  0.79875  1.0000
  H   H454      1.0  0.62913  0.16588  0.89328  1.0000
  Fe  Fe60      1.0  0.59685  0.93657  0.74853  1.0000
  S   S121      1.0  0.58603  0.98739  0.70312  1.0000
  C   C279      1.0  0.46278  0.97760  0.62957  1.0000
  H   H455      1.0  0.61091  0.05537  0.77541  1.0000
  N   N28       1.0  0.56481  0.07660  0.80676  1.0000
  H   H456      1.0  0.60852  0.18357  0.60728  1.0000
  C   C280      1.0  0.67903  0.84176  0.95695  1.0000
  H   H457      1.0  0.45731  0.97130  0.58656  1.0000
  C   C281      1.0  0.60331  0.01223  0.60444  1.0000
  C   C282      1.0  0.61084  0.98786  0.64553  1.0000
  C   C283      1.0  0.63790  0.96383  0.64007  1.0000
  C   C284      1.0  0.65752  0.96434  0.59372  1.0000
  C   C285      1.0  0.64855  0.14559  0.88810  1.0000
  H   H458      1.0  0.58232  0.03077  0.60829  1.0000
  H   H459      1.0  0.64416  0.94516  0.67189  1.0000
  H   H460      1.0  0.51582  0.94895  0.57831  1.0000
  C   C286      1.0  0.54279  0.06999  0.85262  1.0000
  H   H461      1.0  0.67433  0.85659  0.99534  1.0000
  Fe  Fe61      1.0  0.60821  0.90152  0.85762  1.0000
  N   N29       1.0  0.51486  0.74317  0.52387  1.0000
  H   H462      1.0  0.58719  0.12084  0.84795  1.0000
  C   C287      1.0  0.54307  0.12823  0.61806  1.0000
  Fe  Fe62      1.0  0.49704  0.14208  0.98765  1.0000
  C   C288      1.0  0.51957  0.95612  0.62146  1.0000
  H   H463      1.0  0.66846  0.14512  0.60150  1.0000
  H   H464      1.0  0.52517  0.11949  0.64705  1.0000
  H   H465      1.0  0.55397  0.13334  0.80314  1.0000
  H   H466      1.0  0.67763  0.17750  0.83438  1.0000
  C   C289      1.0  0.64616  0.11229  0.91348  1.0000
  H   H467      1.0  0.47970  0.77907  0.83718  1.0000
  S   S122      1.0  0.45178  0.11003  0.97039  1.0000
  S   S123      1.0  0.61364  0.91236  0.94659  1.0000
  H   H468      1.0  0.52463  0.08859  0.75150  1.0000
  H   H469      1.0  0.60891  0.05702  0.84762  1.0000
  S   S124      1.0  0.45973  0.05043  0.73319  1.0000
  H   H470      1.0  0.58679  0.02352  0.81040  1.0000
  C   C290      1.0  0.62283  0.01261  0.55810  1.0000
  Fe  Fe63      1.0  0.57238  0.13946  0.97966  1.0000
  C   C291      1.0  0.57544  0.11422  0.80871  1.0000
  H   H471      1.0  0.53778  0.04224  0.75289  1.0000
  H   H472      1.0  0.45311  0.03777  0.92871  1.0000
  C   C292      1.0  0.45741  0.11674  0.86189  1.0000
  C   C293      1.0  0.56706  0.15297  0.63328  1.0000
  C   C294      1.0  0.54673  0.07020  0.75564  1.0000
  H   H473      1.0  0.67024  0.21664  0.55808  1.0000
  H   H474      1.0  0.47223  0.90765  0.60542  1.0000
  C   C295      1.0  0.58988  0.16462  0.59559  1.0000
  C   C296      1.0  0.45470  0.09313  0.90483  1.0000
  H   H475      1.0  0.53225  0.04270  0.85044  1.0000
  C   C297      1.0  0.46534  0.78823  0.87295  1.0000
  H   H476      1.0  0.54343  0.78652  0.55606  1.0000
  C   C298      1.0  0.49472  0.96213  0.70911  1.0000
  C   C299      1.0  0.60044  0.87700  0.98698  1.0000
  C   C300      1.0  0.45485  0.05603  0.89530  1.0000
  H   H477      1.0  0.52182  0.08981  0.85372  1.0000
  C   C301      1.0  0.45960  0.10335  0.80928  1.0000
  S   S125      1.0  0.56228  0.91734  0.81136  1.0000
  C   C302      1.0  0.59419  0.05211  0.81021  1.0000
  H   H478      1.0  0.59357  0.11969  0.77663  1.0000
  H   H479      1.0  0.58754  0.72968  0.69442  1.0000
  H   H480      1.0  0.50462  0.98962  0.71337  1.0000
  N   N30       1.0  0.48853  0.95284  0.65204  1.0000
  H   H481      1.0  0.56276  0.07462  0.72023  1.0000
  S   S126      1.0  0.53238  0.16578  0.92920  1.0000
  H   H482      1.0  0.48095  0.80779  0.89513  1.0000
  C   C303      1.0  0.56311  0.74033  0.70443  1.0000
  C   C304      1.0  0.57851  0.81722  0.99622  1.0000
  H   H483      1.0  0.48221  0.78073  0.56484  1.0000
  H   H484      1.0  0.67657  0.89924  0.89328  1.0000
  H   H485      1.0  0.45364  0.91220  0.67060  1.0000
  H   H486      1.0  0.49057  0.73959  0.60007  1.0000
  H   H487      1.0  0.49583  0.89615  0.66511  1.0000
  C   C305      1.0  0.67116  0.08616  0.90647  1.0000
  C   C306      1.0  0.67590  0.15211  0.85481  1.0000
  C   C307      1.0  0.54554  0.75706  0.54866  1.0000
  H   H488      1.0  0.63442  0.98544  0.98718  1.0000
  H   H489      1.0  0.65692  0.06597  0.61986  1.0000
  H   H490      1.0  0.64256  0.15210  0.69351  1.0000
  C   C308      1.0  0.64829  0.08609  0.65031  1.0000
  C   C309      1.0  0.43808  0.83567  0.82237  1.0000
  H   H491      1.0  0.62746  0.10206  0.63190  1.0000
  H   H492      1.0  0.46306  0.74007  0.54288  1.0000
  C   C310      1.0  0.66345  0.13495  0.70932  1.0000
  N   N31       1.0  0.67571  0.10914  0.66815  1.0000
  H   H493      1.0  0.67471  0.00496  0.98618  1.0000
  H   H494      1.0  0.61635  0.03103  0.52628  1.0000
  H   H495      1.0  0.66935  0.96218  0.01708  1.0000
  H   H496      1.0  0.45087  0.82769  0.78454  1.0000
  H   H497      1.0  0.67874  0.94608  0.59019  1.0000
  N   N32       1.0  0.43281  0.80442  0.85724  1.0000
  Fe  Fe64      1.0  0.83756  0.40036  0.15733  1.0000
  S   S127      1.0  0.80188  0.36840  0.10830  1.0000
  S   S128      1.0  0.82473  0.43070  0.23245  1.0000
  S   S129      1.0  0.87779  0.35801  0.15898  1.0000
  Fe  Fe65      1.0  0.84398  0.32810  0.10327  1.0000
  Fe  Fe66      1.0  0.77234  0.34129  0.48046  1.0000
  C   C311      1.0  0.71323  0.68727  0.21949  1.0000
  S   S130      1.0  0.74956  0.33541  0.39831  1.0000
  S   S131      1.0  0.83541  0.27030  0.12018  1.0000
  S   S132      1.0  0.77158  0.54148  0.19272  1.0000
  C   C312      1.0  0.73422  0.68565  0.42639  1.0000
  N   N33       1.0  0.79701  0.52027  0.03106  1.0000
  H   H498      1.0  0.92787  0.34727  0.38502  1.0000
  H   H499      1.0  0.84381  0.50283  0.06533  1.0000
  H   H500      1.0  0.71529  0.23227  0.46326  1.0000
  H   H501      1.0  0.70265  0.46316  0.27410  1.0000
  H   H502      1.0  0.90517  0.51296  0.41656  1.0000
  H   H503      1.0  0.72211  0.27825  0.48064  1.0000
  H   H504      1.0  0.78698  0.64241  0.45129  1.0000
  H   H505      1.0  0.87804  0.29234  0.28962  1.0000
  C   C313      1.0  0.80365  0.40425  0.27819  1.0000
  C   C314      1.0  0.79581  0.41811  0.32909  1.0000
  C   C315      1.0  0.77903  0.39709  0.36608  1.0000
  C   C316      1.0  0.76955  0.36239  0.35187  1.0000
  C   C317      1.0  0.77687  0.34879  0.30060  1.0000
  C   C318      1.0  0.79438  0.36947  0.26411  1.0000
  H   H506      1.0  0.80269  0.44515  0.33997  1.0000
  H   H507      1.0  0.77281  0.40805  0.40521  1.0000
  H   H508      1.0  0.76967  0.32190  0.28953  1.0000
  H   H509      1.0  0.80063  0.35839  0.22511  1.0000
  C   C319      1.0  0.70516  0.54820  0.31191  1.0000
  H   H510      1.0  0.89651  0.30248  0.43618  1.0000
  H   H511      1.0  0.72916  0.65677  0.41852  1.0000
  C   C320      1.0  0.75823  0.56524  0.34911  1.0000
  C   C321      1.0  0.69940  0.64665  0.29057  1.0000
  H   H512      1.0  0.85926  0.28431  0.40804  1.0000
  H   H513      1.0  0.72597  0.69188  0.46812  1.0000
  H   H514      1.0  0.90206  0.45491  0.24326  1.0000
  S   S133      1.0  0.86528  0.35024  0.02784  1.0000
  H   H515      1.0  0.70693  0.71139  0.24456  1.0000
  H   H516      1.0  0.69802  0.36118  0.02944  1.0000
  C   C322      1.0  0.85985  0.24116  0.08050  1.0000
  N   N34       1.0  0.70921  0.43566  0.19825  1.0000
  H   H517      1.0  0.70474  0.53254  0.22863  1.0000
  H   H518      1.0  0.71828  0.70214  0.39872  1.0000
  H   H519      1.0  0.91295  0.36175  0.32017  1.0000
  H   H520      1.0  0.72883  0.42345  0.27707  1.0000
  H   H521      1.0  0.75846  0.43127  0.16597  1.0000
  C   C323      1.0  0.73565  0.41517  0.16982  1.0000
  H   H522      1.0  0.75572  0.48493  0.02707  1.0000
  S   S134      1.0  0.85756  0.42931  0.08669  1.0000
  C   C324      1.0  0.78984  0.67173  0.45840  1.0000
  C   C325      1.0  0.75397  0.54445  0.25652  1.0000
  H   H523      1.0  0.92251  0.65551  0.51272  1.0000
  S   S135      1.0  0.80850  0.29796  0.50638  1.0000
  C   C326      1.0  0.91433  0.33853  0.34806  1.0000
  H   H524      1.0  0.76513  0.69881  0.33382  1.0000
  C   C327      1.0  0.77326  0.55571  0.30040  1.0000
  H   H525      1.0  0.74294  0.39031  0.19193  1.0000
  H   H526      1.0  0.87319  0.36394  0.42494  1.0000
  H   H527      1.0  0.74423  0.46364  0.24836  1.0000
  H   H528      1.0  0.77730  0.65440  0.35657  1.0000
  C   C328      1.0  0.72171  0.44698  0.25177  1.0000
  C   C329      1.0  0.71995  0.54024  0.26254  1.0000
  Fe  Fe67      1.0  0.89496  0.38423  0.08415  1.0000
  C   C330      1.0  0.69945  0.46762  0.16649  1.0000
  C   C331      1.0  0.70140  0.62534  0.19871  1.0000
  H   H529      1.0  0.72752  0.40701  0.12862  1.0000
  C   C332      1.0  0.86394  0.31433  0.31055  1.0000
  H   H530      1.0  0.81678  0.67739  0.45502  1.0000
  C   C333      1.0  0.87058  0.25141  0.02960  1.0000
  Fe  Fe68      1.0  0.82578  0.39308  0.03680  1.0000
  H   H531      1.0  0.76926  0.49648  0.09425  1.0000
  H   H532      1.0  0.85770  0.55469  0.39613  1.0000
  H   H533      1.0  0.72077  0.48572  0.16153  1.0000
  H   H534      1.0  0.79974  0.55808  0.29660  1.0000
  H   H535      1.0  0.68648  0.38843  0.22864  1.0000
  C   C334      1.0  0.72402  0.56199  0.35459  1.0000
  H   H536      1.0  0.83586  0.34580  0.39710  1.0000
  H   H537      1.0  0.92997  0.31723  0.32834  1.0000
  H   H538      1.0  0.85808  0.37843  0.36008  1.0000
  H   H539      1.0  0.72554  0.63708  0.29691  1.0000
  C   C335      1.0  0.78000  0.68363  0.36441  1.0000
  C   C336      1.0  0.90957  0.54097  0.40907  1.0000
  H   H540      1.0  0.74021  0.68114  0.22508  1.0000
  H   H541      1.0  0.93113  0.71807  0.42871  1.0000
  S   S136      1.0  0.80348  0.38703  0.50837  1.0000
  H   H542      1.0  0.89260  0.48690  0.19157  1.0000
  H   H543      1.0  0.77309  0.57529  0.38224  1.0000
  H   H544      1.0  0.75891  0.36566  0.02103  1.0000
  Fe  Fe69      1.0  0.82332  0.66010  0.18407  1.0000
  S   S137      1.0  0.79767  0.63084  0.24837  1.0000
  S   S138      1.0  0.79460  0.70757  0.15330  1.0000
  Fe  Fe70      1.0  0.84787  0.62444  0.28585  1.0000
  S   S139      1.0  0.85513  0.63041  0.37455  1.0000
  S   S140      1.0  0.70437  0.57745  0.41291  1.0000
  C   C337      1.0  0.92064  0.61370  0.39065  1.0000
  S   S141      1.0  0.87306  0.65853  0.22568  1.0000
  S   S142      1.0  0.83284  0.61143  0.13272  1.0000
  H   H545      1.0  0.76697  0.56063  0.07114  1.0000
  H   H546      1.0  0.78253  0.67783  0.50062  1.0000
  H   H547      1.0  0.88310  0.58913  0.06554  1.0000
  H   H548      1.0  0.90596  0.44194  0.17397  1.0000
  C   C338      1.0  0.82648  0.52640  0.06547  1.0000
  H   H549      1.0  0.86612  0.63014  0.50393  1.0000
  H   H550      1.0  0.70952  0.69497  0.17662  1.0000
  N   N35       1.0  0.88090  0.32559  0.36076  1.0000
  S   S143      1.0  0.85983  0.57225  0.24453  1.0000
  C   C339      1.0  0.90739  0.58496  0.04900  1.0000
  Fe  Fe71      1.0  0.88055  0.60660  0.18035  1.0000
  H   H551      1.0  0.79317  0.46521  0.05436  1.0000
  H   H552      1.0  0.82129  0.71360  0.26167  1.0000
  C   C340      1.0  0.88829  0.60104  0.38974  1.0000
  N   N36       1.0  0.76979  0.69325  0.41965  1.0000
  H   H553      1.0  0.92109  0.70590  0.09777  1.0000
  N   N37       1.0  0.69285  0.65634  0.23385  1.0000
  H   H554      1.0  0.81940  0.53194  0.10792  1.0000
  C   C341      1.0  0.88405  0.29476  0.39769  1.0000
  H   H555      1.0  0.86102  0.33702  0.28189  1.0000
  H   H556      1.0  0.69024  0.46007  0.12562  1.0000
  H   H557      1.0  0.83860  0.30444  0.31865  1.0000
  C   C342      1.0  0.88273  0.56460  0.39804  1.0000
  H   H558      1.0  0.91546  0.58979  0.51722  1.0000
  Fe  Fe72      1.0  0.81153  0.58158  0.20108  1.0000
  C   C343      1.0  0.77789  0.49041  0.05273  1.0000
  H   H559      1.0  0.69707  0.63176  0.15551  1.0000
  C   C344      1.0  0.90983  0.46432  0.20302  1.0000
  S   S144      1.0  0.93116  0.58905  0.15273  1.0000
  C   C345      1.0  0.86119  0.35475  0.38684  1.0000
  C   C346      1.0  0.70993  0.25343  0.49405  1.0000
  H   H560      1.0  0.69471  0.67003  0.31767  1.0000
  H   H561      1.0  0.80663  0.68969  0.35794  1.0000
  H   H562      1.0  0.89884  0.27222  0.37947  1.0000
  H   H563      1.0  0.92500  0.64175  0.38311  1.0000
  H   H564      1.0  0.84056  0.54959  0.05092  1.0000
  H   H565      1.0  0.72803  0.61696  0.20334  1.0000
  C   C347      1.0  0.77581  0.55322  0.03014  1.0000
  H   H566      1.0  0.92933  0.29227  0.12908  1.0000
  H   H567      1.0  0.68313  0.62472  0.30384  1.0000
  H   H568      1.0  0.68634  0.60166  0.20845  1.0000
  H   H569      1.0  0.85133  0.45857  0.84055  1.0000
  H   H570      1.0  0.78641  0.50664  0.94849  1.0000
  H   H571      1.0  0.84690  0.61099  0.56171  1.0000
  H   H572      1.0  0.71542  0.52723  0.74985  1.0000
  C   C348      1.0  0.85055  0.39314  0.74463  1.0000
  C   C349      1.0  0.90047  0.24470  0.59609  1.0000
  C   C350      1.0  0.85541  0.38655  0.84093  1.0000
  H   H573      1.0  0.74509  0.45218  0.90937  1.0000
  S   S145      1.0  0.81369  0.34171  0.62157  1.0000
  S   S146      1.0  0.76371  0.25315  0.63036  1.0000
  H   H574      1.0  0.84079  0.40980  0.71077  1.0000
  C   C351      1.0  0.92415  0.41742  0.97211  1.0000
  H   H575      1.0  0.90506  0.43615  0.89601  1.0000
  C   C352      1.0  0.81739  0.70271  0.64873  1.0000
  H   H576      1.0  0.90238  0.23799  0.96262  1.0000
  H   H577      1.0  0.84766  0.46351  0.76889  1.0000
  C   C353      1.0  0.74274  0.38406  0.99937  1.0000
  C   C354      1.0  0.89246  0.27457  0.56437  1.0000
  H   H578      1.0  0.70757  0.35168  0.72486  1.0000
  H   H579      1.0  0.82399  0.48647  0.97524  1.0000
  H   H580      1.0  0.86143  0.27615  0.01218  1.0000
  C   C355      1.0  0.78924  0.45573  0.65120  1.0000
  C   C356      1.0  0.78532  0.48439  0.68751  1.0000
  C   C357      1.0  0.81109  0.50866  0.69511  1.0000
  C   C358      1.0  0.84041  0.50445  0.66573  1.0000
  C   C359      1.0  0.84418  0.47588  0.62953  1.0000
  C   C360      1.0  0.81882  0.45133  0.62277  1.0000
  H   H581      1.0  0.76253  0.48778  0.70983  1.0000
  S   S147      1.0  0.74236  0.33971  0.55559  1.0000
  H   H582      1.0  0.86679  0.47250  0.60701  1.0000
  H   H583      1.0  0.75412  0.32373  0.67538  1.0000
  H   H584      1.0  0.90425  0.45646  0.53548  1.0000
  C   C361      1.0  0.92481  0.42125  0.91620  1.0000
  H   H585      1.0  0.84415  0.35961  0.83987  1.0000
  S   S148      1.0  0.86273  0.54041  0.83182  1.0000
  C   C362      1.0  0.91858  0.65702  0.55698  1.0000
  Fe  Fe73      1.0  0.78130  0.30032  0.58439  1.0000
  H   H586      1.0  0.76757  0.54928  0.79199  1.0000
  H   H587      1.0  0.88284  0.38252  0.83787  1.0000
  C   C363      1.0  0.70726  0.24996  0.69053  1.0000
  C   C364      1.0  0.80566  0.41348  0.80198  1.0000
  N   N38       1.0  0.84215  0.40962  0.79720  1.0000
  H   H588      1.0  0.86145  0.22864  0.71276  1.0000
  H   H589      1.0  0.88462  0.44356  0.79765  1.0000
  S   S149      1.0  0.87303  0.53390  0.67495  1.0000
  H   H590      1.0  0.83981  0.36605  0.74009  1.0000
  C   C365      1.0  0.91185  0.59281  0.56140  1.0000
  H   H591      1.0  0.87797  0.39014  0.73970  1.0000
  H   H592      1.0  0.85018  0.39857  0.88124  1.0000
  H   H593      1.0  0.69428  0.46301  0.64911  1.0000
  Fe  Fe74      1.0  0.83734  0.34361  0.54068  1.0000
  C   C366      1.0  0.73491  0.43227  0.93557  1.0000
  C   C367      1.0  0.75613  0.41006  0.96629  1.0000
  C   C368      1.0  0.70035  0.42918  0.93929  1.0000
  C   C369      1.0  0.71486  0.53944  0.78945  1.0000
  Fe  Fe75      1.0  0.77684  0.38118  0.58689  1.0000
  S   S150      1.0  0.79922  0.41569  0.96400  1.0000
  C   C370      1.0  0.70741  0.32330  0.71582  1.0000
  H   H594      1.0  0.81858  0.23998  0.70060  1.0000
  C   C371      1.0  0.85707  0.44538  0.80129  1.0000
  S   S151      1.0  0.75784  0.42462  0.64235  1.0000
  H   H595      1.0  0.87606  0.61031  0.64942  1.0000
  H   H596      1.0  0.79853  0.42575  0.84138  1.0000
  H   H597      1.0  0.82235  0.42892  0.59570  1.0000
  C   C372      1.0  0.90506  0.30815  0.57761  1.0000
  C   C373      1.0  0.68699  0.40402  0.97394  1.0000
  H   H598      1.0  0.68923  0.39718  0.63899  1.0000
  C   C374      1.0  0.92544  0.31192  0.62316  1.0000
  C   C375      1.0  0.73381  0.30742  0.68750  1.0000
  H   H599      1.0  0.80818  0.53076  0.72321  1.0000
  H   H600      1.0  0.88256  0.65770  0.64636  1.0000
  C   C376      1.0  0.73338  0.27100  0.67356  1.0000
  H   H601      1.0  0.71298  0.58206  0.93228  1.0000
  H   H602      1.0  0.79352  0.38703  0.79892  1.0000
  H   H603      1.0  0.79483  0.43079  0.76962  1.0000
  S   S152      1.0  0.89275  0.34553  0.53943  1.0000
  C   C377      1.0  0.74436  0.55179  0.81328  1.0000
  Fe  Fe76      1.0  0.82564  0.58510  0.84839  1.0000
  C   C378      1.0  0.89330  0.22951  0.00117  1.0000
  H   H604      1.0  0.70486  0.42282  0.72698  1.0000
  C   C379      1.0  0.92071  0.24832  0.64171  1.0000
  S   S153      1.0  0.90673  0.60228  0.77355  1.0000
  H   H605      1.0  0.85198  0.65866  0.55811  1.0000
  N   N39       1.0  0.89684  0.62825  0.57524  1.0000
  C   C380      1.0  0.86398  0.63218  0.54854  1.0000
  C   C381      1.0  0.85796  0.71095  0.72028  1.0000
  H   H606      1.0  0.90358  0.42886  0.99454  1.0000
  C   C382      1.0  0.74375  0.56663  0.86522  1.0000
  H   H607      1.0  0.89591  0.57063  0.57472  1.0000
  H   H608      1.0  0.82260  0.53316  0.95854  1.0000
  C   C383      1.0  0.89296  0.63101  0.63420  1.0000
  C   C384      1.0  0.71366  0.57002  0.89254  1.0000
  Fe  Fe77      1.0  0.86571  0.56599  0.75059  1.0000
  S   S154      1.0  0.86357  0.62277  0.88111  1.0000
  S   S155      1.0  0.87387  0.69996  0.78356  1.0000
  H   H609      1.0  0.87646  0.27152  0.52957  1.0000
  Fe  Fe78      1.0  0.86634  0.64148  0.79657  1.0000
  C   C385      1.0  0.91098  0.57975  0.99344  1.0000
  Fe  Fe79      1.0  0.90071  0.58056  0.85610  1.0000
  H   H610      1.0  0.88925  0.57923  0.96767  1.0000
  C   C386      1.0  0.70824  0.38114  0.00340  1.0000
  H   H611      1.0  0.81493  0.67814  0.72656  1.0000
  H   H612      1.0  0.75368  0.54986  0.00350  1.0000
  S   S156      1.0  0.78006  0.58014  0.89830  1.0000
  C   C387      1.0  0.68431  0.55811  0.86862  1.0000
  S   S157      1.0  0.82523  0.60737  0.76492  1.0000
  H   H613      1.0  0.90763  0.68409  0.56632  1.0000
  C   C388      1.0  0.82884  0.69542  0.70101  1.0000
  H   H614      1.0  0.79488  0.69067  0.63379  1.0000
  H   H615      1.0  0.91240  0.70817  0.89652  1.0000
  C   C389      1.0  0.80797  0.51120  0.97593  1.0000
  H   H616      1.0  0.91728  0.62720  0.65553  1.0000
  C   C390      1.0  0.83508  0.72561  0.61603  1.0000
  H   H617      1.0  0.92491  0.47923  0.62502  1.0000
  H   H618      1.0  0.68413  0.44617  0.91510  1.0000
  H   H619      1.0  0.72231  0.24452  0.53213  1.0000
  H   H620      1.0  0.92410  0.41340  0.60362  1.0000
  C   C391      1.0  0.68493  0.54201  0.81771  1.0000
  H   H621      1.0  0.92927  0.65886  0.83851  1.0000
  H   H622      1.0  0.83258  0.22930  0.76751  1.0000
  H   H623      1.0  0.78953  0.57646  0.01445  1.0000
  C   C392      1.0  0.93016  0.45861  0.52106  1.0000
  S   S158      1.0  0.79275  0.83651  0.31689  1.0000
  S   S159      1.0  0.91207  0.85042  0.47258  1.0000
  S   S160      1.0  0.76997  0.89208  0.18853  1.0000
  H   H624      1.0  0.85202  0.81447  0.23500  1.0000
  H   H625      1.0  0.89265  0.82260  0.26242  1.0000
  H   H626      1.0  0.92445  0.75166  0.22192  1.0000
  Fe  Fe80      1.0  0.90085  0.79759  0.43309  1.0000
  Fe  Fe81      1.0  0.85731  0.85432  0.48814  1.0000
  N   N40       1.0  0.89228  0.79260  0.18798  1.0000
  S   S161      1.0  0.84552  0.80445  0.44120  1.0000
  S   S162      1.0  0.90833  0.76628  0.50877  1.0000
  S   S163      1.0  0.84947  0.89344  0.22402  1.0000
  H   H627      1.0  0.87012  0.83700  0.14466  1.0000
  S   S164      1.0  0.92333  0.76888  0.03190  1.0000
  C   C393      1.0  0.78853  0.79817  0.27643  1.0000
  C   C394      1.0  0.80565  0.76622  0.28964  1.0000
  H   H628      1.0  0.91006  0.84577  0.17473  1.0000
  S   S165      1.0  0.83050  0.88598  0.06875  1.0000
  C   C395      1.0  0.77169  0.77193  0.19120  1.0000
  C   C396      1.0  0.77059  0.80039  0.22814  1.0000
  H   H629      1.0  0.81974  0.76449  0.32689  1.0000
  H   H630      1.0  0.75868  0.77439  0.15303  1.0000
  H   H631      1.0  0.75592  0.82413  0.21900  1.0000
  C   C397      1.0  0.87090  0.76647  0.16015  1.0000
  H   H632      1.0  0.87551  0.77895  0.26691  1.0000
  C   C398      1.0  0.70160  0.90024  0.45760  1.0000
  Fe  Fe82      1.0  0.80053  0.88401  0.26336  1.0000
  C   C399      1.0  0.89501  0.82492  0.15436  1.0000
  H   H633      1.0  0.86814  0.74173  0.18422  1.0000
  H   H634      1.0  0.72991  0.95975  0.42181  1.0000
  H   H635      1.0  0.89991  0.01626  0.08095  1.0000
  S   S166      1.0  0.92648  0.77928  0.35715  1.0000
  H   H636      1.0  0.87373  0.95586  0.07732  1.0000
  H   H637      1.0  0.70880  0.87225  0.35902  1.0000
  C   C400      1.0  0.87745  0.80265  0.24026  1.0000
  H   H638      1.0  0.87037  0.88536  0.39785  1.0000
  H   H639      1.0  0.84553  0.77798  0.15243  1.0000
  H   H640      1.0  0.91301  0.93766  0.05578  1.0000
  C   C401      1.0  0.72173  0.89789  0.36649  1.0000
  H   H641      1.0  0.70486  0.92028  0.35309  1.0000
  H   H642      1.0  0.84331  0.01497  0.37911  1.0000
  H   H643      1.0  0.76228  0.87439  0.48206  1.0000
  C   C402      1.0  0.91363  0.00881  0.04373  1.0000
  H   H644      1.0  0.86173  0.19973  0.14043  1.0000
  H   H645      1.0  0.88119  0.75830  0.12046  1.0000
  C   C403      1.0  0.68630  0.92969  0.23791  1.0000
  S   S167      1.0  0.70916  0.07383  0.41245  1.0000
  N   N41       1.0  0.73144  0.90199  0.42371  1.0000
  S   S168      1.0  0.82886  0.90675  0.48550  1.0000
  H   H646      1.0  0.70775  0.90523  0.50080  1.0000
  H   H647      1.0  0.69987  0.02840  0.06916  1.0000
  H   H648      1.0  0.77056  0.92587  0.09124  1.0000
  H   H649      1.0  0.89318  0.91890  0.32270  1.0000
  C   C404      1.0  0.76980  0.10587  0.30136  1.0000
  C   C405      1.0  0.76793  0.07053  0.21954  1.0000
  H   H650      1.0  0.82029  0.98112  0.45486  1.0000
  S   S169      1.0  0.72369  0.98709  0.20963  1.0000
  H   H651      1.0  0.82858  0.08992  0.25490  1.0000
  H   H652      1.0  0.80205  0.73820  0.42604  1.0000
  C   C406      1.0  0.76573  0.04154  0.30567  1.0000
  C   C407      1.0  0.84526  0.93133  0.43303  1.0000
  H   H653      1.0  0.77787  0.09294  0.19576  1.0000
  H   H654      1.0  0.73349  0.96303  0.03478  1.0000
  H   H655      1.0  0.82531  0.04206  0.25764  1.0000
  H   H656      1.0  0.77327  0.01526  0.28768  1.0000
  Fe  Fe83      1.0  0.68962  0.12141  0.45941  1.0000
  C   C408      1.0  0.75522  0.87283  0.43870  1.0000
  H   H657      1.0  0.69474  0.98640  0.10250  1.0000
  S   S170      1.0  0.79412  0.94095  0.29114  1.0000
  C   C409      1.0  0.88930  0.95026  0.04137  1.0000
  H   H658      1.0  0.74493  0.84592  0.43045  1.0000
  C   C410      1.0  0.80673  0.73757  0.25259  1.0000
  H   H659      1.0  0.77864  0.87443  0.41543  1.0000
  C   C411      1.0  0.85075  0.98720  0.38500  1.0000
  H   H660      1.0  0.77391  0.04147  0.34858  1.0000
  H   H661      1.0  0.77825  0.10727  0.34412  1.0000
  C   C412      1.0  0.74724  0.93701  0.43207  1.0000
  H   H662      1.0  0.78024  0.12908  0.27997  1.0000
  C   C413      1.0  0.87894  0.93307  0.35324  1.0000
  S   S171      1.0  0.72318  0.15962  0.50217  1.0000
  C   C414      1.0  0.86596  0.91399  0.39587  1.0000
  Fe  Fe84      1.0  0.76790  0.94993  0.21276  1.0000
  Fe  Fe85      1.0  0.83994  0.95143  0.24395  1.0000
  H   H663      1.0  0.77527  0.04485  0.19920  1.0000
  H   H664      1.0  0.73803  0.04302  0.30435  1.0000
  H   H665      1.0  0.90878  0.09683  0.35849  1.0000
  C   C415      1.0  0.87032  0.20804  0.10145  1.0000
  H   H666      1.0  0.74384  0.89747  0.34006  1.0000
  H   H667      1.0  0.90208  0.16134  0.09068  1.0000
  C   C416      1.0  0.81676  0.06772  0.27682  1.0000
  H   H668      1.0  0.74027  0.07261  0.21751  1.0000
  S   S172      1.0  0.87566  0.98783  0.28403  1.0000
  N   N42       1.0  0.78010  0.07145  0.27586  1.0000
  C   C417      1.0  0.92569  0.77636  0.19724  1.0000
  C   C418      1.0  0.77526  0.73186  0.42928  1.0000
  H   H669      1.0  0.74224  0.10948  0.30087  1.0000
  C   C419      1.0  0.87122  0.96959  0.34751  1.0000
  S   S173      1.0  0.81323  0.96491  0.16778  1.0000
  Fe  Fe86      1.0  0.81823  0.90576  0.15122  1.0000
  C   C420      1.0  0.83750  0.96794  0.42760  1.0000
  C   C421      1.0  0.89331  0.18641  0.07341  1.0000
  H   H670      1.0  0.82685  0.06785  0.31869  1.0000
  H   H671      1.0  0.76983  0.93922  0.40705  1.0000
  S   S174      1.0  0.92337  0.11319  0.24853  1.0000
  H   H672      1.0  0.90699  0.81845  0.11523  1.0000
  H   H673      1.0  0.70865  0.91336  0.23450  1.0000
  H   H674      1.0  0.75522  0.94076  0.47478  1.0000
  C   C422      1.0  0.77561  0.92785  0.04906  1.0000
  C   C423      1.0  0.79045  0.74093  0.20274  1.0000
  H   H675      1.0  0.76732  0.74026  0.47036  1.0000
  C   C424      1.0  0.93141  0.11187  0.35794  1.0000
  C   C425      1.0  0.90571  0.19775  0.02421  1.0000
  Fe  Fe87      1.0  0.85401  0.77715  0.52016  1.0000
  C   C426      1.0  0.68705  0.96667  0.22876  1.0000
  H   H676      1.0  0.84652  0.00486  0.02969  1.0000
  H   H677      1.0  0.73780  0.08455  0.51665  1.0000
  H   H678      1.0  0.68991  0.87359  0.45427  1.0000
  C   C427      1.0  0.80321  0.91004  0.02675  1.0000
  H   H679      1.0  0.93024  0.02294  0.22821  1.0000
  H   H680      1.0  0.76136  0.74893  0.39967  1.0000
  C   C428      1.0  0.76036  0.13637  0.51788  1.0000
  H   H681      1.0  0.91823  0.03393  0.02130  1.0000
  C   C429      1.0  0.91462  0.86616  0.67200  1.0000
  H   H682      1.0  0.82784  0.14701  0.64715  1.0000
  H   H683      1.0  0.89007  0.21914  0.58592  1.0000
  H   H684      1.0  0.70829  0.14780  0.63430  1.0000
  C   C430      1.0  0.82435  0.82614  0.70499  1.0000
  S   S175      1.0  0.90740  0.88737  0.83074  1.0000
  S   S176      1.0  0.86079  0.82757  0.56808  1.0000
  S   S177      1.0  0.92221  0.86859  0.98351  1.0000
  H   H685      1.0  0.83788  0.87748  0.77931  1.0000
  H   H686      1.0  0.79050  0.77695  0.75774  1.0000
  N   N43       1.0  0.81887  0.82493  0.76365  1.0000
  N   N44       1.0  0.89498  0.98307  0.01026  1.0000
  C   C431      1.0  0.70089  0.12553  0.84787  1.0000
  C   C432      1.0  0.84763  0.80675  0.79023  1.0000
  H   H687      1.0  0.87803  0.75876  0.61076  1.0000
  H   H688      1.0  0.84870  0.98148  0.96633  1.0000
  H   H689      1.0  0.79415  0.87679  0.76504  1.0000
  H   H690      1.0  0.91415  0.92805  0.58649  1.0000
  C   C433      1.0  0.81502  0.86189  0.78520  1.0000
  H   H691      1.0  0.81024  0.86202  0.82920  1.0000
  H   H692      1.0  0.88162  0.89630  0.72405  1.0000
  Fe  Fe88      1.0  0.91468  0.81958  0.54905  1.0000
  H   H693      1.0  0.85083  0.77848  0.77616  1.0000
  C   C434      1.0  0.87528  0.73430  0.68793  1.0000
  H   H694      1.0  0.72014  0.90765  0.89393  1.0000
  C   C435      1.0  0.69846  0.09291  0.87449  1.0000
  C   C436      1.0  0.78842  0.80487  0.77405  1.0000
  H   H695      1.0  0.76619  0.81802  0.75471  1.0000
  H   H696      1.0  0.84486  0.80623  0.83471  1.0000
  H   H697      1.0  0.90107  0.95450  0.93513  1.0000
  H   H698      1.0  0.73345  0.86056  0.63862  1.0000
  H   H699      1.0  0.82687  0.79866  0.68735  1.0000
  H   H700      1.0  0.90030  0.87186  0.63612  1.0000
  H   H701      1.0  0.80335  0.84017  0.68373  1.0000
  N   N45       1.0  0.70700  0.85695  0.92742  1.0000
  C   C437      1.0  0.90411  0.88000  0.72171  1.0000
  H   H702      1.0  0.75942  0.86398  0.93865  1.0000
  C   C438      1.0  0.73777  0.85318  0.96005  1.0000
  H   H703      1.0  0.84307  0.14970  0.53788  1.0000
  C   C439      1.0  0.75886  0.90960  0.65721  1.0000
  S   S178      1.0  0.73517  0.98089  0.92431  1.0000
  H   H704      1.0  0.85905  0.18044  0.64353  1.0000
  C   C440      1.0  0.87567  0.96477  0.65750  1.0000
  H   H705      1.0  0.73166  0.84894  0.85175  1.0000
  C   C441      1.0  0.90252  0.99911  0.58917  1.0000
  C   C442      1.0  0.86397  0.74138  0.63571  1.0000
  C   C443      1.0  0.88927  0.93745  0.57179  1.0000
  H   H706      1.0  0.75161  0.95570  0.77511  1.0000
  Fe  Fe89      1.0  0.83119  0.04393  0.83845  1.0000
  S   S179      1.0  0.78743  0.06319  0.88646  1.0000
  S   S180      1.0  0.88295  0.04918  0.87184  1.0000
  Fe  Fe90      1.0  0.78882  0.01115  0.75122  1.0000
  S   S181      1.0  0.74107  0.02848  0.78953  1.0000
  N   N46       1.0  0.87824  0.97096  0.59906  1.0000
  Fe  Fe91      1.0  0.76577  0.08049  0.80715  1.0000
  C   C444      1.0  0.74737  0.93559  0.74470  1.0000
  Fe  Fe92      1.0  0.76575  0.01016  0.86550  1.0000
  C   C445      1.0  0.92234  0.87220  0.76853  1.0000
  S   S182      1.0  0.81151  0.06559  0.75964  1.0000
  S   S183      1.0  0.81189  0.98878  0.82615  1.0000
  H   H707      1.0  0.84740  0.84043  0.69543  1.0000
  H   H708      1.0  0.84876  0.16590  0.79018  1.0000
  H   H709      1.0  0.87642  0.92991  0.01642  1.0000
  H   H710      1.0  0.74370  0.82462  0.96972  1.0000
  H   H711      1.0  0.68830  0.84002  0.85017  1.0000
  S   S184      1.0  0.78894  0.97335  0.68067  1.0000
  S   S185      1.0  0.91405  0.10913  0.65535  1.0000
  C   C446      1.0  0.72542  0.90805  0.75523  1.0000
  H   H712      1.0  0.78978  0.18381  0.52338  1.0000
  H   H713      1.0  0.83052  0.89882  0.95419  1.0000
  H   H714      1.0  0.78367  0.80292  0.81789  1.0000
  H   H715      1.0  0.69678  0.91100  0.95496  1.0000
  H   H716      1.0  0.78988  0.18238  0.77286  1.0000
  C   C447      1.0  0.91308  0.04106  0.82282  1.0000
  H   H717      1.0  0.89993  0.95613  0.67552  1.0000
  H   H718      1.0  0.89078  0.94118  0.52746  1.0000
  S   S186      1.0  0.73459  0.13167  0.80455  1.0000
  H   H719      1.0  0.71279  0.90759  0.79328  1.0000
  C   C448      1.0  0.85211  0.16124  0.74623  1.0000
  C   C449      1.0  0.84540  0.98262  0.57753  1.0000
  H   H720      1.0  0.69465  0.07289  0.72836  1.0000
  H   H721      1.0  0.87837  0.16696  0.73654  1.0000
  C   C450      1.0  0.92735  0.03648  0.72886  1.0000
  H   H722      1.0  0.87121  0.82056  0.78190  1.0000
  C   C451      1.0  0.76340  0.93712  0.69512  1.0000
  H   H723      1.0  0.70697  0.22171  0.68024  1.0000
  H   H724      1.0  0.85723  0.94383  0.66593  1.0000
  H   H725      1.0  0.86698  0.98954  0.67904  1.0000
  H   H726      1.0  0.90511  0.00416  0.54531  1.0000
  C   C452      1.0  0.73741  0.88145  0.66832  1.0000
  C   C453      1.0  0.83566  0.22213  0.72430  1.0000
  H   H727      1.0  0.72484  0.10239  0.70169  1.0000
  H   H728      1.0  0.91971  0.03528  0.68736  1.0000
  H   H729      1.0  0.78822  0.14789  0.72233  1.0000
  H   H730      1.0  0.87744  0.03668  0.75828  1.0000
  H   H731      1.0  0.83516  0.00640  0.59982  1.0000
  C   C454      1.0  0.71997  0.88127  0.71679  1.0000
  C   C455      1.0  0.82030  0.09802  0.53510  1.0000
  H   H732      1.0  0.81619  0.19253  0.63085  1.0000
  H   H733      1.0  0.71118  0.06505  0.66226  1.0000
  H   H734      1.0  0.87147  0.91561  0.57847  1.0000
  Fe  Fe93      1.0  0.90320  0.10126  0.56762  1.0000
  C   C456      1.0  0.79053  0.07982  0.52921  1.0000
  H   H735      1.0  0.77142  0.91040  0.61897  1.0000
  H   H736      1.0  0.86568  0.02531  0.97333  1.0000
  H   H737      1.0  0.71761  0.07250  0.87076  1.0000
  S   S187      1.0  0.69165  0.84745  0.72975  1.0000
  C   C457      1.0  0.83318  0.17561  0.65637  1.0000
  H   H738      1.0  0.82691  0.96100  0.58022  1.0000
  C   C458      1.0  0.80928  0.91276  0.97168  1.0000
  C   C459      1.0  0.76110  0.95281  0.96258  1.0000
  H   H739      1.0  0.89425  0.02500  0.60766  1.0000
  C   C460      1.0  0.70276  0.08636  0.69113  1.0000
  C   C461      1.0  0.78997  0.15481  0.52549  1.0000
  C   C462      1.0  0.90341  0.03739  0.76907  1.0000
  H   H740      1.0  0.84842  0.13220  0.73817  1.0000
  C   C463      1.0  0.78817  0.93431  0.93953  1.0000
  S   S188      1.0  0.91938  0.15596  0.54432  1.0000
  C   C464      1.0  0.71120  0.83769  0.87560  1.0000
  H   H741      1.0  0.79262  0.93617  0.89698  1.0000
  C   C465      1.0  0.69988  0.89533  0.91695  1.0000
  H   H742      1.0  0.71668  0.80860  0.88170  1.0000
  H   H743      1.0  0.89794  0.74618  0.70267  1.0000
  N   N47       1.0  0.82879  0.18388  0.71413  1.0000
  C   C466      1.0  0.86255  0.99938  0.99423  1.0000
  C   C467      1.0  0.79426  0.17653  0.72947  1.0000
  H   H744      1.0  0.77603  0.19318  0.70592  1.0000
  H   H745      1.0  0.92750  0.99184  0.60587  1.0000
  C   C468      1.0  0.82007  0.13557  0.53375  1.0000
  C   C469      1.0  0.91439  0.97371  0.96171  1.0000
  H   H746      1.0  0.84701  0.99054  0.53477  1.0000
  H   H747      1.0  0.69968  0.11047  0.59144  1.0000
  S   S189      1.0  0.85719  0.07272  0.54319  1.0000
  S   S190      1.0  0.82153  0.73427  0.55038  1.0000
  H   H748      1.0  0.91929  0.99792  0.93746  1.0000
  H   H749      1.0  0.68375  0.81303  0.96688  1.0000
  C   C470      1.0  0.68848  0.12903  0.62186  1.0000
  H   H750      1.0  0.79059  0.05080  0.53073  1.0000
  S   S191      1.0  0.93043  0.21083  0.68163  1.0000
  H   H751      1.0  0.73562  0.86814  0.99891  1.0000
  C   C471      1.0  0.75442  0.94888  0.01699  1.0000
  C   C472      1.0  0.76063  0.09895  0.52086  1.0000
  H   H752      1.0  0.68348  0.15301  0.72324  1.0000
  Fe  Fe94      1.0  0.04154  0.37953  0.28790  1.0000
  S   S192      1.0  0.03629  0.43425  0.32531  1.0000
  S   S193      1.0  0.00070  0.33965  0.29152  1.0000
  Fe  Fe95      1.0  0.11023  0.39238  0.24580  1.0000
  S   S194      1.0  0.11142  0.44793  0.27996  1.0000
  C   C473      1.0  0.06793  0.54411  0.06803  1.0000
  Fe  Fe96      1.0  0.08885  0.42430  0.35267  1.0000
  S   S195      1.0  0.10463  0.44136  0.43532  1.0000
  Fe  Fe97      1.0  0.05933  0.45325  0.24959  1.0000
  S   S196      1.0  0.04298  0.50511  0.21203  1.0000
  S   S197      1.0  0.09262  0.36768  0.32188  1.0000
  S   S198      1.0  0.05945  0.39954  0.20866  1.0000
  C   C474      1.0  0.93528  0.58473  0.08288  1.0000
  C   C475      1.0  0.94741  0.59002  0.40107  1.0000
  C   C476      1.0  0.94759  0.27025  0.11976  1.0000
  H   H753      1.0  0.97968  0.49788  0.14892  1.0000
  C   C477      1.0  0.99822  0.26895  0.25999  1.0000
  H   H754      1.0  0.02355  0.35142  0.47910  1.0000
  H   H755      1.0  0.16085  0.54563  0.05791  1.0000
  C   C478      1.0  0.06057  0.50903  0.14826  1.0000
  C   C479      1.0  0.05330  0.53963  0.11810  1.0000
  H   H756      1.0  0.14915  0.60236  0.30245  1.0000
  H   H757      1.0  0.15789  0.50350  0.27937  1.0000
  S   S199      1.0  0.99252  0.61339  0.50604  1.0000
  C   C480      1.0  0.08195  0.48226  0.12743  1.0000
  H   H758      1.0  0.06206  0.56812  0.04569  1.0000
  N   N48       1.0  0.97406  0.28250  0.08403  1.0000
  S   S200      1.0  0.97500  0.52567  0.43210  1.0000
  H   H759      1.0  0.08779  0.45848  0.15052  1.0000
  H   H760      1.0  0.09792  0.52083  0.30154  1.0000
  H   H761      1.0  0.93728  0.51157  0.13717  1.0000
  C   C481      1.0  0.05887  0.39144  0.45978  1.0000
  C   C482      1.0  0.14408  0.52741  0.37876  1.0000
  H   H762      1.0  0.05685  0.38647  0.41712  1.0000
  C   C483      1.0  0.01695  0.30007  0.26235  1.0000
  C   C484      1.0  0.04862  0.29993  0.23978  1.0000
  C   C485      1.0  0.06147  0.26905  0.21441  1.0000
  S   S201      1.0  0.15377  0.37277  0.19732  1.0000
  H   H763      1.0  0.95132  0.46710  0.11843  1.0000
  H   H764      1.0  0.00927  0.64031  0.34078  1.0000
  H   H765      1.0  0.06320  0.32375  0.24082  1.0000
  H   H766      1.0  0.13721  0.49894  0.37217  1.0000
  N   N49       1.0  0.94480  0.47544  0.20352  1.0000
  N   N50       1.0  0.14157  0.54828  0.32843  1.0000
  C   C486      1.0  0.08992  0.51795  0.04748  1.0000
  S   S202      1.0  0.94842  0.39355  0.06840  1.0000
  C   C487      1.0  0.04003  0.37143  0.49502  1.0000
  H   H767      1.0  0.02387  0.26016  0.44368  1.0000
  H   H768      1.0  0.16214  0.54652  0.24885  1.0000
  H   H769      1.0  0.98353  0.22999  0.05010  1.0000
  H   H770      1.0  0.96398  0.42194  0.18797  1.0000
  H   H771      1.0  0.00579  0.30068  0.14811  1.0000
  H   H772      1.0  0.94080  0.31889  0.04216  1.0000
  C   C488      1.0  0.15823  0.59852  0.48646  1.0000
  H   H773      1.0  0.94264  0.49569  0.28490  1.0000
  Fe  Fe98      1.0  0.01136  0.55992  0.47654  1.0000
  H   H774      1.0  0.03664  0.56024  0.13360  1.0000
  H   H775      1.0  0.15821  0.42291  0.51712  1.0000
  H   H776      1.0  0.95273  0.61163  0.27255  1.0000
  C   C489      1.0  0.09629  0.48650  0.07665  1.0000
  C   C490      1.0  0.96666  0.44436  0.21754  1.0000
  H   H777      1.0  0.99310  0.43283  0.51169  1.0000
  H   H778      1.0  0.97524  0.51342  0.24528  1.0000
  H   H779      1.0  0.95800  0.26017  0.15857  1.0000
  C   C491      1.0  0.94188  0.55387  0.41165  1.0000
  H   H780      1.0  0.08582  0.26940  0.19641  1.0000
  H   H781      1.0  0.99324  0.45173  0.21767  1.0000
  S   S203      1.0  0.05875  0.58034  0.44372  1.0000
  H   H782      1.0  0.12722  0.53859  0.41031  1.0000
  C   C492      1.0  0.08015  0.41758  0.47973  1.0000
  C   C493      1.0  0.99279  0.31103  0.11155  1.0000
  H   H783      1.0  0.95779  0.65746  0.29383  1.0000
  C   C494      1.0  0.95898  0.29664  0.03382  1.0000
  H   H784      1.0  0.13448  0.61271  0.48837  1.0000
  C   C495      1.0  0.01112  0.23794  0.23441  1.0000
  H   H785      1.0  0.96109  0.43385  0.25814  1.0000
  C   C496      1.0  0.10689  0.54846  0.30817  1.0000
  C   C497      1.0  0.94611  0.70842  0.08308  1.0000
  H   H786      1.0  0.98862  0.58046  0.08681  1.0000
  H   H787      1.0  0.00855  0.24052  0.10797  1.0000
  C   C498      1.0  0.95362  0.48853  0.14962  1.0000
  C   C499      1.0  0.96430  0.63742  0.26192  1.0000
  C   C500      1.0  0.95497  0.72152  0.41022  1.0000
  H   H788      1.0  0.08964  0.56165  0.33730  1.0000
  H   H789      1.0  0.01191  0.32231  0.08498  1.0000
  H   H790      1.0  0.99741  0.61411  0.17433  1.0000
  H   H791      1.0  0.17761  0.41234  0.28951  1.0000
  H   H792      1.0  0.97610  0.33359  0.12466  1.0000
  H   H793      1.0  0.96050  0.26659  0.51326  1.0000
  H   H794      1.0  0.10420  0.56272  0.26913  1.0000
  C   C501      1.0  0.15150  0.58558  0.33917  1.0000
  C   C502      1.0  0.04263  0.23818  0.21108  1.0000
  H   H795      1.0  0.04317  0.61937  0.30545  1.0000
  C   C503      1.0  0.00814  0.60590  0.21393  1.0000
  H   H796      1.0  0.03537  0.60207  0.20827  1.0000
  C   C504      1.0  0.97071  0.68289  0.09726  1.0000
  S   S204      1.0  0.04879  0.67983  0.42381  1.0000
  C   C505      1.0  0.99686  0.25203  0.07100  1.0000
  C   C506      1.0  0.96690  0.57995  0.06101  1.0000
  H   H797      1.0  0.13587  0.59849  0.37095  1.0000
  C   C507      1.0  0.01326  0.70417  0.40217  1.0000
  Fe  Fe99      1.0  0.04152  0.63313  0.47880  1.0000
  H   H798      1.0  0.00927  0.68892  0.27074  1.0000
  H   H799      1.0  0.97953  0.68038  0.45737  1.0000
  H   H800      1.0  0.99771  0.57938  0.22362  1.0000
  H   H801      1.0  0.17786  0.58654  0.35306  1.0000
  H   H802      1.0  0.97382  0.26878  0.27771  1.0000
  S   S205      1.0  0.11730  0.61685  0.05278  1.0000
  S   S206      1.0  0.03347  0.65363  0.09474  1.0000
  C   C508      1.0  0.01463  0.66768  0.24030  1.0000
  C   C509      1.0  0.94909  0.50449  0.24370  1.0000
  H   H803      1.0  0.96453  0.66061  0.12254  1.0000
  C   C510      1.0  0.16250  0.56507  0.51121  1.0000
  H   H804      1.0  0.95236  0.64677  0.22375  1.0000
  H   H805      1.0  0.04202  0.66549  0.23518  1.0000
  C   C511      1.0  0.01561  0.62121  0.30762  1.0000
  H   H806      1.0  0.00398  0.67711  0.20124  1.0000
  H   H807      1.0  0.11263  0.46567  0.06071  1.0000
  H   H808      1.0  0.00665  0.59435  0.31923  1.0000
  N   N51       1.0  0.00066  0.63304  0.25599  1.0000
  C   C512      1.0  0.01051  0.71373  0.04317  1.0000
  H   H809      1.0  0.97239  0.59980  0.40094  1.0000
  C   C513      1.0  0.00291  0.68559  0.07731  1.0000
  C   C514      1.0  0.98228  0.69969  0.42584  1.0000
  H   H810      1.0  0.01730  0.26038  0.04445  1.0000
  H   H811      1.0  0.18115  0.63878  0.43806  1.0000
  H   H812      1.0  0.16611  0.47975  0.03332  1.0000
  C   C515      1.0  0.16391  0.53194  0.28768  1.0000
  H   H813      1.0  0.99016  0.30100  0.50199  1.0000
  H   H814      1.0  0.03530  0.71588  0.02758  1.0000
  Fe  Fe100     1.0  0.07111  0.64737  0.02941  1.0000
  H   H815      1.0  0.93314  0.52844  0.23384  1.0000
  C   C516      1.0  0.01672  0.23775  0.47018  1.0000
  H   H816      1.0  0.16976  0.52730  0.39580  1.0000
  H   H817      1.0  0.93354  0.24808  0.10087  1.0000
  H   H818      1.0  0.93271  0.48587  0.50385  1.0000
  H   H819      1.0  0.93359  0.43886  0.48761  1.0000
  Fe  Fe101     1.0  0.03074  0.36734  0.67861  1.0000
  S   S207      1.0  0.01938  0.42271  0.70972  1.0000
  S   S208      1.0  0.01859  0.35236  0.59379  1.0000
  Fe  Fe102     1.0  0.05879  0.34122  0.78405  1.0000
  S   S209      1.0  0.04940  0.39402  0.82532  1.0000
  S   S210      1.0  0.08557  0.29693  0.82809  1.0000
  Fe  Fe103     1.0  0.00043  0.39390  0.78157  1.0000
  S   S211      1.0  0.95141  0.41125  0.81668  1.0000
  Fe  Fe104     1.0  0.06934  0.41765  0.75006  1.0000
  S   S212      1.0  0.10708  0.46114  0.74765  1.0000
  S   S213      1.0  0.00782  0.33870  0.74712  1.0000
  S   S214      1.0  0.08257  0.36467  0.71196  1.0000
  H   H820      1.0  0.96402  0.67821  0.97428  1.0000
  C   C517      1.0  0.93828  0.71788  0.89407  1.0000
  C   C518      1.0  0.03700  0.62722  0.80077  1.0000
  C   C519      1.0  0.99469  0.48782  0.95354  1.0000
  H   H821      1.0  0.13688  0.45472  0.62638  1.0000
  H   H822      1.0  0.14920  0.41814  0.92194  1.0000
  C   C520      1.0  0.06351  0.40383  0.57058  1.0000
  C   C521      1.0  0.13731  0.45596  0.79866  1.0000
  C   C522      1.0  0.13027  0.43761  0.84585  1.0000
  C   C523      1.0  0.03475  0.52783  0.91688  1.0000
  H   H823      1.0  0.10602  0.42728  0.85202  1.0000
  Fe  Fe105     1.0  0.14357  0.65488  0.00028  1.0000
  H   H824      1.0  0.96752  0.41012  0.62095  1.0000
  C   C524      1.0  0.97694  0.38494  0.96962  1.0000
  H   H825      1.0  0.06508  0.40901  0.61332  1.0000
  C   C525      1.0  0.08200  0.42426  0.53509  1.0000
  C   C526      1.0  0.97696  0.38763  0.91336  1.0000
  C   C527      1.0  0.95103  0.40606  0.88666  1.0000
  H   H826      1.0  0.04167  0.53617  0.95838  1.0000
  Fe  Fe106     1.0  0.01876  0.59934  0.58264  1.0000
  H   H827      1.0  0.99677  0.37494  0.89076  1.0000
  H   H828      1.0  0.97291  0.50457  0.94067  1.0000
  H   H829      1.0  0.04181  0.43731  0.93026  1.0000
  S   S215      1.0  0.94781  0.56945  0.90218  1.0000
  H   H830      1.0  0.05786  0.47095  0.97457  1.0000
  C   C528      1.0  0.04976  0.46567  0.93241  1.0000
  H   H831      1.0  0.99057  0.50013  0.84741  1.0000
  H   H832      1.0  0.15431  0.46963  0.53374  1.0000
  H   H833      1.0  0.93475  0.65195  0.93767  1.0000
  H   H834      1.0  0.00178  0.49647  0.99500  1.0000
  C   C529      1.0  0.11439  0.56586  0.76980  1.0000
  H   H835      1.0  0.99769  0.22795  0.60225  1.0000
  C   C530      1.0  0.95546  0.66738  0.83933  1.0000
  H   H836      1.0  0.99709  0.37085  0.99021  1.0000
  H   H837      1.0  0.03189  0.48400  0.83129  1.0000
  C   C531      1.0  0.99661  0.70175  0.88692  1.0000
  N   N52       1.0  0.02264  0.49079  0.91588  1.0000
  S   S216      1.0  0.11024  0.52580  0.98662  1.0000
  H   H838      1.0  0.97834  0.64110  0.93396  1.0000
  H   H839      1.0  0.12647  0.61264  0.65498  1.0000
  H   H840      1.0  0.17483  0.48397  0.75555  1.0000
  C   C532      1.0  0.01140  0.48189  0.86073  1.0000
  H   H841      1.0  0.96832  0.47549  0.64107  1.0000
  H   H842      1.0  0.98619  0.45982  0.95584  1.0000
  C   C533      1.0  0.94266  0.57516  0.97162  1.0000
  C   C534      1.0  0.95029  0.39948  0.99887  1.0000
  S   S217      1.0  0.03399  0.54407  0.55561  1.0000
  C   C535      1.0  0.16892  0.46990  0.79184  1.0000
  H   H843      1.0  0.17014  0.55441  0.71641  1.0000
  H   H844      1.0  0.05715  0.53051  0.89153  1.0000
  C   C536      1.0  0.15444  0.43115  0.62496  1.0000
  H   H845      1.0  0.93504  0.33791  0.63387  1.0000
  C   C537      1.0  0.14730  0.54827  0.69283  1.0000
  C   C538      1.0  0.08299  0.25645  0.79212  1.0000
  H   H846      1.0  0.01549  0.54731  0.90192  1.0000
  C   C539      1.0  0.15475  0.43266  0.88574  1.0000
  H   H847      1.0  0.14866  0.31809  0.77155  1.0000
  H   H848      1.0  0.14023  0.40786  0.60970  1.0000
  H   H849      1.0  0.05366  0.27884  0.72702  1.0000
  C   C540      1.0  0.05213  0.67114  0.73470  1.0000
  C   C541      1.0  0.94963  0.41602  0.58760  1.0000
  H   H850      1.0  0.00221  0.45414  0.85837  1.0000
  H   H851      1.0  0.97810  0.30713  0.00652  1.0000
  C   C542      1.0  0.95019  0.47964  0.60744  1.0000
  H   H852      1.0  0.99987  0.71932  0.85144  1.0000
  H   H853      1.0  0.06593  0.57452  0.69500  1.0000
  C   C543      1.0  0.04256  0.37736  0.55040  1.0000
  H   H854      1.0  0.16224  0.42531  0.66717  1.0000
  H   H855      1.0  0.00765  0.44982  0.57527  1.0000
  H   H856      1.0  0.17984  0.52103  0.96644  1.0000
  H   H857      1.0  0.95332  0.39447  0.55674  1.0000
  H   H858      1.0  0.09739  0.44545  0.55032  1.0000
  C   C544      1.0  0.06533  0.25489  0.74340  1.0000
  H   H859      1.0  0.09265  0.58189  0.78472  1.0000
  H   H860      1.0  0.09054  0.56081  0.63849  1.0000
  H   H861      1.0  0.07196  0.46833  0.90663  1.0000
  H   H862      1.0  0.08304  0.52969  0.69138  1.0000
  H   H863      1.0  0.03941  0.27489  0.59010  1.0000
  H   H864      1.0  0.15083  0.31016  0.89340  1.0000
  N   N53       1.0  0.11846  0.57019  0.71117  1.0000
  H   H865      1.0  0.01558  0.67963  0.88420  1.0000
  S   S218      1.0  0.09816  0.68884  0.98349  1.0000
  C   C545      1.0  0.12398  0.60832  0.69905  1.0000
  C   C546      1.0  0.08816  0.55829  0.68280  1.0000
  S   S219      1.0  0.12962  0.54432  0.54336  1.0000
  H   H866      1.0  0.13659  0.57498  0.79264  1.0000
  H   H867      1.0  0.10294  0.62566  0.71299  1.0000
  S   S220      1.0  0.99149  0.60156  0.66070  1.0000
  H   H868      1.0  0.03065  0.66470  0.65560  1.0000
  H   H869      1.0  0.06599  0.69449  0.72386  1.0000
  C   C547      1.0  0.95983  0.66374  0.93578  1.0000
  H   H870      1.0  0.95924  0.68377  0.80275  1.0000
  Fe  Fe107     1.0  0.09196  0.65197  0.91249  1.0000
  H   H871      1.0  0.17269  0.35085  0.90778  1.0000
  S   S221      1.0  0.13940  0.62028  0.92639  1.0000
  Fe  Fe108     1.0  0.10777  0.58560  0.97729  1.0000
  H   H872      1.0  0.98076  0.28814  0.56900  1.0000
  H   H873      1.0  0.99521  0.57294  0.98892  1.0000
  S   S222      1.0  0.08323  0.67673  0.83158  1.0000
  H   H874      1.0  0.14006  0.35038  0.85785  1.0000
  H   H875      1.0  0.14259  0.51917  0.69671  1.0000
  H   H876      1.0  0.11050  0.53730  0.78031  1.0000
  H   H877      1.0  0.94868  0.28499  0.69087  1.0000
  H   H878      1.0  0.97141  0.64271  0.83622  1.0000
  H   H879      1.0  0.00223  0.58771  0.77322  1.0000
  S   S223      1.0  0.06652  0.62479  0.55941  1.0000
  H   H880      1.0  0.06349  0.24567  0.54688  1.0000
  H   H881      1.0  0.14682  0.61814  0.71934  1.0000
  C   C548      1.0  0.03225  0.65427  0.69606  1.0000
  N   N54       1.0  0.96262  0.68774  0.88909  1.0000
  C   C549      1.0  0.97061  0.57549  0.00545  1.0000
  H   H882      1.0  0.03910  0.61643  0.84089  1.0000
  N   N55       1.0  0.95459  0.45201  0.56486  1.0000
  S   S224      1.0  0.05975  0.61407  0.95630  1.0000
  C   C550      1.0  0.01620  0.61100  0.76250  1.0000
  C   C551      1.0  0.01431  0.62422  0.70992  1.0000
  C   C552      1.0  0.05515  0.65718  0.78665  1.0000
  H   H883      1.0  0.15264  0.55324  0.64976  1.0000
  C   C553      1.0  0.17169  0.44592  0.53507  1.0000
  H   H884      1.0  0.94337  0.65522  0.57727  1.0000
  H   H885      1.0  0.00266  0.71791  0.92330  1.0000
  N   N56       1.0  0.01154  0.25012  0.52621  1.0000
  C   C554      1.0  0.16138  0.33448  0.87502  1.0000
  C   C555      1.0  0.98450  0.27761  0.52746  1.0000
  C   C556      1.0  0.04246  0.26562  0.54765  1.0000
  H   H886      1.0  0.93649  0.58880  0.58152  1.0000
  H   H887      1.0  0.17848  0.37469  0.79145  1.0000
  H   H888      1.0  0.15965  0.27802  0.80732  1.0000
  Fe  Fe109     1.0  0.07979  0.57031  0.52622  1.0000
  C   C557      1.0  0.16987  0.30309  0.79069  1.0000
  H   H889      1.0  0.95380  0.50713  0.59160  1.0000
  H   H890      1.0  0.94555  0.27543  0.01144  1.0000
  C   C558      1.0  0.98853  0.45377  0.54312  1.0000
  H   H891      1.0  0.99284  0.48015  0.52414  1.0000
  H   H892      1.0  0.04975  0.28936  0.52400  1.0000
  C   C559      1.0  0.93302  0.28202  0.65552  1.0000
  N   N57       1.0  0.02068  0.82315  0.46373  1.0000
  C   C560      1.0  0.02288  0.82400  0.40447  1.0000
  H   H893      1.0  0.99785  0.82637  0.38503  1.0000
  H   H894      1.0  0.15325  0.12617  0.15715  1.0000
  C   C561      1.0  0.02040  0.88480  0.21741  1.0000
  H   H895      1.0  0.06508  0.79067  0.47501  1.0000
  H   H896      1.0  0.11796  0.15593  0.16756  1.0000
  C   C562      1.0  0.98898  0.75065  0.34491  1.0000
  C   C563      1.0  0.95389  0.73689  0.04953  1.0000
  H   H897      1.0  0.93788  0.76904  0.15853  1.0000
  C   C564      1.0  0.08985  0.83477  0.04899  1.0000
  C   C565      1.0  0.05421  0.81722  0.48724  1.0000
  S   S225      1.0  0.05827  0.20110  0.17484  1.0000
  H   H898      1.0  0.98125  0.86288  0.46633  1.0000
  H   H899      1.0  0.02191  0.88051  0.47120  1.0000
  S   S226      1.0  0.03446  0.86616  0.27828  1.0000
  H   H900      1.0  0.97794  0.05399  0.31078  1.0000
  H   H901      1.0  0.17302  0.05655  0.02924  1.0000
  C   C566      1.0  0.00648  0.85771  0.48329  1.0000
  C   C567      1.0  0.96969  0.96853  0.26450  1.0000
  S   S227      1.0  0.10535  0.87665  0.38283  1.0000
  H   H902      1.0  0.99187  0.77073  0.31417  1.0000
  H   H903      1.0  0.97379  0.79689  0.46210  1.0000
  H   H904      1.0  0.03665  0.21654  0.46787  1.0000
  H   H905      1.0  0.09989  0.76431  0.03414  1.0000
  H   H906      1.0  0.10665  0.13242  0.28420  1.0000
  C   C568      1.0  0.99647  0.86703  0.18668  1.0000
  H   H907      1.0  0.96586  0.86833  0.11496  1.0000
  N   N58       1.0  0.12231  0.81584  0.04248  1.0000
  H   H908      1.0  0.98700  0.84184  0.20042  1.0000
  C   C569      1.0  0.15855  0.10537  0.38625  1.0000
  H   H909      1.0  0.03728  0.84723  0.39089  1.0000
  C   C570      1.0  0.16336  0.06919  0.37227  1.0000
  H   H910      1.0  0.93837  0.99733  0.05608  1.0000
  H   H911      1.0  0.02119  0.03830  0.24719  1.0000
  C   C571      1.0  0.04558  0.02636  0.02849  1.0000
  C   C572      1.0  0.98603  0.73942  0.02945  1.0000
  C   C573      1.0  0.98465  0.88190  0.13828  1.0000
  H   H912      1.0  0.08139  0.06646  0.17998  1.0000
  H   H913      1.0  0.12094  0.79071  0.12000  1.0000
  H   H914      1.0  0.15436  0.09067  0.26529  1.0000
  H   H915      1.0  0.99383  0.22583  0.45283  1.0000
  H   H916      1.0  0.12550  0.05586  0.25003  1.0000
  H   H917      1.0  0.98615  0.95414  0.29387  1.0000
  Fe  Fe110     1.0  0.00937  0.08809  0.10784  1.0000
  S   S228      1.0  0.01196  0.11082  0.19103  1.0000
  S   S229      1.0  0.03699  0.03595  0.09621  1.0000
  H   H918      1.0  0.98750  0.01290  0.34526  1.0000
  H   H919      1.0  0.01839  0.99932  0.20513  1.0000
  C   C574      1.0  0.13472  0.13567  0.18732  1.0000
  C   C575      1.0  0.13597  0.04731  0.36367  1.0000
  Fe  Fe111     1.0  0.95766  0.12282  0.18008  1.0000
  H   H920      1.0  0.04662  0.08036  0.48479  1.0000
  H   H921      1.0  0.07826  0.09729  0.26816  1.0000
  S   S230      1.0  0.95400  0.09483  0.10003  1.0000
  C   C576      1.0  0.99687  0.91452  0.12057  1.0000
  C   C577      1.0  0.09969  0.03886  0.50891  1.0000
  H   H922      1.0  0.08269  0.02650  0.47876  1.0000
  S   S231      1.0  0.04608  0.93873  0.38743  1.0000
  H   H923      1.0  0.97215  0.95451  0.22505  1.0000
  H   H924      1.0  0.02990  0.99483  0.27487  1.0000
  H   H925      1.0  0.04025  0.73276  0.34245  1.0000
  C   C578      1.0  0.03261  0.91734  0.19947  1.0000
  H   H926      1.0  0.04999  0.96937  0.04144  1.0000
  C   C579      1.0  0.94875  0.11859  0.40608  1.0000
  C   C580      1.0  0.97850  0.13723  0.40539  1.0000
  N   N59       1.0  0.11582  0.10557  0.20884  1.0000
  C   C581      1.0  0.94369  0.12399  0.30909  1.0000
  H   H927      1.0  0.07223  0.81843  0.07209  1.0000
  H   H928      1.0  0.96312  0.05264  0.21366  1.0000
  C   C582      1.0  0.02094  0.93211  0.15098  1.0000
  H   H929      1.0  0.05103  0.93119  0.22273  1.0000
  Fe  Fe112     1.0  0.13878  0.92001  0.35616  1.0000
  H   H930      1.0  0.03080  0.95697  0.13659  1.0000
  H   H931      1.0  0.94211  0.79523  0.21924  1.0000
  H   H932      1.0  0.12248  0.14728  0.40431  1.0000
  Fe  Fe113     1.0  0.08645  0.91751  0.44181  1.0000
  H   H933      1.0  0.11871  0.05352  0.48619  1.0000
  C   C583      1.0  0.09668  0.08866  0.16483  1.0000
  C   C584      1.0  0.01342  0.00988  0.24628  1.0000
  H   H934      1.0  0.98198  0.15397  0.27140  1.0000
  S   S232      1.0  0.02102  0.13964  0.06738  1.0000
  C   C585      1.0  0.99914  0.79371  0.47992  1.0000
  H   H935      1.0  0.14121  0.83316  0.11948  1.0000
  C   C586      1.0  0.09887  0.09759  0.38389  1.0000
  Fe  Fe114     1.0  0.06843  0.90171  0.32553  1.0000
  H   H936      1.0  0.96081  0.01061  0.17839  1.0000
  S   S233      1.0  0.10367  0.94186  0.29311  1.0000
  C   C587      1.0  0.10372  0.06169  0.36853  1.0000
  H   H937      1.0  0.13990  0.01965  0.35139  1.0000
  C   C588      1.0  0.13714  0.80808  0.09593  1.0000
  H   H938      1.0  0.09248  0.86082  0.07066  1.0000
  C   C589      1.0  0.13902  0.07867  0.23265  1.0000
  C   C590      1.0  0.09291  0.11924  0.25073  1.0000
  Fe  Fe115     1.0  0.96587  0.14872  0.06648  1.0000
  C   C591      1.0  0.95711  0.02394  0.21823  1.0000
  C   C592      1.0  0.12630  0.11931  0.39345  1.0000
  C   C593      1.0  0.06394  0.09164  0.51547  1.0000
  S   S234      1.0  0.00053  0.14519  0.46537  1.0000
  N   N60       1.0  0.97805  0.00681  0.26042  1.0000
  H   H939      1.0  0.16179  0.79400  0.09218  1.0000
  H   H940      1.0  0.15634  0.06730  0.20209  1.0000
  H   H941      1.0  0.07959  0.10842  0.14481  1.0000
  H   H942      1.0  0.01331  0.16458  0.35596  1.0000
  C   C594      1.0  0.97295  0.14349  0.30865  1.0000
  H   H943      1.0  0.07390  0.10878  0.38766  1.0000
  H   H944      1.0  0.14572  0.92137  0.50996  1.0000
  Fe  Fe116     1.0  0.01880  0.16316  0.15022  1.0000
  H   H945      1.0  0.07155  0.83807  0.47401  1.0000
  C   C595      1.0  0.97193  0.02502  0.31258  1.0000
  S   S235      1.0  0.12262  0.95933  0.41990  1.0000
  Fe  Fe117     1.0  0.08413  0.97707  0.35992  1.0000
  S   S236      1.0  0.96471  0.17741  0.14614  1.0000
  H   H946      1.0  0.07503  0.13964  0.23443  1.0000
  H   H947      1.0  0.14796  0.99613  0.03403  1.0000
  S   S237      1.0  0.98237  0.93330  0.06034  1.0000
  S   S238      1.0  0.06942  0.03525  0.35407  1.0000
  H   H948      1.0  0.03553  0.79945  0.38829  1.0000
  C   C596      1.0  0.99051  0.14983  0.35666  1.0000
  H   H949      1.0  0.11326  0.07706  0.13332  1.0000
  H   H950      1.0  0.99680  0.21386  0.23319  1.0000
  H   H951      1.0  0.00945  0.76722  0.46660  1.0000
  C   C597      1.0  0.95857  0.74780  0.37092  1.0000
  H   H952      1.0  0.14834  0.14994  0.21995  1.0000
  H   H953      1.0  0.08170  0.10852  0.49370  1.0000
  H   H954      1.0  0.94534  0.02354  0.32426  1.0000
  H   H955      1.0  0.15103  0.86342  0.03493  1.0000
  H   H956      1.0  0.93917  0.10894  0.44354  1.0000
  H   H957      1.0  0.94362  0.96538  0.27765  1.0000
  C   C598      1.0  0.01639  0.72929  0.36113  1.0000
  H   H958      1.0  0.12202  0.79571  0.86771  1.0000
  H   H959      1.0  0.16894  0.83537  0.84894  1.0000
  S   S239      1.0  0.95985  0.81055  0.90247  1.0000
  H   H960      1.0  0.10712  0.78650  0.97189  1.0000
  C   C599      1.0  0.03520  0.90306  0.73367  1.0000
  H   H961      1.0  0.01938  0.87971  0.74172  1.0000
  S   S240      1.0  0.95698  0.82758  0.60690  1.0000
  S   S241      1.0  0.05518  0.81046  0.89903  1.0000
  C   C600      1.0  0.06242  0.22208  0.71596  1.0000
  C   C601      1.0  0.08699  0.83936  0.88163  1.0000
  H   H962      1.0  0.98523  0.82209  0.71301  1.0000
  H   H963      1.0  0.97035  0.91829  0.71465  1.0000
  H   H964      1.0  0.04815  0.22078  0.67892  1.0000
  C   C602      1.0  0.96261  0.83833  0.71536  1.0000
  Fe  Fe118     1.0  0.00750  0.83569  0.92813  1.0000
  H   H965      1.0  0.06913  0.02033  0.59956  1.0000
  H   H966      1.0  0.96640  0.84611  0.80108  1.0000
  H   H967      1.0  0.12557  0.03941  0.96898  1.0000
  H   H968      1.0  0.04352  0.90083  0.69124  1.0000
  C   C603      1.0  0.08211  0.87666  0.88237  1.0000
  C   C604      1.0  0.11824  0.82457  0.86878  1.0000
  C   C605      1.0  0.14482  0.84697  0.85837  1.0000
  H   H969      1.0  0.94763  0.11307  0.81070  1.0000
  H   H970      1.0  0.97934  0.20690  0.54432  1.0000
  H   H971      1.0  0.05763  0.90015  0.76016  1.0000
  C   C606      1.0  0.14446  0.02957  0.93961  1.0000
  H   H972      1.0  0.11281  0.01663  0.53073  1.0000
  C   C607      1.0  0.13998  0.88424  0.85924  1.0000
  H   H973      1.0  0.00265  0.17627  0.74034  1.0000
  C   C608      1.0  0.97814  0.16244  0.86888  1.0000
  H   H974      1.0  0.04320  0.97219  0.69092  1.0000
  Fe  Fe119     1.0  0.09854  0.03790  0.80935  1.0000
  S   S242      1.0  0.08860  0.04873  0.72205  1.0000
  S   S243      1.0  0.06791  0.99878  0.85362  1.0000
  Fe  Fe120     1.0  0.14354  0.04011  0.71254  1.0000
  H   H975      1.0  0.03724  0.13681  0.83051  1.0000
  Fe  Fe121     1.0  0.10118  0.10520  0.74402  1.0000
  S   S244      1.0  0.07150  0.14961  0.70457  1.0000
  S   S245      1.0  0.15225  0.02352  0.79752  1.0000
  S   S246      1.0  0.10720  0.09516  0.83282  1.0000
  H   H976      1.0  0.05539  0.06690  0.90744  1.0000
  C   C609      1.0  0.14728  0.97709  0.61883  1.0000
  C   C610      1.0  0.15808  0.95945  0.57211  1.0000
  S   S247      1.0  0.17355  0.91226  0.84858  1.0000
  C   C611      1.0  0.11749  0.78174  0.01295  1.0000
  C   C612      1.0  0.99606  0.18358  0.78253  1.0000
  C   C613      1.0  0.11698  0.96841  0.64165  1.0000
  C   C614      1.0  0.10850  0.89909  0.87040  1.0000
  C   C615      1.0  0.00235  0.21949  0.55981  1.0000
  C   C616      1.0  0.09621  0.94422  0.61521  1.0000
  H   H977      1.0  0.10926  0.98087  0.67893  1.0000
  C   C617      1.0  0.05944  0.00993  0.92061  1.0000
  N   N61       1.0  0.98634  0.15172  0.81307  1.0000
  C   C618      1.0  0.05773  0.98248  0.95839  1.0000
  C   C619      1.0  0.05441  0.04568  0.93667  1.0000
  H   H978      1.0  0.06140  0.95477  0.94602  1.0000
  S   S248      1.0  0.95195  0.07343  0.54947  1.0000
  C   C620      1.0  0.07755  0.19090  0.73686  1.0000
  H   H979      1.0  0.99518  0.93911  0.66479  1.0000
  H   H980      1.0  0.99194  0.76065  0.00222  1.0000
  C   C621      1.0  0.03927  0.96770  0.73437  1.0000
  H   H981      1.0  0.02230  0.19824  0.56021  1.0000
  H   H982      1.0  0.14981  0.05219  0.91237  1.0000
  H   H983      1.0  0.93892  0.96114  0.97254  1.0000
  C   C622      1.0  0.13744  0.93492  0.54620  1.0000
  H   H984      1.0  0.96300  0.12535  0.74605  1.0000
  H   H985      1.0  0.09199  0.09777  0.61362  1.0000
  H   H986      1.0  0.04286  0.05971  0.60533  1.0000
  C   C623      1.0  0.00602  0.93849  0.80043  1.0000
  S   S249      1.0  0.15510  0.09771  0.72614  1.0000
  C   C624      1.0  0.09855  0.22539  0.81253  1.0000
  H   H987      1.0  0.10815  0.16887  0.80065  1.0000
  H   H988      1.0  0.97396  0.96619  0.71447  1.0000
  H   H989      1.0  0.99304  0.96437  0.81045  1.0000
  C   C625      1.0  0.94695  0.04075  0.83665  1.0000
  S   S250      1.0  0.17097  0.01121  0.64673  1.0000
  H   H990      1.0  0.98843  0.91669  0.80843  1.0000
  H   H991      1.0  0.05819  0.88831  0.89255  1.0000
  C   C626      1.0  0.10589  0.92863  0.56650  1.0000
  C   C627      1.0  0.04711  0.05385  0.99056  1.0000
  Fe  Fe122     1.0  0.93996  0.86713  0.89836  1.0000
  H   H992      1.0  0.04910  0.10980  0.54226  1.0000
  C   C628      1.0  0.09601  0.19269  0.78473  1.0000
  C   C629      1.0  0.01416  0.12506  0.81372  1.0000
  H   H993      1.0  0.02001  0.11511  0.77235  1.0000
  S   S251      1.0  0.98877  0.89221  0.91678  1.0000
  C   C630      1.0  0.97100  0.03922  0.79610  1.0000
  C   C631      1.0  0.98782  0.94038  0.70780  1.0000
  H   H994      1.0  0.15582  0.96388  0.98127  1.0000
  H   H995      1.0  0.06401  0.96329  0.75390  1.0000
  Fe  Fe123     1.0  0.97288  0.88872  0.00243  1.0000
  S   S252      1.0  0.94018  0.17522  0.99637  1.0000
  Fe  Fe124     1.0  0.93530  0.16115  0.63070  1.0000
  H   H996      1.0  0.07210  0.93861  0.63089  1.0000
  H   H997      1.0  0.00826  0.10134  0.83843  1.0000
  H   H998      1.0  0.95455  0.04312  0.87840  1.0000
  S   S253      1.0  0.98936  0.04558  0.69066  1.0000
  S   S254      1.0  0.07692  0.90515  0.52822  1.0000
  H   H999      1.0  0.94298  0.73412  0.93093  1.0000
  S   S255      1.0  0.98658  0.13825  0.61882  1.0000
  C   C632      1.0  0.94373  0.84509  0.66882  1.0000
  N   N62       1.0  0.01711  0.93742  0.74397  1.0000
  H   H1000     1.0  0.99974  0.17450  0.88993  1.0000
  Fe  Fe125     1.0  0.96419  0.08531  0.63553  1.0000
  N   N63       1.0  0.17501  0.01618  0.96693  1.0000
  C   C633      1.0  0.95698  0.13580  0.78698  1.0000
  H   H1001     1.0  0.13281  0.00803  0.91502  1.0000
  H   H1002     1.0  0.11864  0.05853  0.60847  1.0000
  Fe  Fe126     1.0  0.16048  0.08189  0.81255  1.0000
  H   H1003     1.0  0.13344  0.84721  0.97310  1.0000
  H   H1004     1.0  0.02874  0.99334  0.75083  1.0000
  C   C634      1.0  0.95184  0.85174  0.76527  1.0000
  H   H1005     1.0  0.10473  0.92794  0.87120  1.0000
  H   H1006     1.0  0.99712  0.04032  0.80661  1.0000
  C   C635      1.0  0.05137  0.99075  0.01240  1.0000
  H   H1007     1.0  0.93625  0.15589  0.78272  1.0000
  H   H1008     1.0  0.02746  0.93560  0.82893  1.0000
  H   H1009     1.0  0.97052  0.13905  0.89312  1.0000
  C   C636      1.0  0.96096  0.03877  0.74208  1.0000
  Fe  Fe127     1.0  0.94690  0.81427  0.98953  1.0000
  C   C637      1.0  0.05684  0.04234  0.57619  1.0000
  N   N64       1.0  0.08137  0.06303  0.54630  1.0000
  H   H1010     1.0  0.14133  0.76622  0.00840  1.0000
  H   H1011     1.0  0.01801  0.19652  0.80123  1.0000
  C   C638      1.0  0.10498  0.07938  0.58467  1.0000
  Fe  Fe128     1.0  0.96922  0.12902  0.53418  1.0000
  C   C639      1.0  0.16657  0.98693  0.00377  1.0000
  C   C640      1.0  0.14483  0.83868  0.01199  1.0000
  H   H1012     1.0  0.95719  0.18249  0.87007  1.0000
  H   H1013     1.0  0.04287  0.08138  0.00265  1.0000
  H   H1014     1.0  0.03841  0.02999  0.54846  1.0000
  H   H1015     1.0  0.12388  0.09520  0.56354  1.0000
  H   H1016     1.0  0.16865  0.82422  0.00287  1.0000
  H   H1017     1.0  0.93916  0.73601  0.85879  1.0000
  H   H1018     1.0  0.05366  0.81830  0.53201  1.0000
  H   H1019     1.0  0.97559  0.20417  0.78051  1.0000
  S   S256      1.0  0.99633  0.83461  0.01601  1.0000
  H   H1020     1.0  0.99653  0.79273  0.52441  1.0000
  H   H1021     1.0  0.00475  0.85834  0.52799  1.0000
  H   H1022     1.0  0.07789  0.84056  0.00922  1.0000
  H   H1023     1.0  0.18185  0.96556  0.55487  1.0000
  H   H1024     1.0  0.11241  0.22653  0.85001  1.0000
