data_image0
_chemical_formula_structural       HC2HC3H2SNH2CFeHCH2S2HSHCHCH5C2H3CHSC2HCHCFeCH3NCH3CHCHNCHFeNSCHCSFeH2CH4Fe2SHSCHCHS2H3CH4SH2C2HCSC3H3C3H3CHCHCSH2C2HCHC2SHCHCH3CN2CHCHCHC2HCH3SC2H4CH3C2HSH5S2HSHFeHC2FeCSH2NCHSFeSC2HCH2CHCH2SCHFeH3S2CFeCNCHNCSCH2C2H3SH2CHFeCH3FeC2S3C2HC3HCH3SHFeSH3CHSH2FeCHCH4CHCH3SC2NCSCH5C2H5CHCH2CHSHFeSCS2HFeHSFeSC2FeH3CHCH5CHC3HC2H2C2SHCH2SH2CH2SH4CHCSCH3CH2NCSHFeC2HCH3CHSCHSC2SCH2FeS3CFeH4CFeH2CHNH2CFeCFe2CHSHCFeH4CHSC2FeHS2C2SHC2SH2SNHCHCH3CHCHCHFeHC2FeC2HFeHCHSCH2FeHCFeCNH3CSFeH2SCHCHCH3CHCS3HCH9C2NC2SC2HSFeH4SH4SCFeC3HSH3NCSCHFeHSH2C3HCHC3FeHFe2SHNC2FeH2CHCH3CHSH2FeH2C3H2CH3CHCHC2HSCH3FeCSHSC2SHSHCHC2HC5NH4S2HFeH2CH2CH2SH3CSC2SH3CH2SCS3HFeH3CFeC2FeNSH2C3HCH6CHFeHCHSH2CFeC2S3HCFeH4SCFeCFeCNCH6SCH2S2HSHSH2C2HCNSCFeC2HCH2FeCFe2HCH2SH4C2NHCNCHCHCH4FeHCHSH2C2H2S2CHC2HCHNH5FeH2CHC2HCH4CH2NHSFeH2C2HNHCFeC2H2CHCHCSCH2SHSH2CH2C3SH9C2NHCH3SH2SCSH3C3HCH2CH2CNHCHSH3CFeHC2HSH3SH4SC2H7C2HC2HCHCH6CHCHCH4CHSCHCH2NSCHCH2CNH4CH5FeCH2C2SHCHNCH2CHCSFeHS2HFeCHSH3CHSHSH2NCSCH2C3HSH2C4H5
_chemical_formula_sum              "H512 C320 S128 N32 Fe64"
_cell_length_a       23.9353
_cell_length_b       25.7923
_cell_length_c       25.2895
_cell_angle_alpha    86.6965
_cell_angle_beta     90.7653
_cell_angle_gamma    99.1667

_space_group_name_H-M_alt    "P 1"
_space_group_IT_number       1

loop_
  _space_group_symop_operation_xyz
  'x, y, z'

loop_
  _atom_site_type_symbol
  _atom_site_label
  _atom_site_symmetry_multiplicity
  _atom_site_fract_x
  _atom_site_fract_y
  _atom_site_fract_z
  _atom_site_occupancy
  H   H1        1.0  0.37986  0.24747  0.70013  1.0000
  C   C1        1.0  0.49088  0.28139  0.71344  1.0000
  C   C2        1.0  0.41301  0.23147  0.86274  1.0000
  H   H2        1.0  0.55898  0.23864  0.89882  1.0000
  C   C3        1.0  0.41276  0.28033  0.83595  1.0000
  C   C4        1.0  0.69558  0.35503  0.69342  1.0000
  C   C5        1.0  0.46169  0.32377  0.90942  1.0000
  H   H3        1.0  0.40175  0.42253  0.70792  1.0000
  H   H4        1.0  0.39289  0.28241  0.79751  1.0000
  S   S1        1.0  0.43228  0.38678  0.82559  1.0000
  N   N1        1.0  0.62208  0.27684  0.84361  1.0000
  H   H5        1.0  0.61657  0.25219  0.76382  1.0000
  H   H6        1.0  0.47898  0.35950  0.92811  1.0000
  C   C6        1.0  0.26591  0.31421  0.82753  1.0000
  Fe  Fe1       1.0  0.50214  0.45046  0.84748  1.0000
  H   H7        1.0  0.25186  0.40413  0.75225  1.0000
  C   C7        1.0  0.59246  0.32191  0.82984  1.0000
  H   H8        1.0  0.31987  0.21200  0.92562  1.0000
  H   H9        1.0  0.25401  0.38801  0.85753  1.0000
  S   S2        1.0  0.56100  0.47031  0.77918  1.0000
  S   S3        1.0  0.70113  0.43189  0.82045  1.0000
  H   H10       1.0  0.69775  0.31622  0.80482  1.0000
  S   S4        1.0  0.28042  0.21782  0.79701  1.0000
  H   H11       1.0  0.49283  0.27011  0.75637  1.0000
  C   C8        1.0  0.43611  0.32649  0.85948  1.0000
  H   H12       1.0  0.28511  0.48554  0.87243  1.0000
  C   C9        1.0  0.23354  0.34987  0.84593  1.0000
  H   H13       1.0  0.29599  0.46523  0.73430  1.0000
  H   H14       1.0  0.27256  0.32071  0.71434  1.0000
  H   H15       1.0  0.25067  0.22864  0.91884  1.0000
  H   H16       1.0  0.60331  0.35334  0.85828  1.0000
  H   H17       1.0  0.32440  0.41584  0.77446  1.0000
  C   C10       1.0  0.23967  0.26448  0.81386  1.0000
  C   C11       1.0  0.31489  0.34279  0.70278  1.0000
  H   H18       1.0  0.46608  0.31447  0.70907  1.0000
  H   H19       1.0  0.61404  0.28454  0.92716  1.0000
  H   H20       1.0  0.31139  0.32464  0.82604  1.0000
  C   C12       1.0  0.43631  0.22861  0.91344  1.0000
  H   H21       1.0  0.60483  0.34028  0.78982  1.0000
  S   S5        1.0  0.57167  0.44806  0.90786  1.0000
  C   C13       1.0  0.31705  0.50476  0.89857  1.0000
  C   C14       1.0  0.29557  0.42215  0.74048  1.0000
  H   H22       1.0  0.54582  0.31009  0.83051  1.0000
  C   C15       1.0  0.60497  0.25442  0.89707  1.0000
  H   H23       1.0  0.34506  0.33612  0.73535  1.0000
  C   C16       1.0  0.60722  0.23600  0.80489  1.0000
  Fe  Fe2       1.0  0.62992  0.47345  0.83969  1.0000
  C   C17       1.0  0.68381  0.29507  0.84300  1.0000
  H   H24       1.0  0.56157  0.21896  0.80686  1.0000
  H   H25       1.0  0.69678  0.32318  0.87441  1.0000
  H   H26       1.0  0.53473  0.29683  0.69990  1.0000
  N   N2        1.0  0.31298  0.39941  0.69221  1.0000
  C   C18       1.0  0.70178  0.30187  0.69672  1.0000
  H   H27       1.0  0.40818  0.20371  0.74629  1.0000
  H   H28       1.0  0.31031  0.27982  0.92267  1.0000
  H   H29       1.0  0.62830  0.22167  0.90926  1.0000
  C   C19       1.0  0.40746  0.21660  0.70359  1.0000
  H   H30       1.0  0.63170  0.20293  0.81206  1.0000
  C   C20       1.0  0.46180  0.27469  0.93647  1.0000
  H   H31       1.0  0.68478  0.36233  0.09271  1.0000
  N   N3        1.0  0.60163  0.38335  0.09807  1.0000
  C   C21       1.0  0.59302  0.38973  0.04024  1.0000
  H   H32       1.0  0.47896  0.27290  0.97602  1.0000
  Fe  Fe3       1.0  0.23030  0.43026  0.14901  1.0000
  N   N4        1.0  0.28668  0.23717  0.99670  1.0000
  S   S6        1.0  0.35768  0.36992  0.10056  1.0000
  C   C22       1.0  0.62477  0.43487  0.11881  1.0000
  H   H33       1.0  0.38591  0.48105  0.01331  1.0000
  C   C23       1.0  0.50940  0.50647  0.03592  1.0000
  S   S7        1.0  0.26871  0.24392  0.16644  1.0000
  Fe  Fe4       1.0  0.35846  0.43646  0.15383  1.0000
  H   H34       1.0  0.62796  0.30806  0.09138  1.0000
  H   H35       1.0  0.66496  0.45261  0.09861  1.0000
  C   C24       1.0  0.64208  0.34636  0.10913  1.0000
  H   H36       1.0  0.64656  0.33792  0.15244  1.0000
  H   H37       1.0  0.56299  0.41762  0.03039  1.0000
  H   H38       1.0  0.33757  0.26063  0.06437  1.0000
  H   H39       1.0  0.57575  0.35159  0.02321  1.0000
  Fe  Fe5       1.0  0.28229  0.33059  0.14707  1.0000
  Fe  Fe6       1.0  0.29620  0.40903  0.05199  1.0000
  S   S8        1.0  0.44091  0.48106  0.18212  1.0000
  H   H40       1.0  0.63426  0.43098  0.16190  1.0000
  S   S9        1.0  0.30089  0.47843  0.10214  1.0000
  C   C25       1.0  0.34076  0.26079  0.02054  1.0000
  H   H41       1.0  0.35389  0.30221  0.00498  1.0000
  C   C26       1.0  0.37395  0.50223  0.97814  1.0000
  H   H42       1.0  0.23550  0.26498  0.05447  1.0000
  S   S10       1.0  0.54096  0.22516  0.05600  1.0000
  S   S11       1.0  0.22094  0.36449  0.09405  1.0000
  H   H43       1.0  0.63362  0.40536  0.01960  1.0000
  H   H44       1.0  0.51541  0.38926  0.11673  1.0000
  H   H45       1.0  0.52866  0.32329  0.11005  1.0000
  C   C27       1.0  0.48422  0.50707  0.12852  1.0000
  H   H46       1.0  0.55221  0.35728  0.16788  1.0000
  H   H47       1.0  0.25126  0.30854  0.99627  1.0000
  H   H48       1.0  0.44747  0.44862  0.07562  1.0000
  H   H49       1.0  0.37520  0.23838  0.01181  1.0000
  S   S12       1.0  0.29635  0.41539  0.96369  1.0000
  H   H50       1.0  0.59474  0.46346  0.11269  1.0000
  H   H51       1.0  0.21175  0.45838  0.02216  1.0000
  C   C28       1.0  0.54706  0.36244  0.12417  1.0000
  C   C29       1.0  0.24140  0.26654  0.01086  1.0000
  H   H52       1.0  0.50270  0.48908  0.99795  1.0000
  C   C30       1.0  0.47759  0.48383  0.07983  1.0000
  S   S13       1.0  0.69014  0.25711  0.01139  1.0000
  C   C31       1.0  0.29222  0.23953  0.93852  1.0000
  C   C32       1.0  0.33270  0.47760  0.94449  1.0000
  C   C33       1.0  0.33622  0.22931  0.18016  1.0000
  H   H53       1.0  0.36384  0.42336  0.28753  1.0000
  H   H54       1.0  0.56727  0.50156  0.21985  1.0000
  H   H55       1.0  0.25796  0.20437  0.38322  1.0000
  C   C34       1.0  0.41974  0.40940  0.41059  1.0000
  C   C35       1.0  0.53217  0.31430  0.33041  1.0000
  C   C36       1.0  0.44666  0.20870  0.19533  1.0000
  H   H56       1.0  0.67061  0.30508  0.35197  1.0000
  H   H57       1.0  0.28138  0.35013  0.39081  1.0000
  H   H58       1.0  0.53041  0.42200  0.34408  1.0000
  C   C37       1.0  0.50940  0.28796  0.37703  1.0000
  H   H59       1.0  0.50490  0.33069  0.30181  1.0000
  C   C38       1.0  0.34355  0.46405  0.35484  1.0000
  H   H60       1.0  0.61254  0.46092  0.25253  1.0000
  C   C39       1.0  0.56383  0.45667  0.34856  1.0000
  S   S14       1.0  0.30185  0.50330  0.31880  1.0000
  H   H61       1.0  0.46485  0.28523  0.38497  1.0000
  H   H62       1.0  0.33510  0.24572  0.31952  1.0000
  C   C40       1.0  0.57021  0.47314  0.25395  1.0000
  C   C41       1.0  0.69870  0.52903  0.41462  1.0000
  H   H63       1.0  0.36815  0.30597  0.20802  1.0000
  C   C42       1.0  0.32620  0.28407  0.33227  1.0000
  H   H64       1.0  0.24098  0.29112  0.26293  1.0000
  C   C43       1.0  0.43307  0.25707  0.20840  1.0000
  C   C44       1.0  0.37801  0.26775  0.19986  1.0000
  S   S15       1.0  0.28770  0.39343  0.20514  1.0000
  H   H65       1.0  0.23858  0.22416  0.28718  1.0000
  C   C45       1.0  0.25506  0.33465  0.35676  1.0000
  H   H66       1.0  0.62059  0.22063  0.27593  1.0000
  C   C46       1.0  0.23111  0.26362  0.29825  1.0000
  H   H67       1.0  0.43004  0.37384  0.33720  1.0000
  H   H68       1.0  0.35341  0.29487  0.36733  1.0000
  H   H69       1.0  0.65589  0.50834  0.41562  1.0000
  C   C47       1.0  0.59034  0.32067  0.32158  1.0000
  N   N5        1.0  0.56180  0.49654  0.30457  1.0000
  N   N6        1.0  0.26566  0.28172  0.34455  1.0000
  C   C48       1.0  0.60257  0.27182  0.40418  1.0000
  H   H70       1.0  0.33973  0.31398  0.29955  1.0000
  C   C49       1.0  0.25044  0.24473  0.39086  1.0000
  H   H71       1.0  0.40643  0.20900  0.37753  1.0000
  C   C50       1.0  0.36982  0.42767  0.32947  1.0000
  H   H72       1.0  0.26484  0.36340  0.32236  1.0000
  C   C51       1.0  0.62573  0.30030  0.35881  1.0000
  C   C52       1.0  0.54443  0.26603  0.41366  1.0000
  H   H73       1.0  0.55672  0.47256  0.38745  1.0000
  C   C53       1.0  0.40771  0.40002  0.35748  1.0000
  H   H74       1.0  0.53766  0.43793  0.24798  1.0000
  H   H75       1.0  0.33375  0.49993  0.42823  1.0000
  H   H76       1.0  0.62973  0.25407  0.43140  1.0000
  S   S16       1.0  0.61822  0.35370  0.26357  1.0000
  C   C54       1.0  0.35396  0.47177  0.40844  1.0000
  C   C55       1.0  0.50615  0.51446  0.30397  1.0000
  H   H77       1.0  0.60505  0.44187  0.35016  1.0000
  H   H78       1.0  0.47137  0.48166  0.29695  1.0000
  H   H79       1.0  0.46556  0.28684  0.22326  1.0000
  H   H80       1.0  0.20999  0.33421  0.36687  1.0000
  C   C56       1.0  0.39199  0.44432  0.43623  1.0000
  H   H81       1.0  0.64958  0.52946  0.31269  1.0000
  H   H82       1.0  0.49754  0.53129  0.34205  1.0000
  H   H83       1.0  0.27550  0.25754  0.42661  1.0000
  C   C57       1.0  0.24098  0.51409  0.52844  1.0000
  C   C58       1.0  0.66750  0.26610  0.66609  1.0000
  H   H84       1.0  0.36259  0.46415  0.55559  1.0000
  S   S17       1.0  0.23072  0.27137  0.60332  1.0000
  H   H85       1.0  0.33046  0.22774  0.62071  1.0000
  H   H86       1.0  0.38411  0.41065  0.63973  1.0000
  H   H87       1.0  0.32776  0.32465  0.66695  1.0000
  H   H88       1.0  0.50436  0.27055  0.61047  1.0000
  H   H89       1.0  0.54363  0.20641  0.67526  1.0000
  S   S18       1.0  0.64728  0.43882  0.65725  1.0000
  S   S19       1.0  0.51522  0.22825  0.46913  1.0000
  H   H90       1.0  0.26643  0.43893  0.51778  1.0000
  S   S20       1.0  0.66388  0.21962  0.52885  1.0000
  H   H91       1.0  0.67084  0.35412  0.51078  1.0000
  Fe  Fe7       1.0  0.51457  0.44081  0.49888  1.0000
  H   H92       1.0  0.60125  0.25649  0.60725  1.0000
  C   C59       1.0  0.27168  0.40594  0.64938  1.0000
  C   C60       1.0  0.33374  0.49236  0.55232  1.0000
  Fe  Fe8       1.0  0.58695  0.46401  0.59637  1.0000
  C   C61       1.0  0.62816  0.28398  0.63080  1.0000
  S   S21       1.0  0.47368  0.38212  0.44337  1.0000
  H   H93       1.0  0.26766  0.44803  0.64115  1.0000
  H   H94       1.0  0.69783  0.39019  0.45116  1.0000
  N   N7        1.0  0.46503  0.23622  0.68320  1.0000
  C   C62       1.0  0.25705  0.22198  0.57110  1.0000
  H   H95       1.0  0.44590  0.21971  0.60179  1.0000
  S   S22       1.0  0.49385  0.43669  0.58520  1.0000
  Fe  Fe9       1.0  0.48749  0.52210  0.57033  1.0000
  S   S23       1.0  0.60824  0.46029  0.51113  1.0000
  C   C63       1.0  0.62228  0.33734  0.62704  1.0000
  C   C64       1.0  0.36974  0.42667  0.67614  1.0000
  H   H96       1.0  0.40104  0.45106  0.47729  1.0000
  C   C65       1.0  0.65541  0.37265  0.65910  1.0000
  H   H97       1.0  0.59148  0.35097  0.60013  1.0000
  H   H98       1.0  0.43384  0.28338  0.61965  1.0000
  C   C66       1.0  0.46202  0.25322  0.62648  1.0000
  H   H99       1.0  0.22889  0.38429  0.65989  1.0000
  C   C67       1.0  0.27895  0.47789  0.53161  1.0000
  H   H100      1.0  0.28401  0.39009  0.61195  1.0000
  H   H101      1.0  0.36995  0.46948  0.66755  1.0000
  S   S24       1.0  0.50367  0.52494  0.48323  1.0000
  C   C68       1.0  0.30830  0.20781  0.58855  1.0000
  H   H102      1.0  0.55870  0.76680  0.92807  1.0000
  Fe  Fe10      1.0  0.55865  0.55397  0.79434  1.0000
  H   H103      1.0  0.48967  0.83077  0.76131  1.0000
  H   H104      1.0  0.57320  0.78849  0.83303  1.0000
  H   H105      1.0  0.51145  0.70439  0.86291  1.0000
  S   S25       1.0  0.40759  0.64937  0.91364  1.0000
  S   S26       1.0  0.26293  0.68271  0.85175  1.0000
  C   C69       1.0  0.59548  0.74527  0.92795  1.0000
  Fe  Fe11      1.0  0.20758  0.69562  0.91921  1.0000
  C   C70       1.0  0.37452  0.59141  0.72159  1.0000
  N   N8        1.0  0.60115  0.72273  0.87630  1.0000
  C   C71       1.0  0.60864  0.76526  0.83399  1.0000
  H   H106      1.0  0.38054  0.65535  0.80275  1.0000
  N   N9        1.0  0.37908  0.64934  0.71838  1.0000
  C   C72       1.0  0.45260  0.82711  0.73626  1.0000
  S   S27       1.0  0.54094  0.61261  0.73021  1.0000
  C   C73       1.0  0.69879  0.69514  0.72938  1.0000
  H   H107      1.0  0.29411  0.64656  0.74622  1.0000
  H   H108      1.0  0.65954  0.61617  0.75255  1.0000
  C   C74       1.0  0.59117  0.70914  0.69235  1.0000
  C   C75       1.0  0.34005  0.55792  0.88856  1.0000
  H   H109      1.0  0.41149  0.71399  0.76589  1.0000
  H   H110      1.0  0.32344  0.70706  0.71151  1.0000
  H   H111      1.0  0.32569  0.57984  0.85478  1.0000
  S   S28       1.0  0.28263  0.80280  0.75596  1.0000
  H   H112      1.0  0.35231  0.57359  0.75816  1.0000
  H   H113      1.0  0.54187  0.65279  0.89735  1.0000
  C   C76       1.0  0.40616  0.67036  0.76721  1.0000
  H   H114      1.0  0.55307  0.66593  0.82758  1.0000
  Fe  Fe12      1.0  0.28105  0.77076  0.84089  1.0000
  C   C77       1.0  0.38141  0.58240  0.92260  1.0000
  H   H115      1.0  0.44877  0.65883  0.77321  1.0000
  H   H116      1.0  0.64667  0.66301  0.90940  1.0000
  H   H117      1.0  0.39516  0.82148  0.80126  1.0000
  Fe  Fe13      1.0  0.33439  0.69303  0.90997  1.0000
  C   C78       1.0  0.69037  0.74324  0.70495  1.0000
  C   C79       1.0  0.54968  0.68485  0.86554  1.0000
  S   S29       1.0  0.21972  0.78305  0.90399  1.0000
  S   S30       1.0  0.35537  0.78001  0.89669  1.0000
  S   S31       1.0  0.63353  0.55948  0.84902  1.0000
  C   C80       1.0  0.39881  0.82025  0.75911  1.0000
  C   C81       1.0  0.35031  0.81325  0.72734  1.0000
  H   H118      1.0  0.41712  0.57907  0.72183  1.0000
  C   C82       1.0  0.65325  0.65372  0.73469  1.0000
  C   C83       1.0  0.32187  0.66376  0.71268  1.0000
  C   C84       1.0  0.65099  0.69544  0.87792  1.0000
  H   H119      1.0  0.61069  0.74931  0.79433  1.0000
  C   C85       1.0  0.59929  0.66121  0.71731  1.0000
  H   H120      1.0  0.65658  0.67803  0.83960  1.0000
  H   H121      1.0  0.64859  0.79319  0.83927  1.0000
  H   H122      1.0  0.69060  0.72291  0.88587  1.0000
  S   S32       1.0  0.49482  0.53468  0.85899  1.0000
  H   H123      1.0  0.35085  0.57399  0.68708  1.0000
  Fe  Fe14      1.0  0.56981  0.53466  0.91334  1.0000
  S   S33       1.0  0.30906  0.82850  0.03372  1.0000
  H   H124      1.0  0.32039  0.66990  0.09846  1.0000
  H   H125      1.0  0.43184  0.58735  0.08207  1.0000
  H   H126      1.0  0.58920  0.71389  0.96055  1.0000
  C   C86       1.0  0.54811  0.55253  0.04062  1.0000
  H   H127      1.0  0.63181  0.72059  0.13776  1.0000
  S   S34       1.0  0.58537  0.58262  0.98512  1.0000
  H   H128      1.0  0.24122  0.54066  0.97074  1.0000
  H   H129      1.0  0.45237  0.65419  0.17639  1.0000
  Fe  Fe15      1.0  0.29276  0.78364  0.96056  1.0000
  C   C87       1.0  0.59249  0.77764  0.17674  1.0000
  H   H130      1.0  0.52885  0.57132  0.17098  1.0000
  C   C88       1.0  0.45825  0.67452  0.13646  1.0000
  H   H131      1.0  0.49037  0.82587  0.12821  1.0000
  H   H132      1.0  0.38421  0.67410  0.02111  1.0000
  H   H133      1.0  0.38755  0.58255  0.13926  1.0000
  H   H134      1.0  0.34748  0.66097  0.16413  1.0000
  C   C89       1.0  0.42035  0.68501  0.04841  1.0000
  H   H135      1.0  0.42879  0.72867  0.04863  1.0000
  C   C90       1.0  0.35850  0.67930  0.12399  1.0000
  H   H136      1.0  0.49684  0.66292  0.11951  1.0000
  H   H137      1.0  0.43239  0.57279  0.99178  1.0000
  H   H138      1.0  0.58622  0.61094  0.09342  1.0000
  S   S35       1.0  0.27756  0.69688  0.97849  1.0000
  C   C91       1.0  0.39956  0.55411  0.96636  1.0000
  C   C92       1.0  0.55599  0.57533  0.08966  1.0000
  N   N10       1.0  0.40823  0.66049  0.10215  1.0000
  C   C93       1.0  0.45006  0.83044  0.14762  1.0000
  S   S36       1.0  0.61986  0.83058  0.13413  1.0000
  C   C94       1.0  0.39581  0.60276  0.09929  1.0000
  H   H139      1.0  0.35824  0.59071  0.07384  1.0000
  H   H140      1.0  0.46733  0.71750  0.14187  1.0000
  H   H141      1.0  0.36588  0.72256  0.12755  1.0000
  H   H142      1.0  0.41448  0.80886  0.12496  1.0000
  H   H143      1.0  0.45768  0.67169  0.03069  1.0000
  C   C95       1.0  0.52404  0.55259  0.13363  1.0000
  C   C96       1.0  0.60639  0.72759  0.17094  1.0000
  H   H144      1.0  0.62910  0.85340  0.97304  1.0000
  H   H145      1.0  0.35490  0.86402  0.16386  1.0000
  H   H146      1.0  0.69911  0.82576  0.04683  1.0000
  H   H147      1.0  0.63406  0.77340  0.93735  1.0000
  H   H148      1.0  0.67501  0.76071  0.25994  1.0000
  C   C97       1.0  0.60709  0.54173  0.31154  1.0000
  H   H149      1.0  0.27607  0.84798  0.43284  1.0000
  C   C98       1.0  0.55968  0.69756  0.25418  1.0000
  H   H150      1.0  0.25183  0.64923  0.23893  1.0000
  H   H151      1.0  0.60715  0.57189  0.27831  1.0000
  C   C99       1.0  0.54387  0.74683  0.25838  1.0000
  H   H152      1.0  0.60226  0.64905  0.20663  1.0000
  S   S37       1.0  0.29378  0.65189  0.35761  1.0000
  H   H153      1.0  0.22360  0.80562  0.19113  1.0000
  Fe  Fe16      1.0  0.36908  0.67439  0.41039  1.0000
  S   S38       1.0  0.40940  0.60429  0.39402  1.0000
  C   C100      1.0  0.22383  0.67595  0.22440  1.0000
  S   S39       1.0  0.41892  0.72745  0.34876  1.0000
  S   S40       1.0  0.38569  0.63203  0.26912  1.0000
  H   H154      1.0  0.69752  0.76800  0.37662  1.0000
  Fe  Fe17      1.0  0.45356  0.65535  0.32835  1.0000
  H   H155      1.0  0.60133  0.56123  0.34888  1.0000
  S   S41       1.0  0.54211  0.64982  0.30510  1.0000
  Fe  Fe18      1.0  0.34705  0.69979  0.29426  1.0000
  S   S42       1.0  0.31430  0.75463  0.23364  1.0000
  C   C101      1.0  0.24420  0.72976  0.21674  1.0000
  C   C102      1.0  0.59030  0.68742  0.21014  1.0000
  Fe  Fe19      1.0  0.33838  0.58583  0.33615  1.0000
  H   H156      1.0  0.34027  0.78259  0.42343  1.0000
  H   H157      1.0  0.21219  0.81573  0.36412  1.0000
  H   H158      1.0  0.54902  0.82510  0.22393  1.0000
  C   C103      1.0  0.69386  0.72874  0.35961  1.0000
  H   H159      1.0  0.52104  0.75504  0.29261  1.0000
  C   C104      1.0  0.56048  0.78682  0.21983  1.0000
  H   H160      1.0  0.64891  0.71718  0.34730  1.0000
  H   H161      1.0  0.68094  0.66493  0.27957  1.0000
  H   H162      1.0  0.50323  0.54505  0.27165  1.0000
  H   H163      1.0  0.22110  0.76012  0.32743  1.0000
  H   H164      1.0  0.70276  0.69979  0.39170  1.0000
  C   C105      1.0  0.20783  0.76399  0.19733  1.0000
  H   H165      1.0  0.44939  0.81108  0.18819  1.0000
  C   C106      1.0  0.31208  0.57853  0.56769  1.0000
  C   C107      1.0  0.31568  0.78172  0.45915  1.0000
  C   C108      1.0  0.50775  0.75258  0.55425  1.0000
  H   H166      1.0  0.41410  0.81997  0.60676  1.0000
  C   C109      1.0  0.28889  0.74308  0.54654  1.0000
  C   C110      1.0  0.59671  0.72432  0.53646  1.0000
  H   H167      1.0  0.39338  0.65950  0.63428  1.0000
  H   H168      1.0  0.53041  0.63349  0.51663  1.0000
  C   C111      1.0  0.35038  0.54275  0.57040  1.0000
  C   C112      1.0  0.52721  0.72747  0.46667  1.0000
  S   S43       1.0  0.36470  0.69714  0.49408  1.0000
  H   H169      1.0  0.54719  0.70053  0.44266  1.0000
  C   C113      1.0  0.24640  0.81660  0.51009  1.0000
  H   H170      1.0  0.29242  0.71371  0.57822  1.0000
  H   H171      1.0  0.45584  0.65858  0.67327  1.0000
  S   S44       1.0  0.41715  0.56060  0.59999  1.0000
  H   H172      1.0  0.61678  0.76573  0.52708  1.0000
  H   H173      1.0  0.63038  0.78756  0.66718  1.0000
  C   C114      1.0  0.41383  0.67180  0.67218  1.0000
  H   H174      1.0  0.54542  0.76868  0.45409  1.0000
  H   H175      1.0  0.46161  0.74812  0.54567  1.0000
  S   S45       1.0  0.52572  0.84097  0.65265  1.0000
  H   H176      1.0  0.52605  0.79449  0.54490  1.0000
  H   H177      1.0  0.22911  0.59295  0.54335  1.0000
  H   H178      1.0  0.32440  0.61766  0.58107  1.0000
  H   H179      1.0  0.46419  0.65408  0.52985  1.0000
  C   C115      1.0  0.32035  0.74394  0.50024  1.0000
  H   H180      1.0  0.51561  0.65175  0.58183  1.0000
  C   C116      1.0  0.25798  0.56459  0.54602  1.0000
  S   S46       1.0  0.65717  0.60799  0.46145  1.0000
  C   C117      1.0  0.51041  0.66162  0.53875  1.0000
  H   H181      1.0  0.61902  0.69804  0.51382  1.0000
  H   H182      1.0  0.60425  0.71524  0.57928  1.0000
  H   H183      1.0  0.48137  0.72181  0.45630  1.0000
  C   C118      1.0  0.25106  0.77874  0.55103  1.0000
  H   H184      1.0  0.22517  0.77660  0.58604  1.0000
  H   H185      1.0  0.51260  0.74487  0.59760  1.0000
  N   N11       1.0  0.53553  0.71655  0.52402  1.0000
  C   C119      1.0  0.27952  0.81881  0.46457  1.0000
  S   S47       1.0  0.57892  0.54945  0.58944  1.0000
  H   H186      1.0  0.31863  0.80701  0.64744  1.0000
  Fe  Fe20      1.0  0.59542  0.54456  0.50323  1.0000
  C   C120      1.0  0.35594  0.81312  0.67228  1.0000
  C   C121      1.0  0.40991  0.82015  0.64930  1.0000
  H   H187      1.0  0.30097  0.64963  0.67540  1.0000
  C   C122      1.0  0.63688  0.75003  0.68567  1.0000
  H   H188      1.0  0.54935  0.71543  0.67980  1.0000
  H   H189      1.0  0.64409  0.83767  0.44359  1.0000
  H   H190      1.0  0.42110  0.71545  0.67063  1.0000
  C   C123      1.0  0.45834  0.82821  0.68134  1.0000
  H   H191      1.0  0.22457  0.84515  0.65226  1.0000
  S   S48       1.0  0.25771  0.96680  0.77626  1.0000
  C   C124      1.0  0.32736  0.99438  0.75920  1.0000
  H   H192      1.0  0.65968  0.00530  0.89025  1.0000
  S   S49       1.0  0.27900  0.08023  0.86629  1.0000
  C   C125      1.0  0.36776  0.96185  0.75178  1.0000
  C   C126      1.0  0.38960  0.96682  0.89155  1.0000
  S   S50       1.0  0.66470  0.02022  0.76880  1.0000
  C   C127      1.0  0.42494  0.98378  0.74470  1.0000
  H   H193      1.0  0.47105  0.04183  0.85063  1.0000
  H   H194      1.0  0.35129  0.98176  0.87531  1.0000
  Fe  Fe21      1.0  0.57511  0.00943  0.73887  1.0000
  S   S51       1.0  0.55549  0.92720  0.77425  1.0000
  S   S52       1.0  0.67254  0.90478  0.72114  1.0000
  S   S53       1.0  0.67433  0.89856  0.87363  1.0000
  C   C128      1.0  0.40086  0.07072  0.75017  1.0000
  Fe  Fe22      1.0  0.64683  0.93505  0.79674  1.0000
  H   H195      1.0  0.37517  0.93123  0.91772  1.0000
  H   H196      1.0  0.31250  0.07452  0.76006  1.0000
  H   H197      1.0  0.35509  0.91965  0.75345  1.0000
  H   H198      1.0  0.39260  0.19599  0.84515  1.0000
  C   C129      1.0  0.64675  0.92669  0.92657  1.0000
  Fe  Fe23      1.0  0.21879  0.02593  0.81852  1.0000
  H   H199      1.0  0.41349  0.11265  0.75104  1.0000
  H   H200      1.0  0.41214  0.95402  0.85760  1.0000
  C   C130      1.0  0.64375  0.98046  0.92441  1.0000
  H   H201      1.0  0.47418  0.08447  0.90409  1.0000
  N   N12       1.0  0.42654  0.00738  0.92036  1.0000
  H   H202      1.0  0.45581  0.95830  0.74000  1.0000
  H   H203      1.0  0.50126  0.97242  0.90997  1.0000
  C   C131      1.0  0.44180  0.03826  0.74524  1.0000
  Fe  Fe24      1.0  0.58221  0.90354  0.69578  1.0000
  C   C132      1.0  0.34374  0.04895  0.75647  1.0000
  Fe  Fe25      1.0  0.21220  0.06668  0.92835  1.0000
  Fe  Fe26      1.0  0.23267  0.14210  0.83031  1.0000
  C   C133      1.0  0.44621  0.05310  0.88370  1.0000
  H   H204      1.0  0.41009  0.07081  0.86641  1.0000
  S   S54       1.0  0.51365  0.06672  0.74421  1.0000
  H   H205      1.0  0.50252  0.17937  0.73174  1.0000
  C   C134      1.0  0.49967  0.19359  0.68959  1.0000
  Fe  Fe27      1.0  0.68726  0.98965  0.69163  1.0000
  H   H206      1.0  0.24992  0.97860  0.93529  1.0000
  H   H207      1.0  0.28935  0.89969  0.11206  1.0000
  H   H208      1.0  0.41514  0.13291  0.16553  1.0000
  H   H209      1.0  0.42161  0.05490  0.98667  1.0000
  C   C135      1.0  0.26458  0.96677  0.06913  1.0000
  H   H210      1.0  0.26045  0.98771  0.10441  1.0000
  S   S55       1.0  0.22987  0.05012  0.01402  1.0000
  C   C136      1.0  0.44011  0.90937  0.09500  1.0000
  C   C137      1.0  0.27234  0.18187  0.01694  1.0000
  Fe  Fe28      1.0  0.49436  0.16081  0.01010  1.0000
  H   H211      1.0  0.43845  0.95229  0.09480  1.0000
  S   S56       1.0  0.42786  0.16759  0.94883  1.0000
  S   S57       1.0  0.48137  0.10417  0.08063  1.0000
  C   C138      1.0  0.39482  0.02428  0.96429  1.0000
  C   C139      1.0  0.49422  0.91519  0.17590  1.0000
  S   S58       1.0  0.61693  0.13916  0.10733  1.0000
  H   H212      1.0  0.35757  0.04177  0.94949  1.0000
  C   C140      1.0  0.34938  0.18040  0.16860  1.0000
  C   C141      1.0  0.28627  0.88960  0.02802  1.0000
  S   S59       1.0  0.57259  0.13351  0.98332  1.0000
  H   H213      1.0  0.58426  0.89121  0.04586  1.0000
  H   H214      1.0  0.46327  0.95122  0.97032  1.0000
  S   S60       1.0  0.56277  0.99429  0.06109  1.0000
  N   N13       1.0  0.44418  0.88640  0.14951  1.0000
  H   H215      1.0  0.30497  0.15816  0.00561  1.0000
  C   C142      1.0  0.47604  0.98551  0.94194  1.0000
  H   H216      1.0  0.26966  0.17876  0.06092  1.0000
  C   C143      1.0  0.62058  0.00228  0.96692  1.0000
  H   H217      1.0  0.53418  0.91077  0.15570  1.0000
  H   H218      1.0  0.40160  0.89053  0.07461  1.0000
  H   H219      1.0  0.61901  0.04381  0.96541  1.0000
  C   C144      1.0  0.27394  0.91151  0.97832  1.0000
  H   H220      1.0  0.23112  0.16309  0.00083  1.0000
  C   C145      1.0  0.28136  0.91709  0.07341  1.0000
  H   H221      1.0  0.50465  0.01552  0.96351  1.0000
  C   C146      1.0  0.25774  0.96139  0.97397  1.0000
  H   H222      1.0  0.37936  0.99085  0.99288  1.0000
  Fe  Fe29      1.0  0.53542  0.16642  0.12491  1.0000
  H   H223      1.0  0.47730  0.90431  0.07102  1.0000
  C   C147      1.0  0.62672  0.89485  0.97101  1.0000
  C   C148      1.0  0.25263  0.98891  0.01938  1.0000
  Fe  Fe30      1.0  0.56334  0.08098  0.05737  1.0000
  C   C149      1.0  0.59842  0.96992  0.01045  1.0000
  C   C150      1.0  0.60161  0.91628  0.01240  1.0000
  H   H224      1.0  0.31723  0.15071  0.15310  1.0000
  Fe  Fe31      1.0  0.61890  0.19379  0.03501  1.0000
  H   H225      1.0  0.27762  0.89039  0.94311  1.0000
  C   C151      1.0  0.40493  0.17053  0.17516  1.0000
  H   H226      1.0  0.38245  0.93109  0.17630  1.0000
  S   S61       1.0  0.65679  0.98086  0.16072  1.0000
  C   C152      1.0  0.39230  0.89037  0.17911  1.0000
  H   H227      1.0  0.49273  0.95810  0.17485  1.0000
  H   H228      1.0  0.70563  0.15671  0.97105  1.0000
  Fe  Fe32      1.0  0.65265  0.89620  0.18645  1.0000
  H   H229      1.0  0.39610  0.87842  0.22187  1.0000
  C   C153      1.0  0.38187  0.98003  0.27338  1.0000
  Fe  Fe33      1.0  0.63198  0.99247  0.24369  1.0000
  C   C154      1.0  0.42059  0.95763  0.30598  1.0000
  N   N14       1.0  0.42271  0.13400  0.35489  1.0000
  H   H230      1.0  0.43652  0.05415  0.35219  1.0000
  H   H231      1.0  0.50126  0.12974  0.31668  1.0000
  H   H232      1.0  0.50894  0.95931  0.32666  1.0000
  C   C155      1.0  0.47906  0.97603  0.30099  1.0000
  S   S62       1.0  0.30904  0.95615  0.27641  1.0000
  Fe  Fe34      1.0  0.26553  0.97353  0.35008  1.0000
  H   H233      1.0  0.41003  0.11436  0.27408  1.0000
  H   H234      1.0  0.40548  0.92598  0.33477  1.0000
  S   S63       1.0  0.30107  0.96331  0.43145  1.0000
  C   C156      1.0  0.38978  0.13352  0.30510  1.0000
  H   H235      1.0  0.37429  0.06232  0.38751  1.0000
  C   C157      1.0  0.49845  0.01749  0.26417  1.0000
  H   H236      1.0  0.41996  0.16506  0.43169  1.0000
  C   C158      1.0  0.45972  0.03912  0.23134  1.0000
  H   H237      1.0  0.34601  0.11202  0.31044  1.0000
  H   H238      1.0  0.37215  0.03633  0.20904  1.0000
  H   H239      1.0  0.48728  0.19512  0.32313  1.0000
  C   C159      1.0  0.41885  0.08001  0.37890  1.0000
  H   H240      1.0  0.69461  0.13732  0.36931  1.0000
  C   C160      1.0  0.48262  0.15523  0.34343  1.0000
  S   S64       1.0  0.24339  0.05334  0.36279  1.0000
  S   S65       1.0  0.56998  0.04594  0.26090  1.0000
  S   S66       1.0  0.62084  0.90690  0.26754  1.0000
  H   H241      1.0  0.68447  0.19472  0.20860  1.0000
  C   C161      1.0  0.40174  0.01975  0.23516  1.0000
  H   H242      1.0  0.35339  0.15459  0.39780  1.0000
  H   H243      1.0  0.49729  0.90122  0.21809  1.0000
  H   H244      1.0  0.38714  0.17408  0.28917  1.0000
  H   H245      1.0  0.66447  0.09322  0.32078  1.0000
  H   H246      1.0  0.44291  0.07947  0.41689  1.0000
  H   H247      1.0  0.47475  0.07104  0.20284  1.0000
  H   H248      1.0  0.66331  0.12609  0.22581  1.0000
  H   H249      1.0  0.50846  0.15794  0.38035  1.0000
  H   H250      1.0  0.59650  0.15179  0.28658  1.0000
  C   C162      1.0  0.39958  0.16721  0.39198  1.0000
  C   C163      1.0  0.69663  0.12855  0.32704  1.0000
  N   N15       1.0  0.68662  0.17389  0.29180  1.0000
  C   C164      1.0  0.69050  0.91205  0.41433  1.0000
  C   C165      1.0  0.62857  0.18468  0.29954  1.0000
  S   S67       1.0  0.51597  0.19644  0.20245  1.0000
  C   C166      1.0  0.69718  0.96671  0.41681  1.0000
  C   C167      1.0  0.69337  0.16175  0.23613  1.0000
  H   H251      1.0  0.62035  0.19003  0.34182  1.0000
  S   S68       1.0  0.56308  0.12571  0.57265  1.0000
  Fe  Fe35      1.0  0.57940  0.18116  0.50143  1.0000
  H   H252      1.0  0.44145  0.93599  0.64689  1.0000
  H   H253      1.0  0.58230  0.87803  0.50224  1.0000
  H   H254      1.0  0.46432  0.03014  0.52984  1.0000
  H   H255      1.0  0.34827  0.02426  0.58200  1.0000
  S   S69       1.0  0.69320  0.10243  0.55802  1.0000
  H   H256      1.0  0.47760  0.92718  0.58718  1.0000
  H   H257      1.0  0.48896  0.98974  0.61591  1.0000
  H   H258      1.0  0.21393  0.90582  0.61788  1.0000
  H   H259      1.0  0.45017  0.96700  0.50219  1.0000
  S   S70       1.0  0.59892  0.98595  0.65961  1.0000
  C   C168      1.0  0.38378  0.01074  0.60488  1.0000
  Fe  Fe36      1.0  0.60683  0.07186  0.52655  1.0000
  C   C169      1.0  0.45613  0.95536  0.60807  1.0000
  C   C170      1.0  0.43084  0.99546  0.52472  1.0000
  C   C171      1.0  0.64979  0.87989  0.44586  1.0000
  H   H260      1.0  0.32901  0.93627  0.54461  1.0000
  S   S71       1.0  0.57482  0.98584  0.51951  1.0000
  H   H261      1.0  0.22764  0.13632  0.47277  1.0000
  H   H262      1.0  0.34841  0.90644  0.60644  1.0000
  H   H263      1.0  0.66855  0.03153  0.45234  1.0000
  N   N16       1.0  0.40896  0.97167  0.57641  1.0000
  C   C172      1.0  0.36544  0.92531  0.56808  1.0000
  S   S72       1.0  0.61565  0.12512  0.45292  1.0000
  C   C173      1.0  0.61462  0.90265  0.47866  1.0000
  H   H264      1.0  0.38300  0.89509  0.54654  1.0000
  Fe  Fe37      1.0  0.65041  0.16120  0.59772  1.0000
  H   H265      1.0  0.39679  0.00893  0.49988  1.0000
  S   S73       1.0  0.33236  0.09413  0.49328  1.0000
  H   H266      1.0  0.41562  0.04608  0.61219  1.0000
  H   H267      1.0  0.36663  0.99399  0.64390  1.0000
  C   C174      1.0  0.25029  0.15648  0.50486  1.0000
  C   C175      1.0  0.62084  0.95746  0.48064  1.0000
  C   C176      1.0  0.30196  0.14271  0.52262  1.0000
  H   H268      1.0  0.48154  0.15887  0.66713  1.0000
  C   C177      1.0  0.66292  0.98934  0.45044  1.0000
  H   H269      1.0  0.38651  0.18227  0.68201  1.0000
  C   C178      1.0  0.33087  0.16845  0.56430  1.0000
  C   C179      1.0  0.21044  0.88366  0.65706  1.0000
  C   C180      1.0  0.22802  0.19666  0.52886  1.0000
  Fe  Fe38      1.0  0.27249  0.03959  0.44627  1.0000
  H   H270      1.0  0.37039  0.15727  0.57815  1.0000
  Fe  Fe39      1.0  0.21340  0.92689  0.45542  1.0000
  Fe  Fe40      1.0  0.69968  0.15890  0.48703  1.0000
  S   S74       1.0  0.67203  0.19897  0.67454  1.0000
  H   H271      1.0  0.24101  0.90547  0.68465  1.0000
  N   N17       1.0  0.99386  0.22766  0.74039  1.0000
  C   C181      1.0  0.82048  0.21497  0.89917  1.0000
  C   C182      1.0  0.84596  0.52981  0.73158  1.0000
  Fe  Fe41      1.0  0.05820  0.33578  0.91327  1.0000
  H   H272      1.0  0.10164  0.47675  0.92241  1.0000
  H   H273      1.0  0.88563  0.39513  0.87382  1.0000
  C   C183      1.0  0.18100  0.25036  0.81838  1.0000
  H   H274      1.0  0.92846  0.26662  0.70468  1.0000
  C   C184      1.0  0.14865  0.28599  0.83714  1.0000
  H   H275      1.0  0.90335  0.21133  0.74942  1.0000
  H   H276      1.0  0.72161  0.38247  0.71790  1.0000
  H   H277      1.0  0.93625  0.27202  0.77508  1.0000
  C   C185      1.0  0.75899  0.46127  0.91169  1.0000
  H   H278      1.0  0.03156  0.29603  0.69318  1.0000
  S   S75       1.0  0.13529  0.38022  0.87414  1.0000
  H   H279      1.0  0.84900  0.29840  0.89112  1.0000
  H   H280      1.0  0.73287  0.28829  0.72333  1.0000
  Fe  Fe42      1.0  0.94705  0.26123  0.91000  1.0000
  H   H281      1.0  0.16065  0.21188  0.80766  1.0000
  H   H282      1.0  0.03928  0.30189  0.76343  1.0000
  C   C186      1.0  0.81745  0.26738  0.90790  1.0000
  C   C187      1.0  0.85046  0.41296  0.88502  1.0000
  C   C188      1.0  0.75811  0.43532  0.86450  1.0000
  H   H283      1.0  0.80343  0.39165  0.81453  1.0000
  H   H284      1.0  0.08124  0.26230  0.72969  1.0000
  C   C189      1.0  0.93806  0.24519  0.74239  1.0000
  H   H285      1.0  0.20262  0.51281  0.91496  1.0000
  H   H286      1.0  0.70795  0.26177  0.84932  1.0000
  H   H287      1.0  0.10341  0.27513  0.84098  1.0000
  C   C190      1.0  0.17507  0.33576  0.85068  1.0000
  H   H288      1.0  0.72348  0.47984  0.92208  1.0000
  C   C191      1.0  0.74807  0.52794  0.70634  1.0000
  H   H289      1.0  0.73669  0.48970  0.72915  1.0000
  C   C192      1.0  0.80389  0.41147  0.85115  1.0000
  C   C193      1.0  0.85161  0.43773  0.93270  1.0000
  H   H290      1.0  0.85666  0.51816  0.69175  1.0000
  S   S76       1.0  0.97422  0.34406  0.87769  1.0000
  C   C194      1.0  0.03846  0.27397  0.73130  1.0000
  H   H291      1.0  0.83555  0.49322  0.75757  1.0000
  H   H292      1.0  0.00423  0.22499  0.82500  1.0000
  H   H293      1.0  0.11895  0.51514  0.06253  1.0000
  Fe  Fe43      1.0  0.95382  0.36867  0.95798  1.0000
  C   C195      1.0  0.05055  0.39216  0.13920  1.0000
  S   S77       1.0  0.03961  0.36431  0.99167  1.0000
  H   H294      1.0  0.98489  0.34360  0.09748  1.0000
  S   S78       1.0  0.14759  0.45340  0.17062  1.0000
  C   C196      1.0  0.73687  0.24009  0.96521  1.0000
  C   C197      1.0  0.04496  0.29791  0.13294  1.0000
  S   S79       1.0  0.78604  0.48100  0.10897  1.0000
  H   H295      1.0  0.01946  0.51712  0.09925  1.0000
  S   S80       1.0  0.90985  0.43666  0.97546  1.0000
  H   H296      1.0  0.95054  0.48193  0.08375  1.0000
  C   C198      1.0  0.16947  0.45440  0.00304  1.0000
  H   H297      1.0  0.82208  0.26865  0.06270  1.0000
  C   C199      1.0  0.80598  0.46248  0.94593  1.0000
  C   C200      1.0  0.09237  0.29858  0.16590  1.0000
  H   H298      1.0  0.11005  0.26296  0.17453  1.0000
  C   C201      1.0  0.12073  0.34660  0.18291  1.0000
  C   C202      1.0  0.84222  0.25423  0.09951  1.0000
  C   C203      1.0  0.10153  0.39366  0.16699  1.0000
  C   C204      1.0  0.02229  0.34419  0.12206  1.0000
  C   C205      1.0  0.09995  0.49964  0.95830  1.0000
  N   N18       1.0  0.15479  0.50644  0.98666  1.0000
  H   H299      1.0  0.80633  0.48145  0.98302  1.0000
  H   H300      1.0  0.13850  0.43234  0.03189  1.0000
  H   H301      1.0  0.03538  0.42825  0.12708  1.0000
  H   H302      1.0  0.88785  0.27183  0.09921  1.0000
  S   S81       1.0  0.02211  0.24316  0.09578  1.0000
  S   S82       1.0  0.92070  0.28672  0.98790  1.0000
  H   H303      1.0  0.06556  0.47791  0.98369  1.0000
  Fe  Fe44      1.0  0.00791  0.27988  0.01503  1.0000
  H   H304      1.0  0.17133  0.42980  0.96854  1.0000
  H   H305      1.0  0.82299  0.27027  0.13361  1.0000
  C   C206      1.0  0.77666  0.27988  0.94183  1.0000
  H   H306      1.0  0.20009  0.25020  0.99288  1.0000
  H   H307      1.0  0.99683  0.50962  0.03129  1.0000
  C   C207      1.0  0.98287  0.51657  0.07159  1.0000
  H   H308      1.0  0.77692  0.32050  0.95082  1.0000
  H   H309      1.0  0.87817  0.52846  0.04420  1.0000
  S   S83       1.0  0.03374  0.25012  0.93897  1.0000
  H   H310      1.0  0.12909  0.40724  0.28633  1.0000
  H   H311      1.0  0.73169  0.46733  0.37715  1.0000
  H   H312      1.0  0.06690  0.47339  0.39261  1.0000
  C   C208      1.0  0.74154  0.50600  0.39256  1.0000
  S   S84       1.0  0.75808  0.35439  0.19677  1.0000
  C   C209      1.0  0.17248  0.45707  0.37167  1.0000
  C   C210      1.0  0.93401  0.27891  0.27945  1.0000
  S   S85       1.0  0.87007  0.27591  0.24468  1.0000
  H   H313      1.0  0.00119  0.33041  0.38821  1.0000
  H   H314      1.0  0.15137  0.43107  0.40441  1.0000
  H   H315      1.0  0.18511  0.26089  0.30599  1.0000
  C   C211      1.0  0.03519  0.27966  0.33663  1.0000
  H   H316      1.0  0.88155  0.25897  0.41965  1.0000
  H   H317      1.0  0.05719  0.22890  0.27818  1.0000
  S   S86       1.0  0.85135  0.50304  0.36622  1.0000
  C   C212      1.0  0.02551  0.25078  0.29142  1.0000
  S   S87       1.0  0.78006  0.36161  0.32451  1.0000
  S   S88       1.0  0.09836  0.27823  0.37198  1.0000
  S   S89       1.0  0.74404  0.46172  0.25401  1.0000
  H   H318      1.0  0.07727  0.39882  0.33793  1.0000
  Fe  Fe45      1.0  0.81676  0.44625  0.30573  1.0000
  H   H319      1.0  0.96761  0.22753  0.22828  1.0000
  H   H320      1.0  0.72332  0.23099  0.34605  1.0000
  H   H321      1.0  0.15989  0.34752  0.20487  1.0000
  C   C213      1.0  0.99427  0.30834  0.35322  1.0000
  Fe  Fe46      1.0  0.71201  0.37602  0.26594  1.0000
  C   C214      1.0  0.97472  0.24991  0.26323  1.0000
  C   C215      1.0  0.16064  0.51125  0.29261  1.0000
  Fe  Fe47      1.0  0.82900  0.34680  0.25334  1.0000
  N   N19       1.0  0.13086  0.47419  0.33357  1.0000
  S   S90       1.0  0.87033  0.43062  0.23791  1.0000
  H   H322      1.0  0.91243  0.33090  0.33691  1.0000
  H   H323      1.0  0.72223  0.25540  0.27803  1.0000
  C   C216      1.0  0.09067  0.50056  0.36191  1.0000
  C   C217      1.0  0.94397  0.30861  0.32415  1.0000
  C   C218      1.0  0.09984  0.42782  0.30819  1.0000
  H   H324      1.0  0.77222  0.21346  0.30003  1.0000
  C   C219      1.0  0.72787  0.22056  0.30439  1.0000
  H   H325      1.0  0.06811  0.43913  0.27894  1.0000
  H   H326      1.0  0.05917  0.51492  0.33428  1.0000
  H   H327      1.0  0.19152  0.49252  0.27076  1.0000
  H   H328      1.0  0.20215  0.43529  0.35211  1.0000
  H   H329      1.0  0.19858  0.49123  0.38994  1.0000
  H   H330      1.0  0.20493  0.24200  0.40118  1.0000
  C   C220      1.0  0.79722  0.53260  0.39154  1.0000
  H   H331      1.0  0.13065  0.52448  0.26271  1.0000
  Fe  Fe48      1.0  0.79420  0.43934  0.18766  1.0000
  H   H332      1.0  0.94525  0.20402  0.39093  1.0000
  C   C221      1.0  0.91704  0.27850  0.49620  1.0000
  H   H333      1.0  0.18819  0.20740  0.51533  1.0000
  S   S91       1.0  0.05702  0.37610  0.47666  1.0000
  H   H334      1.0  0.81180  0.35097  0.57344  1.0000
  H   H335      1.0  0.95368  0.30381  0.47988  1.0000
  C   C222      1.0  0.82160  0.21306  0.53772  1.0000
  Fe  Fe49      1.0  0.16380  0.30473  0.55690  1.0000
  C   C223      1.0  0.80823  0.38525  0.47195  1.0000
  C   C224      1.0  0.75842  0.42991  0.53328  1.0000
  S   S92       1.0  0.18719  0.35111  0.48104  1.0000
  S   S93       1.0  0.12164  0.36661  0.59107  1.0000
  S   S94       1.0  0.95971  0.30446  0.59414  1.0000
  H   H336      1.0  0.73670  0.33473  0.58320  1.0000
  C   C225      1.0  0.86149  0.23970  0.57182  1.0000
  Fe  Fe50      1.0  0.10313  0.31283  0.45123  1.0000
  H   H337      1.0  0.75517  0.51872  0.66478  1.0000
  H   H338      1.0  0.81157  0.34738  0.45406  1.0000
  H   H339      1.0  0.77094  0.30049  0.53697  1.0000
  H   H340      1.0  0.98596  0.21213  0.65779  1.0000
  S   S95       1.0  0.17172  0.49694  0.50402  1.0000
  C   C226      1.0  0.77059  0.33969  0.55286  1.0000
  Fe  Fe51      1.0  0.04285  0.32649  0.55252  1.0000
  C   C227      1.0  0.82900  0.21957  0.48282  1.0000
  Fe  Fe52      1.0  0.13978  0.41051  0.51260  1.0000
  C   C228      1.0  0.90946  0.27218  0.55112  1.0000
  N   N20       1.0  0.76110  0.37899  0.51020  1.0000
  C   C229      1.0  0.87648  0.25274  0.46208  1.0000
  H   H341      1.0  0.85526  0.23463  0.61424  1.0000
  H   H342      1.0  0.80257  0.41458  0.43908  1.0000
  H   H343      1.0  0.72306  0.42647  0.56218  1.0000
  H   H344      1.0  0.84964  0.39893  0.49123  1.0000
  H   H345      1.0  0.75159  0.46063  0.50213  1.0000
  H   H346      1.0  0.79830  0.44451  0.55454  1.0000
  S   S96       1.0  0.08376  0.26074  0.52463  1.0000
  C   C230      1.0  0.70717  0.36089  0.48276  1.0000
  H   H347      1.0  0.70836  0.32322  0.46375  1.0000
  H   H348      1.0  0.13765  0.62899  0.83749  1.0000
  S   S97       1.0  0.85373  0.73307  0.80744  1.0000
  S   S98       1.0  0.96181  0.65263  0.74547  1.0000
  H   H349      1.0  0.82342  0.59720  0.80135  1.0000
  S   S99       1.0  0.98393  0.79687  0.78158  1.0000
  H   H350      1.0  0.77751  0.63040  0.68886  1.0000
  S   S100      1.0  0.91944  0.83927  0.91326  1.0000
  H   H351      1.0  0.16215  0.80821  0.72759  1.0000
  H   H352      1.0  0.77259  0.53805  0.80916  1.0000
  C   C231      1.0  0.05891  0.63544  0.79718  1.0000
  C   C232      1.0  0.07620  0.65053  0.89019  1.0000
  H   H353      1.0  0.84914  0.63574  0.71226  1.0000
  C   C233      1.0  0.09515  0.63750  0.84133  1.0000
  N   N21       1.0  0.79841  0.56012  0.72887  1.0000
  S   S101      1.0  0.87504  0.85727  0.77171  1.0000
  C   C234      1.0  0.98568  0.66105  0.85062  1.0000
  Fe  Fe53      1.0  0.94361  0.84310  0.71794  1.0000
  C   C235      1.0  0.78571  0.57394  0.78286  1.0000
  C   C236      1.0  0.02116  0.66135  0.89511  1.0000
  H   H354      1.0  0.07367  0.62593  0.75921  1.0000
  C   C237      1.0  0.14987  0.84786  0.73013  1.0000
  H   H355      1.0  0.74018  0.69024  0.74445  1.0000
  H   H356      1.0  0.94379  0.67110  0.85415  1.0000
  Fe  Fe54      1.0  0.92613  0.72651  0.75375  1.0000
  C   C238      1.0  0.00453  0.64808  0.80167  1.0000
  Fe  Fe55      1.0  0.82613  0.78449  0.74035  1.0000
  Fe  Fe56      1.0  0.91036  0.80588  0.83273  1.0000
  H   H357      1.0  0.75077  0.59755  0.78257  1.0000
  C   C239      1.0  0.81387  0.60865  0.69474  1.0000
  H   H358      1.0  0.09298  0.83636  0.91373  1.0000
  H   H359      1.0  0.71017  0.54798  0.70642  1.0000
  S   S102      1.0  0.74563  0.79585  0.69922  1.0000
  H   H360      1.0  0.10674  0.84251  0.74742  1.0000
  H   H361      1.0  0.88486  0.55317  0.74800  1.0000
  H   H362      1.0  0.00659  0.67186  0.93274  1.0000
  H   H363      1.0  0.83894  0.86286  0.11106  1.0000
  C   C240      1.0  0.80745  0.62089  0.17517  1.0000
  C   C241      1.0  0.00304  0.61089  0.05536  1.0000
  N   N22       1.0  0.78554  0.86460  0.04214  1.0000
  H   H364      1.0  0.88990  0.59883  0.03480  1.0000
  C   C242      1.0  0.76218  0.57924  0.08126  1.0000
  N   N23       1.0  0.95909  0.56599  0.07166  1.0000
  C   C243      1.0  0.76278  0.63260  0.08979  1.0000
  H   H365      1.0  0.74641  0.65780  0.05972  1.0000
  C   C244      1.0  0.74158  0.82209  0.06365  1.0000
  H   H366      1.0  0.08775  0.53821  0.94498  1.0000
  C   C245      1.0  0.93953  0.57276  0.12560  1.0000
  H   H367      1.0  0.75109  0.78257  0.05504  1.0000
  H   H368      1.0  0.92434  0.55927  0.99289  1.0000
  H   H369      1.0  0.01909  0.60689  0.01489  1.0000
  H   H370      1.0  0.74507  0.56317  0.04473  1.0000
  Fe  Fe57      1.0  0.87924  0.74573  0.18012  1.0000
  H   H371      1.0  0.85261  0.82002  0.06095  1.0000
  C   C246      1.0  0.78381  0.54682  0.12001  1.0000
  H   H372      1.0  0.03992  0.61419  0.08301  1.0000
  S   S103      1.0  0.79374  0.72100  0.14478  1.0000
  H   H373      1.0  0.98629  0.64875  0.05512  1.0000
  H   H374      1.0  0.74877  0.86404  0.96397  1.0000
  C   C247      1.0  0.80537  0.56747  0.16734  1.0000
  C   C248      1.0  0.03414  0.83213  0.00408  1.0000
  H   H375      1.0  0.11460  0.78435  0.05122  1.0000
  H   H376      1.0  0.92011  0.60909  0.12720  1.0000
  S   S104      1.0  0.95612  0.75989  0.12878  1.0000
  S   S105      1.0  0.12161  0.65514  0.94498  1.0000
  C   C249      1.0  0.78649  0.65354  0.13636  1.0000
  H   H377      1.0  0.97507  0.57578  0.15470  1.0000
  C   C250      1.0  0.12404  0.80086  0.01005  1.0000
  C   C251      1.0  0.91085  0.56333  0.03423  1.0000
  H   H378      1.0  0.13956  0.57583  0.02374  1.0000
  C   C252      1.0  0.19905  0.53499  0.95095  1.0000
  H   H379      1.0  0.19213  0.54248  0.05601  1.0000
  N   N24       1.0  0.09591  0.84718  0.99747  1.0000
  H   H380      1.0  0.11004  0.76884  0.98274  1.0000
  H   H381      1.0  0.12249  0.77144  0.17341  1.0000
  H   H382      1.0  0.02339  0.81705  0.04525  1.0000
  H   H383      1.0  0.73833  0.82279  0.10750  1.0000
  H   H384      1.0  0.01625  0.80124  0.97680  1.0000
  Fe  Fe58      1.0  0.97712  0.83661  0.16745  1.0000
  H   H385      1.0  0.17092  0.81128  0.00694  1.0000
  H   H386      1.0  0.80241  0.82276  0.97438  1.0000
  C   C253      1.0  0.84049  0.85911  0.06748  1.0000
  H   H387      1.0  0.18951  0.57444  0.93751  1.0000
  C   C254      1.0  0.15108  0.53642  0.03424  1.0000
  C   C255      1.0  0.78977  0.86079  0.98424  1.0000
  H   H388      1.0  0.01176  0.86644  0.99593  1.0000
  C   C256      1.0  0.10822  0.86700  0.94215  1.0000
  H   H389      1.0  0.90742  0.53874  0.13935  1.0000
  H   H390      1.0  0.74687  0.77012  0.23757  1.0000
  H   H391      1.0  0.18924  0.70114  0.40449  1.0000
  H   H392      1.0  0.09747  0.73528  0.29136  1.0000
  C   C257      1.0  0.79186  0.74461  0.33256  1.0000
  H   H393      1.0  0.18503  0.54654  0.31027  1.0000
  H   H394      1.0  0.85283  0.60330  0.41058  1.0000
  N   N25       1.0  0.13971  0.75456  0.36475  1.0000
  H   H395      1.0  0.13976  0.68819  0.31713  1.0000
  S   S106      1.0  0.93963  0.80133  0.36289  1.0000
  Fe  Fe59      1.0  0.00079  0.72638  0.19777  1.0000
  H   H396      1.0  0.75282  0.67750  0.25711  1.0000
  H   H397      1.0  0.11987  0.81888  0.40781  1.0000
  C   C258      1.0  0.72545  0.67750  0.29236  1.0000
  C   C259      1.0  0.80971  0.58272  0.41138  1.0000
  H   H398      1.0  0.73631  0.64705  0.32207  1.0000
  N   N26       1.0  0.73274  0.72999  0.31445  1.0000
  H   H399      1.0  0.17820  0.80660  0.30106  1.0000
  C   C260      1.0  0.71096  0.57927  0.43407  1.0000
  Fe  Fe60      1.0  0.94491  0.78623  0.27685  1.0000
  C   C261      1.0  0.13010  0.69096  0.19580  1.0000
  C   C262      1.0  0.71974  0.76928  0.27317  1.0000
  H   H400      1.0  0.82212  0.74626  0.29927  1.0000
  H   H401      1.0  0.08728  0.81324  0.34361  1.0000
  C   C263      1.0  0.10025  0.79018  0.37898  1.0000
  H   H402      1.0  0.80362  0.71574  0.36347  1.0000
  C   C264      1.0  0.15061  0.74471  0.18748  1.0000
  H   H403      1.0  0.72636  0.80949  0.28812  1.0000
  C   C265      1.0  0.76642  0.60640  0.43191  1.0000
  S   S107      1.0  0.92191  0.70571  0.24665  1.0000
  C   C266      1.0  0.15748  0.72666  0.41327  1.0000
  H   H404      1.0  0.82265  0.54276  0.19723  1.0000
  H   H405      1.0  0.79887  0.78414  0.34941  1.0000
  S   S108      1.0  0.02737  0.80428  0.23317  1.0000
  H   H406      1.0  0.15147  0.61490  0.21911  1.0000
  S   S109      1.0  0.89631  0.82449  0.21383  1.0000
  H   H407      1.0  0.82528  0.63664  0.21139  1.0000
  H   H408      1.0  0.07265  0.69184  0.34679  1.0000
  C   C267      1.0  0.11113  0.71570  0.32851  1.0000
  H   H409      1.0  0.06085  0.76806  0.39735  1.0000
  H   H410      1.0  0.12090  0.70143  0.43326  1.0000
  C   C268      1.0  0.16708  0.65650  0.21311  1.0000
  C   C269      1.0  0.18996  0.78555  0.33824  1.0000
  C   C270      1.0  0.97032  0.86704  0.36905  1.0000
  S   S110      1.0  0.05789  0.66641  0.18791  1.0000
  H   H411      1.0  0.11325  0.53476  0.38274  1.0000
  H   H412      1.0  0.82777  0.59979  0.65491  1.0000
  H   H413      1.0  0.89126  0.86532  0.56845  1.0000
  H   H414      1.0  0.79145  0.77794  0.48653  1.0000
  H   H415      1.0  0.77622  0.64507  0.44734  1.0000
  H   H416      1.0  0.12530  0.80657  0.63560  1.0000
  H   H417      1.0  0.11383  0.86650  0.60073  1.0000
  H   H418      1.0  0.74838  0.82679  0.46722  1.0000
  H   H419      1.0  0.74670  0.80003  0.53440  1.0000
  C   C271      1.0  0.77491  0.81297  0.49981  1.0000
  C   C272      1.0  0.85556  0.83479  0.55689  1.0000
  N   N27       1.0  0.82143  0.85497  0.51359  1.0000
  H   H420      1.0  0.82932  0.82216  0.59284  1.0000
  C   C273      1.0  0.11321  0.84590  0.64071  1.0000
  H   H421      1.0  0.87425  0.80035  0.54515  1.0000
  H   H422      1.0  0.01506  0.85093  0.44111  1.0000
  H   H423      1.0  0.06872  0.83985  0.65509  1.0000
  S   S111      1.0  0.19655  0.85876  0.51483  1.0000
  H   H424      1.0  0.87598  0.83785  0.45207  1.0000
  H   H425      1.0  0.17706  0.75478  0.44244  1.0000
  S   S112      1.0  0.89376  0.77150  0.68505  1.0000
  C   C274      1.0  0.81737  0.07674  0.78943  1.0000
  S   S113      1.0  0.17178  0.13470  0.89808  1.0000
  H   H426      1.0  0.92442  0.05639  0.79084  1.0000
  H   H427      1.0  0.17977  0.86934  0.75857  1.0000
  H   H428      1.0  0.80976  0.04100  0.88987  1.0000
  C   C275      1.0  0.96818  0.99618  0.92311  1.0000
  C   C276      1.0  0.89036  0.02243  0.78513  1.0000
  C   C277      1.0  0.98636  0.91803  0.85641  1.0000
  H   H429      1.0  0.03457  0.98053  0.80834  1.0000
  C   C278      1.0  0.99932  0.00960  0.87649  1.0000
  H   H430      1.0  0.86023  0.99681  0.88763  1.0000
  H   H431      1.0  0.84868  0.11261  0.79605  1.0000
  C   C279      1.0  0.84816  0.03355  0.86909  1.0000
  H   H432      1.0  0.88292  0.06663  0.87666  1.0000
  H   H433      1.0  0.80954  0.94496  0.81717  1.0000
  C   C280      1.0  0.95338  0.90438  0.90177  1.0000
  N   N28       1.0  0.83754  0.02875  0.81177  1.0000
  H   H434      1.0  0.75520  0.98368  0.82599  1.0000
  C   C281      1.0  0.77878  0.17500  0.92016  1.0000
  H   H435      1.0  0.80965  0.07506  0.74601  1.0000
  S   S114      1.0  0.15489  0.00736  0.88370  1.0000
  H   H436      1.0  0.96099  0.15670  0.70224  1.0000
  H   H437      1.0  0.78288  0.97898  0.76089  1.0000
  H   H438      1.0  0.04644  0.18558  0.79133  1.0000
  C   C282      1.0  0.00994  0.97034  0.84412  1.0000
  Fe  Fe61      1.0  0.11779  0.07643  0.84970  1.0000
  H   H439      1.0  0.88367  0.01897  0.74191  1.0000
  C   C283      1.0  0.79437  0.98214  0.80354  1.0000
  C   C284      1.0  0.99417  0.19205  0.69666  1.0000
  H   H440      1.0  0.90617  0.98614  0.80044  1.0000
  S   S115      1.0  0.02491  0.07513  0.85764  1.0000
  H   H441      1.0  0.77691  0.08218  0.80787  1.0000
  H   H442      1.0  0.99348  0.88853  0.83018  1.0000
  H   H443      1.0  0.97180  0.16434  0.79944  1.0000
  S   S116      1.0  0.17542  0.08888  0.77914  1.0000
  H   H444      1.0  0.78118  0.13431  0.91381  1.0000
  H   H445      1.0  0.03576  0.17824  0.69392  1.0000
  H   H446      1.0  0.08697  0.90159  0.93143  1.0000
  H   H447      1.0  0.16361  0.95319  0.70904  1.0000
  S   S117      1.0  0.88300  0.20052  0.87249  1.0000
  C   C285      1.0  0.00469  0.19946  0.79113  1.0000
  C   C286      1.0  0.94570  0.94333  0.93610  1.0000
  H   H448      1.0  0.15447  0.87938  0.93577  1.0000
  H   H449      1.0  0.09130  0.92441  0.69962  1.0000
  H   H450      1.0  0.75132  0.19222  0.13565  1.0000
  H   H451      1.0  0.90617  0.19964  0.15697  1.0000
  H   H452      1.0  0.75344  0.18391  0.06629  1.0000
  H   H453      1.0  0.15281  0.04609  0.10467  1.0000
  H   H454      1.0  0.16337  0.90124  0.02990  1.0000
  C   C287      1.0  0.86167  0.17928  0.15387  1.0000
  C   C288      1.0  0.77372  0.17483  0.10472  1.0000
  H   H455      1.0  0.08158  0.01521  0.11880  1.0000
  C   C289      1.0  0.90217  0.01473  0.08638  1.0000
  C   C290      1.0  0.94704  0.98626  0.08213  1.0000
  H   H456      1.0  0.72855  0.92143  0.03538  1.0000
  C   C291      1.0  0.77017  0.91618  0.05331  1.0000
  H   H457      1.0  0.90811  0.18992  0.05842  1.0000
  C   C292      1.0  0.87025  0.00935  0.13298  1.0000
  H   H458      1.0  0.10857  0.87518  0.07588  1.0000
  H   H459      1.0  0.06490  0.14470  0.05307  1.0000
  H   H460      1.0  0.96095  0.02664  0.94871  1.0000
  H   H461      1.0  0.04522  0.07467  0.05067  1.0000
  H   H462      1.0  0.12714  0.18214  0.12429  1.0000
  H   H463      1.0  0.96983  0.98795  0.04528  1.0000
  C   C293      1.0  0.11484  0.04861  0.12881  1.0000
  H   H464      1.0  0.11658  0.10479  0.03605  1.0000
  C   C294      1.0  0.86160  0.17617  0.05891  1.0000
  H   H465      1.0  0.76600  0.13137  0.11188  1.0000
  C   C295      1.0  0.07976  0.10630  0.06213  1.0000
  H   H466      1.0  0.85479  0.13238  0.06074  1.0000
  H   H467      1.0  0.89049  0.03870  0.05277  1.0000
  H   H468      1.0  0.82205  0.89256  0.96646  1.0000
  H   H469      1.0  0.80231  0.94926  0.03764  1.0000
  C   C296      1.0  0.14052  0.14291  0.13212  1.0000
  H   H470      1.0  0.15275  0.13979  0.17467  1.0000
  S   S118      1.0  0.00788  0.90975  0.11667  1.0000
  C   C297      1.0  0.93140  0.95171  0.17257  1.0000
  H   H471      1.0  0.92113  0.93301  0.97172  1.0000
  C   C298      1.0  0.96014  0.95324  0.12473  1.0000
  H   H472      1.0  0.09654  0.92440  0.02574  1.0000
  H   H473      1.0  0.86292  0.13646  0.15637  1.0000
  N   N29       1.0  0.09500  0.09976  0.11872  1.0000
  S   S119      1.0  0.80937  0.03828  0.13570  1.0000
  C   C299      1.0  0.73649  0.18767  0.95302  1.0000
  H   H474      1.0  0.17931  0.14247  0.10851  1.0000
  C   C300      1.0  0.11704  0.88887  0.03377  1.0000
  H   H475      1.0  0.02884  0.13943  0.14522  1.0000
  H   H476      1.0  0.87508  0.88973  0.05159  1.0000
  C   C301      1.0  0.04484  0.10130  0.15179  1.0000
  N   N30       1.0  0.83479  0.19611  0.10423  1.0000
  H   H477      1.0  0.00957  0.06939  0.14266  1.0000
  H   H478      1.0  0.84377  0.18948  0.02055  1.0000
  H   H479      1.0  0.12643  0.04212  0.17119  1.0000
  H   H480      1.0  0.76678  0.92048  0.09660  1.0000
  C   C302      1.0  0.88568  0.97888  0.17648  1.0000
  H   H481      1.0  0.86219  0.97591  0.21308  1.0000
  H   H482      1.0  0.94334  0.15728  0.34114  1.0000
  H   H483      1.0  0.73926  0.11809  0.32074  1.0000
  H   H484      1.0  0.94417  0.92911  0.20653  1.0000
  H   H485      1.0  0.83346  0.88730  0.43341  1.0000
  Fe  Fe62      1.0  0.15974  0.00955  0.39167  1.0000
  C   C303      1.0  0.99040  0.95686  0.33162  1.0000
  H   H486      1.0  0.03670  0.13933  0.37533  1.0000
  H   H487      1.0  0.96370  0.04508  0.43357  1.0000
  C   C304      1.0  0.93194  0.16193  0.38293  1.0000
  C   C305      1.0  0.00766  0.88049  0.41083  1.0000
  S   S120      1.0  0.07504  0.03033  0.36831  1.0000
  H   H488      1.0  0.89651  0.05950  0.40899  1.0000
  C   C306      1.0  0.02161  0.14237  0.41636  1.0000
  H   H489      1.0  0.98441  0.98593  0.30035  1.0000
  N   N31       1.0  0.95946  0.12748  0.42019  1.0000
  C   C307      1.0  0.96082  0.90546  0.33010  1.0000
  H   H490      1.0  0.73687  0.15401  0.22863  1.0000
  H   H491      1.0  0.03562  0.18362  0.42733  1.0000
  C   C308      1.0  0.03837  0.93148  0.41161  1.0000
  H   H492      1.0  0.72886  0.99168  0.39284  1.0000
  C   C309      1.0  0.94314  0.07212  0.40654  1.0000
  S   S121      1.0  0.73115  0.88435  0.36967  1.0000
  Fe  Fe63      1.0  0.71214  0.92234  0.29099  1.0000
  H   H493      1.0  0.95664  0.06617  0.36563  1.0000
  S   S122      1.0  0.17944  0.93046  0.37267  1.0000
  S   S123      1.0  0.74345  0.90475  0.21180  1.0000
  H   H494      1.0  0.88494  0.15346  0.38620  1.0000
  Fe  Fe64      1.0  0.74566  0.99073  0.19075  1.0000
  C   C310      1.0  0.03049  0.96940  0.37148  1.0000
  H   H495      1.0  0.93125  0.89539  0.29833  1.0000
  S   S124      1.0  0.72184  0.00944  0.27217  1.0000
  H   H496      1.0  0.05483  0.09634  0.19473  1.0000
  H   H497      1.0  0.83845  0.18796  0.18910  1.0000
  H   H498      1.0  0.85663  0.87523  0.66641  1.0000
  C   C311      1.0  0.86323  0.91719  0.65837  1.0000
  H   H499      1.0  0.77490  0.92167  0.66514  1.0000
  S   S125      1.0  0.76652  0.03188  0.65037  1.0000
  H   H500      1.0  0.89370  0.90257  0.47606  1.0000
  S   S126      1.0  0.97635  0.91205  0.66236  1.0000
  H   H501      1.0  0.95373  0.17483  0.48660  1.0000
  H   H502      1.0  0.96716  0.02027  0.62889  1.0000
  N   N32       1.0  0.15203  0.87647  0.67765  1.0000
  C   C312      1.0  0.94122  0.13363  0.47482  1.0000
  S   S127      1.0  0.18739  0.00258  0.47632  1.0000
  C   C313      1.0  0.13452  0.92840  0.68265  1.0000
  H   H503      1.0  0.89431  0.12392  0.47885  1.0000
  H   H504      1.0  0.96041  0.10757  0.50398  1.0000
  C   C314      1.0  0.82374  0.99762  0.64578  1.0000
  C   C315      1.0  0.87785  0.02503  0.63319  1.0000
  C   C316      1.0  0.91788  0.94478  0.65027  1.0000
  H   H505      1.0  0.13401  0.95037  0.64350  1.0000
  S   S128      1.0  0.77873  0.18699  0.44005  1.0000
  H   H506      1.0  0.88348  0.06700  0.62379  1.0000
  H   H507      1.0  0.83120  0.93279  0.54263  1.0000
  C   C317      1.0  0.92509  0.99866  0.63586  1.0000
  C   C318      1.0  0.79741  0.90052  0.53111  1.0000
  C   C319      1.0  0.81651  0.94351  0.65716  1.0000
  C   C320      1.0  0.85770  0.87140  0.46678  1.0000
  H   H508      1.0  0.78504  0.18768  0.55423  1.0000
  H   H509      1.0  0.76927  0.88940  0.56608  1.0000
  H   H510      1.0  0.77165  0.91704  0.49932  1.0000
  H   H511      1.0  0.04396  0.11630  0.44285  1.0000
  H   H512      1.0  0.06922  0.94108  0.44263  1.0000
