data_image0
_chemical_formula_structural       HSHCS3CHC2H2FeHCHC2H2CSNC2HCHCH6CHSFeH4CHC2H2C3SCHFeSH3FeH2CFeSCFeS2C3S2H2SHSH2SFeH3CH2NHC5HCFeH3CH3SCFeHSHFeS2C6H5NC4H9CH2SCHCH4SH2CH3CNHSHS2FeCH3CHSH2SC2FeSFeSCH2CHCS2HC3H3CHCHCH2NHNHCHCH2CH2CFeHC2HCFeSH2C2H3FeHCHCHCH2CH2CH3C2NH2SCHSNFeS2CSHFeSHCHSC6H4CH3FeCH5CH4SHNS2H2CH2CNCHFe2S2C2H2SCSCFeH2CH2C6H6C2HCHC2SH10C2NC2NH5FeHCHFeHCH3CHC2H4CHSFeS2CHCHSH4C6H7SCNCHCHSH2FeCH2FeC2HS2CHC2HC2H2CHNH7SNC2H2FeSCFeH2FeSHSH6SC6H4CSH6CHC3S2HSFe2C2H3SHCFeS2H2C6H7NC4SH2FeH6FeSCH8SC3NSHSCHFeH2CSFeHSH4SH2CHCNH3C6HCH3NC3HCH4SCH2FeHCHSH3FeH2SC2HC2HC2HSC2HSFeCHC2H2S3FeS2H2C6H4CHNH8CH5C2HNFeC4HCH6FeCSCNC2H3SCH2CH5SH6SFeH2S2CFeSH3CHC2FeC4HCH3NC4H5CH3S3NCFeCHCH2CSHFeH2CFeH2SHCSFeSHCHFeSHSHSHSH3C6H4C2NC4H10NH4SHC2HSFeCSH3C2FeCHSNCH2SFe2CH4SHFeSH3CH2C6H4S2NC2H4C3H2CH5CH2C2SCFeHSC2SCSC4NHFeSHSCFeSHSHS2FeCH2CH2CH6CHCH2CHCHC2H5C2H3SCH4FeHS2HSHFeSC3H3C6H4CH2CNFeH4CHCH3SHNH2C2NC2HCH5CFeCHCHCH3CH
_chemical_formula_sum              "H512 S128 C320 Fe64 N32"
_cell_length_a       34.8563
_cell_length_b       34.5949
_cell_length_c       40.1057
_cell_angle_alpha    87.5202
_cell_angle_beta     83.7292
_cell_angle_gamma    90.0493

_space_group_name_H-M_alt    "P 1"
_space_group_IT_number       1

loop_
  _space_group_symop_operation_xyz
  'x, y, z'

loop_
  _atom_site_type_symbol
  _atom_site_label
  _atom_site_symmetry_multiplicity
  _atom_site_fract_x
  _atom_site_fract_y
  _atom_site_fract_z
  _atom_site_occupancy
  H   H1        1.0  0.54349  0.33203  0.08550  1.0000
  S   S1        1.0  0.29348  0.40412  0.14681  1.0000
  H   H2        1.0  0.18214  0.32618  0.25722  1.0000
  C   C1        1.0  0.27517  0.36898  0.20925  1.0000
  S   S2        1.0  0.38607  0.43297  0.08525  1.0000
  S   S3        1.0  0.29462  0.26418  0.25410  1.0000
  S   S4        1.0  0.30822  0.41469  0.04724  1.0000
  C   C2        1.0  0.13115  0.29243  0.22061  1.0000
  H   H3        1.0  0.14664  0.35985  0.24527  1.0000
  C   C3        1.0  0.27461  0.33794  0.23323  1.0000
  C   C4        1.0  0.29558  0.30438  0.22562  1.0000
  H   H4        1.0  0.10484  0.30933  0.22872  1.0000
  H   H5        1.0  0.14764  0.32426  0.15832  1.0000
  Fe  Fe1       1.0  0.41013  0.37797  0.06407  1.0000
  H   H6        1.0  0.25801  0.33997  0.25747  1.0000
  C   C5        1.0  0.31789  0.30251  0.19456  1.0000
  H   H7        1.0  0.13740  0.27417  0.24285  1.0000
  C   C6        1.0  0.24816  0.08367  0.28319  1.0000
  C   C7        1.0  0.31816  0.33332  0.17063  1.0000
  H   H8        1.0  0.31509  0.51399  0.05418  1.0000
  H   H9        1.0  0.20820  0.27739  0.21971  1.0000
  C   C8        1.0  0.29629  0.36641  0.17756  1.0000
  S   S5        1.0  0.35626  0.34359  0.07971  1.0000
  N   N1        1.0  0.16413  0.31810  0.20837  1.0000
  C   C9        1.0  0.17258  0.34332  0.23551  1.0000
  C   C10       1.0  0.15430  0.34233  0.17927  1.0000
  H   H10       1.0  0.33460  0.27684  0.18869  1.0000
  C   C11       1.0  0.32307  0.54060  0.03990  1.0000
  H   H11       1.0  0.19567  0.36466  0.22673  1.0000
  C   C12       1.0  0.19846  0.29453  0.19807  1.0000
  H   H12       1.0  0.12873  0.36074  0.18621  1.0000
  H   H13       1.0  0.33522  0.33119  0.14681  1.0000
  H   H14       1.0  0.45391  0.55037  0.10314  1.0000
  H   H15       1.0  0.44285  0.53374  0.06348  1.0000
  H   H16       1.0  0.19260  0.27384  0.17875  1.0000
  H   H17       1.0  0.22330  0.31298  0.18719  1.0000
  C   C13       1.0  0.06997  0.06329  0.25384  1.0000
  H   H18       1.0  0.27353  0.09079  0.26598  1.0000
  S   S6        1.0  0.46538  0.34920  0.07543  1.0000
  Fe  Fe2       1.0  0.33049  0.39936  0.09695  1.0000
  H   H19       1.0  0.25904  0.39498  0.21509  1.0000
  H   H20       1.0  0.43572  0.27238  0.04435  1.0000
  H   H21       1.0  0.09366  0.08225  0.24142  1.0000
  H   H22       1.0  0.12390  0.27272  0.20101  1.0000
  C   C14       1.0  0.50915  0.36686  0.05435  1.0000
  H   H23       1.0  0.17873  0.36197  0.16940  1.0000
  C   C15       1.0  0.54393  0.35258  0.06433  1.0000
  C   C16       1.0  0.45660  0.55780  0.07570  1.0000
  H   H24       1.0  0.48781  0.55826  0.06624  1.0000
  H   H25       1.0  0.24738  0.34537  0.39012  1.0000
  C   C17       1.0  0.39692  0.29710  0.34288  1.0000
  C   C18       1.0  0.08529  0.07986  0.30870  1.0000
  C   C19       1.0  0.26604  0.34560  0.40993  1.0000
  S   S7        1.0  0.16443  0.24376  0.36879  1.0000
  C   C20       1.0  0.28469  0.37996  0.41660  1.0000
  H   H26       1.0  0.29943  0.28624  0.46998  1.0000
  Fe  Fe3       1.0  0.22561  0.26286  0.37083  1.0000
  S   S8        1.0  0.25092  0.26763  0.41987  1.0000
  H   H27       1.0  0.37105  0.33656  0.28994  1.0000
  H   H28       1.0  0.33327  0.27657  0.38342  1.0000
  H   H29       1.0  0.46679  0.52307  0.53006  1.0000
  Fe  Fe4       1.0  0.16646  0.28322  0.32286  1.0000
  H   H30       1.0  0.32109  0.35879  0.35221  1.0000
  H   H31       1.0  0.33260  0.34702  0.48159  1.0000
  C   C21       1.0  0.32950  0.28116  0.35631  1.0000
  Fe  Fe5       1.0  0.18976  0.19994  0.33328  1.0000
  S   S9        1.0  0.16355  0.14027  0.33873  1.0000
  C   C22       1.0  0.30898  0.38047  0.44224  1.0000
  Fe  Fe6       1.0  0.44448  0.44227  0.51559  1.0000
  S   S10       1.0  0.33441  0.42299  0.44805  1.0000
  S   S11       1.0  0.22542  0.30724  0.32809  1.0000
  C   C23       1.0  0.27160  0.31170  0.42899  1.0000
  C   C24       1.0  0.29524  0.31242  0.45509  1.0000
  C   C25       1.0  0.31397  0.34675  0.46171  1.0000
  S   S12       1.0  0.41459  0.38666  0.50691  1.0000
  S   S13       1.0  0.11595  0.31896  0.30979  1.0000
  H   H32       1.0  0.46159  0.53524  0.46916  1.0000
  H   H33       1.0  0.33267  0.25264  0.34450  1.0000
  S   S14       1.0  0.50566  0.45866  0.49554  1.0000
  H   H34       1.0  0.40210  0.29396  0.36978  1.0000
  S   S15       1.0  0.39758  0.47986  0.49865  1.0000
  H   H35       1.0  0.29919  0.29055  0.35511  1.0000
  H   H36       1.0  0.28056  0.40616  0.40170  1.0000
  S   S16       1.0  0.25097  0.21565  0.33880  1.0000
  Fe  Fe7       1.0  0.36525  0.42454  0.49449  1.0000
  H   H37       1.0  0.05931  0.09857  0.31222  1.0000
  H   H38       1.0  0.34510  0.54162  0.51111  1.0000
  H   H39       1.0  0.10654  0.23624  0.31937  1.0000
  C   C26       1.0  0.35057  0.34774  0.35515  1.0000
  H   H40       1.0  0.32127  0.32295  0.30001  1.0000
  H   H41       1.0  0.41855  0.31809  0.33016  1.0000
  N   N2        1.0  0.35712  0.31010  0.33944  1.0000
  H   H42       1.0  0.35339  0.34537  0.38259  1.0000
  C   C27       1.0  0.18263  0.06534  0.32761  1.0000
  C   C28       1.0  0.07741  0.28805  0.30440  1.0000
  C   C29       1.0  0.08062  0.24819  0.31068  1.0000
  C   C30       1.0  0.19318  0.10411  0.32065  1.0000
  C   C31       1.0  0.35143  0.31431  0.30348  1.0000
  H   H43       1.0  0.37150  0.37014  0.34374  1.0000
  C   C32       1.0  0.54073  0.43952  0.51980  1.0000
  Fe  Fe8       1.0  0.24618  0.25854  0.29588  1.0000
  H   H44       1.0  0.09180  0.06920  0.33403  1.0000
  H   H45       1.0  0.10998  0.09872  0.29802  1.0000
  H   H46       1.0  0.40257  0.26854  0.33156  1.0000
  C   C33       1.0  0.22615  0.11335  0.29861  1.0000
  H   H47       1.0  0.23446  0.14328  0.29316  1.0000
  H   H48       1.0  0.52293  0.54732  0.49227  1.0000
  H   H49       1.0  0.35685  0.28659  0.29066  1.0000
  S   S17       1.0  0.18742  0.23799  0.28702  1.0000
  C   C34       1.0  0.45783  0.55358  0.53392  1.0000
  Fe  Fe9       1.0  0.38766  0.39113  0.56031  1.0000
  H   H50       1.0  0.33627  0.20211  0.72529  1.0000
  S   S18       1.0  0.38781  0.34279  0.59976  1.0000
  H   H51       1.0  0.36944  0.20494  0.68772  1.0000
  Fe  Fe10      1.0  0.24123  0.29279  0.75217  1.0000
  S   S19       1.0  0.23607  0.32047  0.70070  1.0000
  S   S20       1.0  0.29033  0.16200  0.77896  1.0000
  C   C35       1.0  0.34538  0.33662  0.62732  1.0000
  C   C36       1.0  0.34813  0.32555  0.66096  1.0000
  C   C37       1.0  0.31472  0.32084  0.68365  1.0000
  C   C38       1.0  0.27832  0.32590  0.67262  1.0000
  C   C39       1.0  0.27556  0.33697  0.63892  1.0000
  C   C40       1.0  0.30905  0.34261  0.61634  1.0000
  H   H52       1.0  0.37624  0.32142  0.66964  1.0000
  H   H53       1.0  0.31728  0.31399  0.70975  1.0000
  H   H54       1.0  0.24745  0.34122  0.63027  1.0000
  H   H55       1.0  0.30674  0.35085  0.59029  1.0000
  H   H56       1.0  0.34106  0.24618  0.70009  1.0000
  N   N3        1.0  0.30960  0.20116  0.67942  1.0000
  C   C41       1.0  0.27174  0.21364  0.69548  1.0000
  C   C42       1.0  0.31600  0.21833  0.64484  1.0000
  C   C43       1.0  0.31006  0.15847  0.67862  1.0000
  C   C44       1.0  0.34048  0.21415  0.69893  1.0000
  H   H57       1.0  0.26533  0.19997  0.72108  1.0000
  H   H58       1.0  0.24780  0.20575  0.68082  1.0000
  H   H59       1.0  0.27081  0.24549  0.69801  1.0000
  H   H60       1.0  0.34463  0.21020  0.63207  1.0000
  H   H61       1.0  0.29345  0.20884  0.62928  1.0000
  H   H62       1.0  0.31505  0.25053  0.64471  1.0000
  H   H63       1.0  0.33812  0.14785  0.66659  1.0000
  H   H64       1.0  0.28677  0.14755  0.66455  1.0000
  H   H65       1.0  0.30548  0.14489  0.70454  1.0000
  C   C45       1.0  0.52991  0.41958  0.55042  1.0000
  H   H66       1.0  0.31504  0.51720  0.64749  1.0000
  H   H67       1.0  0.07524  0.32778  0.76060  1.0000
  S   S21       1.0  0.33565  0.42441  0.54730  1.0000
  C   C46       1.0  0.28691  0.43182  0.68788  1.0000
  H   H68       1.0  0.25110  0.45999  0.63608  1.0000
  C   C47       1.0  0.28193  0.45206  0.63012  1.0000
  H   H69       1.0  0.28787  0.40088  0.68172  1.0000
  H   H70       1.0  0.49976  0.41477  0.55899  1.0000
  H   H71       1.0  0.29392  0.47071  0.60808  1.0000
  H   H72       1.0  0.30269  0.43462  0.71034  1.0000
  S   S22       1.0  0.35210  0.52821  0.58191  1.0000
  H   H73       1.0  0.34664  0.41491  0.64211  1.0000
  H   H74       1.0  0.27240  0.50701  0.67566  1.0000
  C   C48       1.0  0.34456  0.44534  0.65004  1.0000
  H   H75       1.0  0.31927  0.50215  0.69026  1.0000
  H   H76       1.0  0.25608  0.43897  0.69514  1.0000
  H   H77       1.0  0.35847  0.46388  0.62874  1.0000
  C   C49       1.0  0.30259  0.49754  0.66864  1.0000
  N   N4        1.0  0.30400  0.45669  0.65917  1.0000
  H   H78       1.0  0.28274  0.42165  0.62207  1.0000
  S   S23       1.0  0.42166  0.44385  0.56984  1.0000
  H   H79       1.0  0.36206  0.44779  0.67145  1.0000
  S   S24       1.0  0.20944  0.23747  0.76862  1.0000
  S   S25       1.0  0.29701  0.27342  0.77016  1.0000
  Fe  Fe11      1.0  0.37205  0.47687  0.55224  1.0000
  C   C50       1.0  0.07100  0.30895  0.78295  1.0000
  H   H80       1.0  0.29598  0.08016  0.76945  1.0000
  H   H81       1.0  0.42587  0.55346  0.53952  1.0000
  H   H82       1.0  0.54952  0.39106  0.59423  1.0000
  C   C51       1.0  0.27064  0.08514  0.78678  1.0000
  H   H83       1.0  0.22056  0.15826  0.82524  1.0000
  S   S26       1.0  0.31757  0.31211  0.00082  1.0000
  H   H84       1.0  0.30094  0.26121  0.94990  1.0000
  H   H85       1.0  0.18423  0.31896  0.86811  1.0000
  S   S27       1.0  0.24663  0.24362  0.84076  1.0000
  C   C52       1.0  0.31706  0.32012  0.95736  1.0000
  C   C53       1.0  0.35189  0.54039  0.01273  1.0000
  Fe  Fe12      1.0  0.27438  0.29893  0.81888  1.0000
  S   S28       1.0  0.30921  0.34090  0.84504  1.0000
  Fe  Fe13      1.0  0.19443  0.26539  0.81765  1.0000
  S   S29       1.0  0.13718  0.25805  0.84915  1.0000
  C   C54       1.0  0.19730  0.27458  0.92283  1.0000
  H   H86       1.0  0.22891  0.27033  0.91727  1.0000
  H   H87       1.0  0.47548  0.23334  0.00324  1.0000
  C   C55       1.0  0.09764  0.27256  0.82803  1.0000
  H   H88       1.0  0.13441  0.30789  0.95404  1.0000
  C   C56       1.0  0.41612  0.29414  0.96440  1.0000
  S   S30       1.0  0.22078  0.32261  0.79935  1.0000
  S   S31       1.0  0.39502  0.39144  0.01214  1.0000
  H   H89       1.0  0.29830  0.27170  0.88855  1.0000
  C   C57       1.0  0.22825  0.12920  0.81825  1.0000
  C   C58       1.0  0.30553  0.29546  0.90337  1.0000
  C   C59       1.0  0.31341  0.33204  0.88797  1.0000
  H   H90       1.0  0.18831  0.26086  0.94806  1.0000
  H   H91       1.0  0.48313  0.40459  0.01916  1.0000
  H   H92       1.0  0.49156  0.31145  0.96587  1.0000
  C   C60       1.0  0.32578  0.35650  0.94189  1.0000
  H   H93       1.0  0.33034  0.39072  0.89534  1.0000
  C   C61       1.0  0.30731  0.28952  0.93803  1.0000
  H   H94       1.0  0.19915  0.36781  0.94631  1.0000
  C   C62       1.0  0.14489  0.32014  0.92857  1.0000
  H   H95       1.0  0.46236  0.33966  0.99527  1.0000
  H   H96       1.0  0.18307  0.25827  0.90417  1.0000
  N   N5        1.0  0.18716  0.31606  0.92129  1.0000
  H   H97       1.0  0.19930  0.32390  0.97210  1.0000
  N   N6        1.0  0.44100  0.28209  0.99057  1.0000
  H   H98       1.0  0.23877  0.33508  0.94065  1.0000
  C   C63       1.0  0.19959  0.33288  0.88734  1.0000
  H   H99       1.0  0.18022  0.10273  0.84944  1.0000
  C   C64       1.0  0.32401  0.36240  0.90721  1.0000
  H   H100      1.0  0.12937  0.30464  0.91015  1.0000
  H   H101      1.0  0.23108  0.32899  0.88033  1.0000
  C   C65       1.0  0.20684  0.33660  0.94624  1.0000
  H   H102      1.0  0.13606  0.35101  0.92711  1.0000
  H   H103      1.0  0.19363  0.36443  0.88544  1.0000
  C   C66       1.0  0.20543  0.09773  0.83194  1.0000
  Fe  Fe14      1.0  0.36599  0.44384  0.03431  1.0000
  H   H104      1.0  0.33340  0.38024  0.95665  1.0000
  C   C67       1.0  0.54530  0.40474  0.00908  1.0000
  C   C68       1.0  0.47321  0.30998  0.99038  1.0000
  H   H105      1.0  0.40367  0.32333  0.96883  1.0000
  C   C69       1.0  0.50986  0.39337  0.02694  1.0000
  Fe  Fe15      1.0  0.33913  0.36120  0.02915  1.0000
  S   S32       1.0  0.37908  0.49894  0.00313  1.0000
  H   H106      1.0  0.43296  0.22145  0.98405  1.0000
  H   H107      1.0  0.39121  0.27398  0.96415  1.0000
  C   C70       1.0  0.06026  0.26081  0.84100  1.0000
  C   C71       1.0  0.26104  0.12293  0.79581  1.0000
  H   H108      1.0  0.05604  0.24231  0.86355  1.0000
  H   H109      1.0  0.54574  0.42456  0.98743  1.0000
  H   H110      1.0  0.43236  0.29533  0.93891  1.0000
  Fe  Fe16      1.0  0.26395  0.22010  0.79005  1.0000
  H   H111      1.0  0.47410  0.24285  0.95895  1.0000
  C   C72       1.0  0.45660  0.24316  0.98387  1.0000
  H   H112      1.0  0.39286  0.26099  0.02490  1.0000
  C   C73       1.0  0.10302  0.29637  0.79882  1.0000
  H   H113      1.0  0.49207  0.30227  0.01037  1.0000
  C   C74       1.0  0.41800  0.28107  0.02380  1.0000
  H   H114      1.0  0.40628  0.31005  0.02960  1.0000
  H   H115      1.0  0.13177  0.30551  0.78866  1.0000
  C   C75       1.0  0.54894  0.78426  0.05007  1.0000
  H   H116      1.0  0.38145  0.62034  0.07498  1.0000
  H   H117      1.0  0.31029  0.80870  0.22005  1.0000
  C   C76       1.0  0.28476  0.80201  0.23863  1.0000
  H   H118      1.0  0.31284  0.74193  0.27232  1.0000
  H   H119      1.0  0.48810  0.62963  0.07518  1.0000
  H   H120      1.0  0.22837  0.72371  0.26341  1.0000
  C   C77       1.0  0.26283  0.75277  0.20431  1.0000
  C   C78       1.0  0.30571  0.57576  0.04943  1.0000
  N   N7        1.0  0.43821  0.59528  0.06846  1.0000
  H   H121      1.0  0.48857  0.77357  0.04670  1.0000
  H   H122      1.0  0.28737  0.75964  0.18470  1.0000
  S   S33       1.0  0.29980  0.65495  0.04677  1.0000
  C   C79       1.0  0.51744  0.76205  0.04276  1.0000
  H   H123      1.0  0.25489  0.72184  0.20255  1.0000
  S   S34       1.0  0.26362  0.00790  0.26934  1.0000
  N   N8        1.0  0.27270  0.76115  0.23821  1.0000
  Fe  Fe17      1.0  0.36895  0.77904  0.06323  1.0000
  S   S35       1.0  0.36680  0.81876  0.10638  1.0000
  S   S36       1.0  0.18108  0.94083  0.24732  1.0000
  C   C80       1.0  0.45705  0.62643  0.08496  1.0000
  S   S37       1.0  0.38460  0.71676  0.07152  1.0000
  H   H124      1.0  0.54412  0.81292  0.05943  1.0000
  Fe  Fe18      1.0  0.20806  0.88316  0.23636  1.0000
  S   S38       1.0  0.20572  0.85171  0.18848  1.0000
  H   H125      1.0  0.29218  0.80965  0.26387  1.0000
  C   C81       1.0  0.11500  0.02433  0.28208  1.0000
  H   H126      1.0  0.21405  0.77319  0.25710  1.0000
  S   S39       1.0  0.26210  0.89568  0.25974  1.0000
  C   C82       1.0  0.32132  0.82958  0.12715  1.0000
  C   C83       1.0  0.28781  0.81096  0.11978  1.0000
  C   C84       1.0  0.25209  0.81913  0.13782  1.0000
  C   C85       1.0  0.24984  0.84563  0.16345  1.0000
  C   C86       1.0  0.28321  0.86488  0.17021  1.0000
  C   C87       1.0  0.31887  0.85669  0.15224  1.0000
  H   H127      1.0  0.28947  0.78999  0.10048  1.0000
  H   H128      1.0  0.22631  0.80429  0.13238  1.0000
  H   H129      1.0  0.28164  0.88609  0.18925  1.0000
  H   H130      1.0  0.34467  0.87146  0.15776  1.0000
  C   C88       1.0  0.23850  0.75424  0.26299  1.0000
  H   H131      1.0  0.11152  0.99954  0.26583  1.0000
  H   H132      1.0  0.28417  0.57612  0.07100  1.0000
  H   H133      1.0  0.45510  0.62098  0.11262  1.0000
  Fe  Fe19      1.0  0.23252  0.95076  0.27498  1.0000
  C   C89       1.0  0.39686  0.59323  0.08135  1.0000
  H   H134      1.0  0.23785  0.77044  0.19760  1.0000
  H   H135      1.0  0.44339  0.65492  0.08016  1.0000
  H   H136      1.0  0.09164  0.85485  0.28617  1.0000
  H   H137      1.0  0.29654  0.70484  0.24703  1.0000
  H   H138      1.0  0.26117  0.82153  0.23212  1.0000
  C   C90       1.0  0.30465  0.73596  0.24693  1.0000
  H   H139      1.0  0.14002  0.04204  0.27036  1.0000
  H   H140      1.0  0.06543  0.03969  0.23663  1.0000
  H   H141      1.0  0.38227  0.56899  0.07042  1.0000
  H   H142      1.0  0.33082  0.74067  0.22860  1.0000
  S   S40       1.0  0.17790  0.85318  0.28269  1.0000
  H   H143      1.0  0.39261  0.58836  0.10910  1.0000
  N   N9        1.0  0.07938  0.04754  0.28679  1.0000
  S   S41       1.0  0.45945  0.83422  0.52763  1.0000
  S   S42       1.0  0.35474  0.68138  0.49072  1.0000
  H   H144      1.0  0.34718  0.60205  0.47553  1.0000
  H   H145      1.0  0.46138  0.58411  0.45191  1.0000
  C   C91       1.0  0.34768  0.60343  0.50238  1.0000
  H   H146      1.0  0.18279  0.81024  0.38673  1.0000
  H   H147      1.0  0.13534  0.90599  0.37758  1.0000
  C   C92       1.0  0.34940  0.63939  0.51688  1.0000
  N   N10       1.0  0.47051  0.57894  0.50413  1.0000
  C   C93       1.0  0.20425  0.03584  0.31189  1.0000
  H   H148      1.0  0.43580  0.93751  0.40736  1.0000
  Fe  Fe20      1.0  0.23029  0.86949  0.30681  1.0000
  Fe  Fe21      1.0  0.32229  0.81898  0.51103  1.0000
  S   S43       1.0  0.29339  0.86517  0.48142  1.0000
  S   S44       1.0  0.37507  0.78976  0.48769  1.0000
  C   C94       1.0  0.06282  0.86565  0.29248  1.0000
  C   C95       1.0  0.16339  0.83340  0.37827  1.0000
  H   H149      1.0  0.15914  0.88660  0.44790  1.0000
  H   H150      1.0  0.51474  0.70440  0.52276  1.0000
  S   S45       1.0  0.25661  0.82167  0.33666  1.0000
  C   C96       1.0  0.34694  0.56919  0.52247  1.0000
  S   S46       1.0  0.20546  0.92573  0.32452  1.0000
  C   C97       1.0  0.17281  0.87176  0.42560  1.0000
  Fe  Fe22      1.0  0.15575  0.91193  0.29581  1.0000
  H   H151      1.0  0.14243  0.81994  0.36316  1.0000
  H   H152      1.0  0.13857  0.80245  0.43930  1.0000
  C   C98       1.0  0.45281  0.56546  0.47481  1.0000
  H   H153      1.0  0.19561  0.00613  0.31713  1.0000
  H   H154      1.0  0.35545  0.90177  0.42594  1.0000
  C   C99       1.0  0.28431  0.85270  0.44104  1.0000
  C   C100      1.0  0.28737  0.81443  0.43123  1.0000
  C   C101      1.0  0.27937  0.80516  0.39892  1.0000
  C   C102      1.0  0.26870  0.83416  0.37627  1.0000
  C   C103      1.0  0.26665  0.87253  0.38584  1.0000
  C   C104      1.0  0.27411  0.88173  0.41826  1.0000
  H   H155      1.0  0.29540  0.79187  0.44868  1.0000
  H   H156      1.0  0.28120  0.77541  0.39161  1.0000
  H   H157      1.0  0.25938  0.89519  0.36830  1.0000
  H   H158      1.0  0.27213  0.91146  0.42563  1.0000
  H   H159      1.0  0.46671  0.63906  0.48838  1.0000
  H   H160      1.0  0.46510  0.88430  0.46269  1.0000
  C   C105      1.0  0.05732  0.90090  0.30816  1.0000
  C   C106      1.0  0.45839  0.61915  0.51056  1.0000
  H   H161      1.0  0.38145  0.87267  0.49240  1.0000
  C   C107      1.0  0.12024  0.82568  0.42937  1.0000
  H   H162      1.0  0.54167  0.84540  0.51612  1.0000
  C   C108      1.0  0.51300  0.57741  0.49716  1.0000
  C   C109      1.0  0.44363  0.87355  0.44658  1.0000
  S   S47       1.0  0.09645  0.92815  0.31887  1.0000
  H   H163      1.0  0.19031  0.89381  0.40953  1.0000
  H   H164      1.0  0.41167  0.91274  0.49871  1.0000
  H   H165      1.0  0.36531  0.92042  0.48323  1.0000
  H   H166      1.0  0.47149  0.63054  0.53227  1.0000
  H   H167      1.0  0.18170  0.85362  0.36110  1.0000
  H   H168      1.0  0.39426  0.88087  0.39945  1.0000
  H   H169      1.0  0.10490  0.84002  0.45128  1.0000
  H   H170      1.0  0.43538  0.84381  0.45655  1.0000
  H   H171      1.0  0.19328  0.84990  0.43457  1.0000
  H   H172      1.0  0.45838  0.87101  0.42075  1.0000
  C   C110      1.0  0.11842  0.88405  0.39428  1.0000
  C   C111      1.0  0.38159  0.88327  0.42595  1.0000
  N   N11       1.0  0.14369  0.85373  0.40691  1.0000
  C   C112      1.0  0.42191  0.93822  0.43367  1.0000
  C   C113      1.0  0.39129  0.90158  0.48182  1.0000
  N   N12       1.0  0.40963  0.89913  0.44698  1.0000
  H   H173      1.0  0.52356  0.59611  0.47473  1.0000
  H   H174      1.0  0.42653  0.62110  0.51635  1.0000
  H   H175      1.0  0.39684  0.95819  0.43373  1.0000
  H   H176      1.0  0.10258  0.89976  0.41511  1.0000
  H   H177      1.0  0.44301  0.95103  0.44905  1.0000
  Fe  Fe23      1.0  0.35231  0.73700  0.51775  1.0000
  H   H178      1.0  0.37140  0.85390  0.43546  1.0000
  C   C114      1.0  0.49756  0.80119  0.52228  1.0000
  H   H179      1.0  0.52735  0.58746  0.51871  1.0000
  Fe  Fe24      1.0  0.40125  0.80478  0.53395  1.0000
  H   H180      1.0  0.12282  0.01183  0.30646  1.0000
  C   C115      1.0  0.52071  0.73515  0.52124  1.0000
  H   H181      1.0  0.09661  0.87175  0.37927  1.0000
  H   H182      1.0  0.42072  0.56587  0.47930  1.0000
  H   H183      1.0  0.09804  0.81155  0.41594  1.0000
  C   C116      1.0  0.53580  0.81463  0.51762  1.0000
  H   H184      1.0  0.46069  0.75087  0.52652  1.0000
  C   C117      1.0  0.49007  0.76144  0.52354  1.0000
  C   C118      1.0  0.23698  0.04488  0.28957  1.0000
  H   H185      1.0  0.24490  0.76064  0.28883  1.0000
  H   H186      1.0  0.15777  0.05810  0.34530  1.0000
  H   H187      1.0  0.34976  0.60819  0.59855  1.0000
  H   H188      1.0  0.35042  0.66878  0.56304  1.0000
  C   C119      1.0  0.34891  0.60678  0.57174  1.0000
  H   H189      1.0  0.53081  0.76895  0.59197  1.0000
  S   S48       1.0  0.38344  0.74911  0.56235  1.0000
  Fe  Fe25      1.0  0.32932  0.78106  0.58005  1.0000
  S   S49       1.0  0.30121  0.77153  0.63320  1.0000
  S   S50       1.0  0.19512  0.95219  0.76209  1.0000
  C   C120      1.0  0.14395  0.86860  0.65802  1.0000
  H   H190      1.0  0.12205  0.87638  0.67900  1.0000
  C   C121      1.0  0.21021  0.85113  0.64162  1.0000
  H   H191      1.0  0.47002  0.56318  0.55670  1.0000
  S   S51       1.0  0.29363  0.91108  0.72995  1.0000
  H   H192      1.0  0.15768  0.83703  0.71779  1.0000
  H   H193      1.0  0.22347  0.89301  0.69476  1.0000
  H   H194      1.0  0.14517  0.89274  0.63868  1.0000
  H   H195      1.0  0.16934  0.80253  0.68605  1.0000
  C   C122      1.0  0.30407  0.80884  0.66124  1.0000
  C   C123      1.0  0.32184  0.84422  0.65081  1.0000
  C   C124      1.0  0.31965  0.87509  0.67255  1.0000
  C   C125      1.0  0.29954  0.87077  0.70471  1.0000
  C   C126      1.0  0.28305  0.83496  0.71561  1.0000
  C   C127      1.0  0.28537  0.80404  0.69393  1.0000
  H   H196      1.0  0.33663  0.84812  0.62585  1.0000
  H   H197      1.0  0.33275  0.90268  0.66412  1.0000
  H   H198      1.0  0.26842  0.83110  0.74068  1.0000
  H   H199      1.0  0.27190  0.77658  0.70222  1.0000
  H   H200      1.0  0.13319  0.84233  0.64686  1.0000
  H   H201      1.0  0.19933  0.92176  0.66528  1.0000
  H   H202      1.0  0.23954  0.84762  0.64963  1.0000
  S   S52       1.0  0.34989  0.83791  0.55559  1.0000
  C   C128      1.0  0.05982  0.88749  0.77158  1.0000
  N   N13       1.0  0.18209  0.86179  0.67001  1.0000
  C   C129      1.0  0.17882  0.83003  0.69606  1.0000
  H   H203      1.0  0.54852  0.83338  0.66100  1.0000
  C   C130      1.0  0.19537  0.89742  0.68439  1.0000
  H   H204      1.0  0.21244  0.87375  0.62092  1.0000
  S   S53       1.0  0.10643  0.89153  0.75004  1.0000
  H   H205      1.0  0.20686  0.82445  0.70605  1.0000
  H   H206      1.0  0.17434  0.90689  0.70525  1.0000
  Fe  Fe26      1.0  0.24274  0.91017  0.76977  1.0000
  C   C131      1.0  0.34940  0.64109  0.55167  1.0000
  H   H207      1.0  0.20246  0.82325  0.63115  1.0000
  H   H208      1.0  0.52050  0.81959  0.59291  1.0000
  Fe  Fe27      1.0  0.15578  0.90263  0.78054  1.0000
  C   C132      1.0  0.34832  0.57080  0.55707  1.0000
  C   C133      1.0  0.53092  0.79460  0.60786  1.0000
  H   H209      1.0  0.50934  0.78917  0.63014  1.0000
  S   S54       1.0  0.29665  0.76486  0.53721  1.0000
  S   S55       1.0  0.20335  0.85945  0.78482  1.0000
  C   C134      1.0  0.36177  0.57481  0.99416  1.0000
  H   H210      1.0  0.25487  0.02462  0.79289  1.0000
  C   C135      1.0  0.27186  0.71977  0.90671  1.0000
  C   C136      1.0  0.33251  0.69015  0.91654  1.0000
  H   H211      1.0  0.25594  0.98801  0.87099  1.0000
  C   C137      1.0  0.34511  0.60984  0.00409  1.0000
  C   C138      1.0  0.28899  0.71077  0.96325  1.0000
  H   H212      1.0  0.27415  0.64178  0.90828  1.0000
  H   H213      1.0  0.38361  0.57458  0.97279  1.0000
  C   C139      1.0  0.26701  0.93187  0.91780  1.0000
  H   H214      1.0  0.35376  0.63620  0.99010  1.0000
  N   N14       1.0  0.29148  0.69404  0.92983  1.0000
  H   H215      1.0  0.28628  0.74857  0.90296  1.0000
  H   H216      1.0  0.17904  0.97299  0.91293  1.0000
  H   H217      1.0  0.24124  0.72488  0.91654  1.0000
  H   H218      1.0  0.27212  0.70752  0.88149  1.0000
  H   H219      1.0  0.34816  0.67064  0.93316  1.0000
  H   H220      1.0  0.34769  0.71873  0.91454  1.0000
  H   H221      1.0  0.25861  0.71644  0.97340  1.0000
  S   S56       1.0  0.38458  0.70998  0.99022  1.0000
  N   N15       1.0  0.23859  0.96359  0.92065  1.0000
  C   C140      1.0  0.25240  0.99645  0.89761  1.0000
  C   C141      1.0  0.27268  0.65553  0.93295  1.0000
  H   H222      1.0  0.24172  0.65757  0.94302  1.0000
  H   H223      1.0  0.28073  0.00769  0.90338  1.0000
  Fe  Fe28      1.0  0.36829  0.77266  0.98824  1.0000
  S   S57       1.0  0.36427  0.80044  0.93674  1.0000
  C   C142      1.0  0.20107  0.94965  0.91175  1.0000
  Fe  Fe29      1.0  0.19636  0.96432  0.81627  1.0000
  H   H224      1.0  0.47293  0.60819  0.02151  1.0000
  H   H225      1.0  0.26156  0.98706  0.96313  1.0000
  Fe  Fe30      1.0  0.20428  0.88010  0.83726  1.0000
  S   S58       1.0  0.20384  0.84583  0.88647  1.0000
  H   H226      1.0  0.21248  0.00030  0.95852  1.0000
  S   S59       1.0  0.15278  0.91842  0.83421  1.0000
  H   H227      1.0  0.29580  0.94126  0.92406  1.0000
  H   H228      1.0  0.27099  0.92115  0.89189  1.0000
  H   H229      1.0  0.28675  0.63556  0.95048  1.0000
  H   H230      1.0  0.33559  0.67820  0.89108  1.0000
  H   H231      1.0  0.30146  0.69103  0.98177  1.0000
  H   H232      1.0  0.23154  0.02088  0.89899  1.0000
  S   S60       1.0  0.18604  0.02115  0.84074  1.0000
  C   C143      1.0  0.31979  0.81588  0.92407  1.0000
  C   C144      1.0  0.28575  0.81368  0.94606  1.0000
  C   C145      1.0  0.25023  0.82264  0.93419  1.0000
  C   C146      1.0  0.24870  0.83488  0.90056  1.0000
  C   C147      1.0  0.28283  0.83835  0.87885  1.0000
  C   C148      1.0  0.31826  0.82868  0.89058  1.0000
  H   H233      1.0  0.28669  0.80473  0.97211  1.0000
  H   H234      1.0  0.22387  0.82033  0.95115  1.0000
  H   H235      1.0  0.28190  0.84778  0.85287  1.0000
  H   H236      1.0  0.34453  0.83053  0.87347  1.0000
  C   C149      1.0  0.23380  0.97639  0.95553  1.0000
  S   S61       1.0  0.24789  0.92715  0.82253  1.0000
  H   H237      1.0  0.22338  0.95226  0.97355  1.0000
  H   H238      1.0  0.18972  0.92475  0.92850  1.0000
  H   H239      1.0  0.07845  0.88615  0.82103  1.0000
  H   H240      1.0  0.25752  0.90667  0.93493  1.0000
  H   H241      1.0  0.20369  0.93945  0.88576  1.0000
  H   H242      1.0  0.30519  0.73852  0.96231  1.0000
  C   C150      1.0  0.31768  0.61058  0.03215  1.0000
  H   H243      1.0  0.42641  0.63034  0.02514  1.0000
  C   C151      1.0  0.24741  0.05369  0.80005  1.0000
  C   C152      1.0  0.44221  0.60359  0.03177  1.0000
  C   C153      1.0  0.52337  0.72498  0.03065  1.0000
  S   S62       1.0  0.32148  0.76682  0.03137  1.0000
  S   S63       1.0  0.48436  0.69660  0.02137  1.0000
  H   H244      1.0  0.43077  0.57935  0.01835  1.0000
  S   S64       1.0  0.41455  0.78997  0.01960  1.0000
  Fe  Fe31      1.0  0.42663  0.72659  0.02554  1.0000
  Fe  Fe32      1.0  0.34132  0.70512  0.03576  1.0000
  C   C154      1.0  0.05401  0.88581  0.80665  1.0000
  C   C155      1.0  0.21486  0.05999  0.82277  1.0000
  H   H245      1.0  0.84139  0.20398  0.18756  1.0000
  H   H246      1.0  0.83575  0.14710  0.22907  1.0000
  H   H247      1.0  0.79210  0.20410  0.23564  1.0000
  S   S65       1.0  0.70755  0.30716  0.12303  1.0000
  H   H248      1.0  0.83146  0.11489  0.19581  1.0000
  C   C156      1.0  0.57936  0.36465  0.04700  1.0000
  Fe  Fe33      1.0  0.86546  0.26964  0.23876  1.0000
  S   S66       1.0  0.86574  0.29008  0.18479  1.0000
  S   S67       1.0  0.88255  0.20854  0.24984  1.0000
  H   H249      1.0  0.83838  0.17079  0.15480  1.0000
  H   H250      1.0  0.80558  0.21076  0.15912  1.0000
  C   C157      1.0  0.75142  0.29881  0.13964  1.0000
  C   C158      1.0  0.78641  0.30433  0.11941  1.0000
  C   C159      1.0  0.82137  0.30113  0.13351  1.0000
  C   C160      1.0  0.82151  0.29218  0.16785  1.0000
  C   C161      1.0  0.78656  0.28590  0.18803  1.0000
  C   C162      1.0  0.75152  0.28902  0.17389  1.0000
  H   H251      1.0  0.78658  0.31093  0.09281  1.0000
  H   H252      1.0  0.84837  0.30584  0.11776  1.0000
  H   H253      1.0  0.78642  0.27943  0.21459  1.0000
  H   H254      1.0  0.72443  0.28508  0.18965  1.0000
  H   H255      1.0  0.75225  0.17109  0.23938  1.0000
  H   H256      1.0  0.75453  0.21076  0.20869  1.0000
  H   H257      1.0  0.79509  0.11548  0.23127  1.0000
  N   N16       1.0  0.79349  0.16409  0.19605  1.0000
  C   C163      1.0  0.76592  0.14535  0.17625  1.0000
  C   C164      1.0  0.81488  0.13404  0.21367  1.0000
  C   C165      1.0  0.77209  0.18861  0.22094  1.0000
  C   C166      1.0  0.82089  0.18837  0.17337  1.0000
  S   S68       1.0  0.90726  0.29462  0.27074  1.0000
  H   H258      1.0  0.74475  0.12697  0.19269  1.0000
  H   H259      1.0  0.78107  0.12654  0.15724  1.0000
  Fe  Fe34      1.0  0.71398  0.35101  0.07957  1.0000
  H   H260      1.0  0.79986  0.44285  0.11697  1.0000
  H   H261      1.0  0.80312  0.36756  0.18522  1.0000
  H   H262      1.0  0.60606  0.35333  0.05480  1.0000
  H   H263      1.0  0.80116  0.47487  0.18665  1.0000
  H   H264      1.0  0.82426  0.40896  0.20141  1.0000
  H   H265      1.0  0.75262  0.46067  0.20237  1.0000
  Fe  Fe35      1.0  0.72762  0.43746  0.06567  1.0000
  S   S69       1.0  0.73460  0.49127  0.09424  1.0000
  C   C167      1.0  0.79684  0.39719  0.19400  1.0000
  H   H266      1.0  0.77583  0.39423  0.21695  1.0000
  H   H267      1.0  0.76296  0.48065  0.16027  1.0000
  H   H268      1.0  0.73265  0.42354  0.13923  1.0000
  H   H269      1.0  0.83822  0.43675  0.14316  1.0000
  H   H270      1.0  0.72315  0.40223  0.18092  1.0000
  H   H271      1.0  0.81655  0.39511  0.12749  1.0000
  H   H272      1.0  0.74987  0.37609  0.14860  1.0000
  H   H273      1.0  0.04315  0.08091  0.25648  1.0000
  S   S70       1.0  0.76735  0.38751  0.07053  1.0000
  C   C168      1.0  0.74526  0.40527  0.15876  1.0000
  C   C169      1.0  0.77431  0.46127  0.17983  1.0000
  C   C170      1.0  0.81035  0.42429  0.13748  1.0000
  N   N17       1.0  0.78169  0.42201  0.16754  1.0000
  S   S71       1.0  0.67410  0.40186  0.07932  1.0000
  H   H274      1.0  0.74928  0.16725  0.16264  1.0000
  S   S72       1.0  0.81507  0.26951  0.27863  1.0000
  C   C171      1.0  0.73946  0.53419  0.06904  1.0000
  H   H275      1.0  0.67139  0.50272  0.04747  1.0000
  Fe  Fe36      1.0  0.91972  0.23325  0.28574  1.0000
  H   H276      1.0  0.98677  0.28997  0.28018  1.0000
  H   H277      1.0  0.62084  0.50669  0.06098  1.0000
  C   C172      1.0  0.64204  0.49834  0.03980  1.0000
  S   S73       1.0  0.75738  0.30006  0.48795  1.0000
  Fe  Fe37      1.0  0.76154  0.43760  0.52490  1.0000
  H   H278      1.0  0.96402  0.34636  0.41423  1.0000
  S   S74       1.0  0.87393  0.22945  0.32957  1.0000
  H   H279      1.0  0.58850  0.46022  0.48491  1.0000
  H   H280      1.0  0.64934  0.34129  0.43824  1.0000
  H   H281      1.0  0.68182  0.31284  0.52120  1.0000
  H   H282      1.0  0.05257  0.19266  0.31141  1.0000
  S   S75       1.0  0.85033  0.33882  0.34622  1.0000
  H   H283      1.0  0.91482  0.27235  0.42565  1.0000
  H   H284      1.0  0.89480  0.27623  0.38626  1.0000
  C   C173      1.0  0.91380  0.29091  0.40242  1.0000
  H   H285      1.0  0.97988  0.30035  0.43013  1.0000
  C   C174      1.0  0.97682  0.31811  0.40676  1.0000
  N   N18       1.0  0.63731  0.31528  0.48803  1.0000
  H   H286      1.0  0.77626  0.07752  0.29742  1.0000
  H   H287      1.0  0.00643  0.32400  0.39400  1.0000
  H   H288      1.0  0.97837  0.32958  0.34025  1.0000
  C   C175      1.0  0.78249  0.31107  0.44832  1.0000
  C   C176      1.0  0.79751  0.34820  0.44028  1.0000
  C   C177      1.0  0.81784  0.35662  0.40865  1.0000
  C   C178      1.0  0.82305  0.32802  0.38493  1.0000
  C   C179      1.0  0.80770  0.29095  0.39282  1.0000
  C   C180      1.0  0.78747  0.28249  0.42453  1.0000
  H   H289      1.0  0.58432  0.32056  0.46524  1.0000
  C   C181      1.0  0.58001  0.44491  0.50868  1.0000
  H   H290      1.0  0.81142  0.26880  0.37456  1.0000
  H   H291      1.0  0.77580  0.25375  0.43066  1.0000
  H   H292      1.0  0.95410  0.24562  0.35760  1.0000
  N   N19       1.0  0.95274  0.29816  0.38463  1.0000
  C   C182      1.0  0.60833  0.43065  0.52830  1.0000
  C   C183      1.0  0.76359  0.53230  0.52117  1.0000
  C   C184      1.0  0.94954  0.32276  0.35402  1.0000
  H   H293      1.0  0.93484  0.35059  0.36000  1.0000
  C   C185      1.0  0.97082  0.26096  0.37521  1.0000
  H   H294      1.0  0.63095  0.25349  0.49434  1.0000
  H   H295      1.0  0.97283  0.24116  0.39754  1.0000
  H   H296      1.0  0.00063  0.26535  0.36246  1.0000
  H   H297      1.0  0.93221  0.30818  0.33651  1.0000
  S   S76       1.0  0.71515  0.39961  0.50963  1.0000
  C   C186      1.0  0.59534  0.32266  0.49012  1.0000
  H   H298      1.0  0.68984  0.33951  0.46228  1.0000
  H   H299      1.0  0.89922  0.31843  0.40969  1.0000
  Fe  Fe38      1.0  0.75463  0.35102  0.52110  1.0000
  H   H300      1.0  0.63849  0.43513  0.51962  1.0000
  C   C187      1.0  0.64566  0.27581  0.47659  1.0000
  H   H301      1.0  0.79358  0.37049  0.45842  1.0000
  S   S77       1.0  0.80358  0.38951  0.53163  1.0000
  H   H302      1.0  0.87589  0.14713  0.30839  1.0000
  H   H303      1.0  0.82962  0.38534  0.40261  1.0000
  H   H304      1.0  0.91549  0.08822  0.31117  1.0000
  Fe  Fe39      1.0  0.85833  0.28917  0.31194  1.0000
  H   H305      1.0  0.63613  0.27184  0.45137  1.0000
  H   H306      1.0  0.67729  0.26980  0.47472  1.0000
  S   S78       1.0  0.77327  0.49347  0.49516  1.0000
  C   C188      1.0  0.88513  0.08574  0.30810  1.0000
  C   C189      1.0  0.65796  0.34377  0.46396  1.0000
  H   H307      1.0  0.65190  0.37395  0.47150  1.0000
  C   C190      1.0  0.82339  0.11630  0.30279  1.0000
  C   C191      1.0  0.86267  0.11917  0.30652  1.0000
  H   H308      1.0  0.58829  0.35218  0.49910  1.0000
  C   C192      1.0  0.65044  0.31893  0.52155  1.0000
  C   C193      1.0  0.80663  0.07982  0.30042  1.0000
  H   H309      1.0  0.57880  0.30167  0.50803  1.0000
  S   S79       1.0  0.79564  0.15834  0.29982  1.0000
  C   C194      1.0  0.04998  0.22345  0.30614  1.0000
  C   C195      1.0  0.01590  0.23841  0.29545  1.0000
  H   H310      1.0  0.64554  0.34857  0.53058  1.0000
  S   S80       1.0  0.97738  0.20670  0.29207  1.0000
  Fe  Fe40      1.0  0.83538  0.20987  0.29230  1.0000
  C   C196      1.0  0.04350  0.30310  0.29333  1.0000
  H   H311      1.0  0.04105  0.33391  0.28819  1.0000
  C   C197      1.0  0.01275  0.27828  0.28885  1.0000
  C   C198      1.0  0.96832  0.35811  0.70258  1.0000
  H   H312      1.0  0.00423  0.33725  0.64345  1.0000
  H   H313      1.0  0.84188  0.10530  0.70604  1.0000
  S   S81       1.0  0.63171  0.39546  0.58568  1.0000
  S   S82       1.0  0.88659  0.30417  0.76798  1.0000
  S   S83       1.0  0.72991  0.34274  0.57502  1.0000
  Fe  Fe41      1.0  0.87947  0.24451  0.74994  1.0000
  S   S84       1.0  0.86502  0.23239  0.69796  1.0000
  S   S85       1.0  0.93429  0.22178  0.76753  1.0000
  H   H314      1.0  0.77455  0.08600  0.70518  1.0000
  H   H315      1.0  0.93343  0.28445  0.66083  1.0000
  C   C199      1.0  0.81491  0.33986  0.64973  1.0000
  C   C200      1.0  0.82719  0.30899  0.62985  1.0000
  C   C201      1.0  0.84120  0.27512  0.64488  1.0000
  C   C202      1.0  0.84239  0.27205  0.67972  1.0000
  C   C203      1.0  0.82764  0.30187  0.69963  1.0000
  C   C204      1.0  0.55816  0.40599  0.57029  1.0000
  H   H316      1.0  0.82760  0.31198  0.60284  1.0000
  H   H317      1.0  0.85229  0.25193  0.62937  1.0000
  H   H318      1.0  0.82688  0.29910  0.72660  1.0000
  H   H319      1.0  0.76679  0.12905  0.68010  1.0000
  C   C205      1.0  0.78136  0.17984  0.72607  1.0000
  H   H320      1.0  0.67464  0.47711  0.62410  1.0000
  N   N20       1.0  0.79299  0.13877  0.72509  1.0000
  H   H321      1.0  0.81258  0.13661  0.77421  1.0000
  H   H322      1.0  0.75129  0.18313  0.73802  1.0000
  H   H323      1.0  0.91291  0.38940  0.66805  1.0000
  H   H324      1.0  0.91230  0.14324  0.77415  1.0000
  H   H325      1.0  0.70022  0.52183  0.61369  1.0000
  H   H326      1.0  0.68845  0.51797  0.55454  1.0000
  H   H327      1.0  0.97204  0.06055  0.77397  1.0000
  H   H328      1.0  0.95037  0.35276  0.72707  1.0000
  C   C206      1.0  0.83266  0.13601  0.70815  1.0000
  H   H329      1.0  0.59296  0.51191  0.63111  1.0000
  H   H330      1.0  0.89705  0.34485  0.65268  1.0000
  H   H331      1.0  0.73614  0.11838  0.71848  1.0000
  H   H332      1.0  0.97581  0.28494  0.68299  1.0000
  H   H333      1.0  0.64027  0.51221  0.54355  1.0000
  C   C207      1.0  0.88838  0.08893  0.76252  1.0000
  C   C208      1.0  0.79167  0.12196  0.75973  1.0000
  H   H334      1.0  0.97778  0.38112  0.63732  1.0000
  N   N21       1.0  0.95047  0.34088  0.67487  1.0000
  Fe  Fe42      1.0  0.77513  0.38557  0.58479  1.0000
  C   C209      1.0  0.97472  0.34939  0.64282  1.0000
  C   C210      1.0  0.76637  0.11713  0.70637  1.0000
  C   C211      1.0  0.81451  0.33594  0.68464  1.0000
  C   C212      1.0  0.91168  0.35751  0.67303  1.0000
  H   H335      1.0  0.99726  0.34552  0.70545  1.0000
  C   C213      1.0  0.94713  0.29849  0.68106  1.0000
  H   H336      1.0  0.89726  0.09284  0.73589  1.0000
  H   H337      1.0  0.92898  0.29096  0.70494  1.0000
  H   H338      1.0  0.80467  0.35964  0.70010  1.0000
  H   H339      1.0  0.89277  0.35193  0.69697  1.0000
  H   H340      1.0  0.85374  0.15111  0.72212  1.0000
  H   H341      1.0  0.96193  0.33674  0.62144  1.0000
  Fe  Fe43      1.0  0.69408  0.39457  0.56426  1.0000
  C   C214      1.0  0.77328  0.53026  0.55412  1.0000
  S   S86       1.0  0.73694  0.43691  0.57880  1.0000
  C   C215      1.0  0.59736  0.41158  0.55937  1.0000
  N   N22       1.0  0.64413  0.51925  0.59619  1.0000
  C   C216      1.0  0.89700  0.11748  0.78419  1.0000
  C   C217      1.0  0.65965  0.50509  0.56320  1.0000
  H   H342      1.0  0.78332  0.19388  0.70039  1.0000
  H   H343      1.0  0.58560  0.50638  0.58776  1.0000
  H   H344      1.0  0.60875  0.46902  0.61037  1.0000
  S   S87       1.0  0.80498  0.38524  0.63163  1.0000
  C   C218      1.0  0.60614  0.50098  0.60682  1.0000
  H   H345      1.0  0.97190  0.38997  0.69860  1.0000
  H   H346      1.0  0.66064  0.51973  0.64635  1.0000
  C   C219      1.0  0.67105  0.50907  0.62121  1.0000
  H   H347      1.0  0.79911  0.09065  0.75981  1.0000
  H   H348      1.0  0.83518  0.14975  0.68237  1.0000
  H   H349      1.0  0.76247  0.12455  0.77367  1.0000
  H   H350      1.0  0.80053  0.19675  0.74052  1.0000
  H   H351      1.0  0.77162  0.55918  0.60076  1.0000
  S   S88       1.0  0.99405  0.31360  0.77565  1.0000
  H   H352      1.0  0.66324  0.47316  0.56440  1.0000
  H   H353      1.0  0.78849  0.50533  0.56313  1.0000
  H   H354      1.0  0.63486  0.29859  0.54064  1.0000
  H   H355      1.0  0.75771  0.50593  0.02329  1.0000
  H   H356      1.0  0.85045  0.16516  0.90956  1.0000
  H   H357      1.0  0.87424  0.18335  0.94334  1.0000
  S   S89       1.0  0.90721  0.26279  0.83958  1.0000
  Fe  Fe44      1.0  0.89799  0.20626  0.81600  1.0000
  H   H358      1.0  0.85550  0.24712  0.96629  1.0000
  H   H359      1.0  0.75083  0.35509  0.95033  1.0000
  S   S90       1.0  0.81813  0.36814  0.98466  1.0000
  S   S91       1.0  0.80099  0.30952  0.84061  1.0000
  C   C220      1.0  0.02831  0.27265  0.82467  1.0000
  Fe  Fe45      1.0  0.76230  0.37942  0.01614  1.0000
  S   S92       1.0  0.89567  0.14927  0.84535  1.0000
  H   H360      1.0  0.87432  0.35507  0.92885  1.0000
  H   H361      1.0  0.88309  0.20525  0.90181  1.0000
  H   H362      1.0  0.83248  0.24499  0.87828  1.0000
  C   C221      1.0  0.74979  0.53301  0.03445  1.0000
  H   H363      1.0  0.66386  0.47795  0.97655  1.0000
  C   C222      1.0  0.86733  0.07838  0.83154  1.0000
  C   C223      1.0  0.81298  0.35625  0.94339  1.0000
  Fe  Fe46      1.0  0.85419  0.28148  0.81605  1.0000
  C   C224      1.0  0.77296  0.33726  0.90104  1.0000
  C   C225      1.0  0.80602  0.32997  0.87912  1.0000
  C   C226      1.0  0.84256  0.33686  0.88897  1.0000
  C   C227      1.0  0.84602  0.35017  0.92107  1.0000
  H   H364      1.0  0.99956  0.26341  0.83471  1.0000
  C   C228      1.0  0.77642  0.35025  0.93323  1.0000
  H   H365      1.0  0.86813  0.33188  0.87194  1.0000
  H   H366      1.0  0.78631  0.25012  0.90169  1.0000
  H   H367      1.0  0.80054  0.20424  0.88481  1.0000
  N   N23       1.0  0.82804  0.21901  0.92817  1.0000
  C   C229      1.0  0.79821  0.20019  0.95255  1.0000
  C   C230      1.0  0.84257  0.25404  0.94261  1.0000
  C   C231      1.0  0.81102  0.22994  0.89695  1.0000
  C   C232      1.0  0.86032  0.19199  0.92051  1.0000
  H   H368      1.0  0.78648  0.17374  0.94238  1.0000
  H   H369      1.0  0.77357  0.22008  0.95883  1.0000
  H   H370      1.0  0.81005  0.19158  0.97644  1.0000
  H   H371      1.0  0.86514  0.26902  0.92484  1.0000
  H   H372      1.0  0.81896  0.27516  0.94851  1.0000
  C   C233      1.0  0.88622  0.11249  0.81867  1.0000
  H   H373      1.0  0.66328  0.52576  0.95736  1.0000
  H   H374      1.0  0.74465  0.33212  0.89337  1.0000
  H   H375      1.0  0.85894  0.07441  0.85825  1.0000
  S   S93       1.0  0.71154  0.33876  0.02525  1.0000
  S   S94       1.0  0.72699  0.43289  0.01020  1.0000
  S   S95       1.0  0.62414  0.40478  0.99645  1.0000
  N   N24       1.0  0.63674  0.52081  0.00844  1.0000
  C   C234      1.0  0.58009  0.39043  0.01914  1.0000
  Fe  Fe47      1.0  0.67619  0.39318  0.02410  1.0000
  C   C235      1.0  0.66622  0.50930  0.98138  1.0000
  H   H376      1.0  0.69593  0.51451  0.98792  1.0000
  C   C236      1.0  0.03364  0.29704  0.79579  1.0000
  H   H377      1.0  0.59280  0.52967  0.97524  1.0000
  H   H378      1.0  0.59419  0.48176  0.99396  1.0000
  C   C237      1.0  0.59789  0.51298  0.99868  1.0000
  S   S96       1.0  0.84271  0.22356  0.79628  1.0000
  H   H379      1.0  0.57488  0.52050  0.01874  1.0000
  Fe  Fe48      1.0  0.93896  0.27999  0.78916  1.0000
  H   H380      1.0  0.99923  0.06212  0.80951  1.0000
  H   H381      1.0  0.63844  0.46678  0.03681  1.0000
  C   C238      1.0  0.73098  0.56979  0.08346  1.0000
  Fe  Fe49      1.0  0.68283  0.76853  0.04650  1.0000
  H   H382      1.0  0.69961  0.78456  0.18917  1.0000
  H   H383      1.0  0.72388  0.63116  0.07427  1.0000
  S   S97       1.0  0.69768  0.71425  0.07453  1.0000
  H   H384      1.0  0.68175  0.74910  0.14158  1.0000
  C   C239      1.0  0.58642  0.76942  0.04544  1.0000
  S   S98       1.0  0.73253  0.80282  0.06044  1.0000
  Fe  Fe50      1.0  0.75002  0.74753  0.08531  1.0000
  S   S99       1.0  0.76462  0.74574  0.13873  1.0000
  H   H385      1.0  0.60313  0.82096  0.13872  1.0000
  C   C240      1.0  0.68018  0.82683  0.13579  1.0000
  H   H386      1.0  0.61586  0.84742  0.17359  1.0000
  Fe  Fe51      1.0  0.84209  0.90134  0.24211  1.0000
  S   S100      1.0  0.82549  0.90277  0.18927  1.0000
  H   H387      1.0  0.68267  0.85620  0.14565  1.0000
  S   S101      1.0  0.95307  0.83145  0.28342  1.0000
  H   H388      1.0  0.67297  0.82639  0.20288  1.0000
  S   S102      1.0  0.90189  0.91994  0.25031  1.0000
  H   H389      1.0  0.72320  0.57089  0.11026  1.0000
  S   S103      1.0  0.62536  0.79793  0.05447  1.0000
  H   H390      1.0  0.96757  0.78912  0.21667  1.0000
  H   H391      1.0  0.65162  0.77893  0.21011  1.0000
  H   H392      1.0  0.70987  0.81488  0.13193  1.0000
  C   C241      1.0  0.78225  0.78922  0.15233  1.0000
  C   C242      1.0  0.79430  0.81963  0.12947  1.0000
  C   C243      1.0  0.80710  0.85459  0.14107  1.0000
  C   C244      1.0  0.80804  0.85922  0.17550  1.0000
  C   C245      1.0  0.79583  0.82883  0.19832  1.0000
  C   C246      1.0  0.78328  0.79380  0.18675  1.0000
  H   H393      1.0  0.79421  0.81614  0.10283  1.0000
  H   H394      1.0  0.81662  0.87799  0.12328  1.0000
  H   H395      1.0  0.79538  0.83250  0.22492  1.0000
  H   H396      1.0  0.77380  0.77041  0.20455  1.0000
  C   C247      1.0  0.65272  0.76268  0.14493  1.0000
  C   C248      1.0  0.61551  0.81811  0.16323  1.0000
  N   N25       1.0  0.91505  0.79600  0.19356  1.0000
  C   C249      1.0  0.89108  0.77778  0.22273  1.0000
  C   C250      1.0  0.89921  0.78594  0.16229  1.0000
  C   C251      1.0  0.95514  0.78199  0.19315  1.0000
  C   C252      1.0  0.91473  0.83845  0.19623  1.0000
  H   H397      1.0  0.86053  0.78737  0.22361  1.0000
  H   H398      1.0  0.90178  0.78542  0.24682  1.0000
  H   H399      1.0  0.91667  0.79900  0.13971  1.0000
  H   H400      1.0  0.89837  0.75407  0.15962  1.0000
  H   H401      1.0  0.86915  0.79671  0.16181  1.0000
  H   H402      1.0  0.97419  0.79557  0.17174  1.0000
  H   H403      1.0  0.95666  0.75006  0.19103  1.0000
  H   H404      1.0  0.93114  0.85343  0.17402  1.0000
  H   H405      1.0  0.92785  0.84717  0.21884  1.0000
  H   H406      1.0  0.88485  0.84989  0.19821  1.0000
  N   N26       1.0  0.65464  0.80134  0.15898  1.0000
  H   H407      1.0  0.66927  0.83023  0.11073  1.0000
  H   H408      1.0  0.59537  0.79963  0.18056  1.0000
  H   H409      1.0  0.63352  0.74268  0.16162  1.0000
  H   H410      1.0  0.64153  0.76436  0.11993  1.0000
  S   S104      1.0  0.84216  0.84773  0.27564  1.0000
  H   H411      1.0  0.89113  0.74569  0.22186  1.0000
  C   C253      1.0  0.67028  0.79769  0.19179  1.0000
  C   C254      1.0  0.73135  0.60392  0.06312  1.0000
  H   H412      1.0  0.03503  0.81672  0.27328  1.0000
  S   S105      1.0  0.81376  0.93861  0.28184  1.0000
  Fe  Fe52      1.0  0.90018  0.86898  0.28667  1.0000
  C   C255      1.0  0.03075  0.84409  0.28516  1.0000
  S   S106      1.0  0.78746  0.72864  0.03984  1.0000
  H   H413      1.0  0.04220  0.99790  0.28656  1.0000
  H   H414      1.0  0.59603  0.79862  0.51127  1.0000
  H   H415      1.0  0.80321  0.99687  0.44947  1.0000
  C   C256      1.0  0.56651  0.78825  0.51511  1.0000
  C   C257      1.0  0.04729  0.02263  0.30247  1.0000
  Fe  Fe53      1.0  0.87359  0.95172  0.29370  1.0000
  C   C258      1.0  0.73414  0.59488  0.53099  1.0000
  H   H416      1.0  0.01980  0.03903  0.30650  1.0000
  S   S107      1.0  0.70524  0.69855  0.51383  1.0000
  N   N27       1.0  0.84024  0.66207  0.52157  1.0000
  C   C259      1.0  0.74438  0.56480  0.50950  1.0000
  H   H417      1.0  0.79611  0.63683  0.49574  1.0000
  H   H418      1.0  0.01527  0.94171  0.32846  1.0000
  S   S108      1.0  0.89779  0.00819  0.30774  1.0000
  Fe  Fe54      1.0  0.73787  0.75374  0.51778  1.0000
  Fe  Fe55      1.0  0.65330  0.73183  0.53416  1.0000
  C   C260      1.0  0.87026  0.65981  0.49272  1.0000
  H   H419      1.0  0.81644  0.01835  0.29918  1.0000
  H   H420      1.0  0.82857  0.93109  0.43784  1.0000
  H   H421      1.0  0.78550  0.00105  0.35964  1.0000
  H   H422      1.0  0.75868  0.98430  0.43379  1.0000
  S   S109      1.0  0.87635  0.90204  0.33107  1.0000
  H   H423      1.0  0.84741  0.01833  0.37991  1.0000
  Fe  Fe56      1.0  0.81833  0.88638  0.31639  1.0000
  S   S110      1.0  0.76618  0.87500  0.35375  1.0000
  H   H424      1.0  0.83690  0.60047  0.53190  1.0000
  H   H425      1.0  0.75951  0.95828  0.37681  1.0000
  H   H426      1.0  0.79922  0.68851  0.49142  1.0000
  C   C261      1.0  0.84872  0.98857  0.39156  1.0000
  H   H427      1.0  0.78397  0.91851  0.42212  1.0000
  H   H428      1.0  0.86530  0.99007  0.41363  1.0000
  C   C262      1.0  0.78326  0.79762  0.44603  1.0000
  C   C263      1.0  0.74683  0.81257  0.44158  1.0000
  C   C264      1.0  0.74179  0.83607  0.41298  1.0000
  C   C265      1.0  0.77304  0.84440  0.38865  1.0000
  C   C266      1.0  0.80944  0.82933  0.39302  1.0000
  C   C267      1.0  0.81455  0.80609  0.42175  1.0000
  H   H429      1.0  0.72257  0.80604  0.46015  1.0000
  H   H430      1.0  0.71358  0.84767  0.40965  1.0000
  H   H431      1.0  0.83364  0.83549  0.37428  1.0000
  H   H432      1.0  0.84276  0.79450  0.42509  1.0000
  S   S111      1.0  0.59630  0.71453  0.51747  1.0000
  S   S112      1.0  0.79058  0.76847  0.48171  1.0000
  N   N28       1.0  0.80971  0.97200  0.40101  1.0000
  C   C268      1.0  0.86863  0.04931  0.30531  1.0000
  C   C269      1.0  0.81292  0.93204  0.41509  1.0000
  H   H433      1.0  0.86584  0.97094  0.37276  1.0000
  H   H434      1.0  0.78549  0.02631  0.41646  1.0000
  H   H435      1.0  0.82865  0.91310  0.39652  1.0000
  H   H436      1.0  0.86911  0.68546  0.47503  1.0000
  C   C270      1.0  0.78879  0.97144  0.37093  1.0000
  C   C271      1.0  0.78832  0.99596  0.42633  1.0000
  C   C272      1.0  0.98796  0.89369  0.30801  1.0000
  H   H437      1.0  0.80443  0.95386  0.35137  1.0000
  H   H438      1.0  0.71814  0.61917  0.52216  1.0000
  C   C273      1.0  0.01983  0.91467  0.31611  1.0000
  H   H439      1.0  0.73642  0.56615  0.48412  1.0000
  H   H440      1.0  0.89968  0.65875  0.50103  1.0000
  H   H441      1.0  0.86636  0.63351  0.47835  1.0000
  H   H442      1.0  0.84270  0.72411  0.52368  1.0000
  H   H443      1.0  0.77871  0.66581  0.53030  1.0000
  C   C274      1.0  0.80190  0.66333  0.50919  1.0000
  H   H444      1.0  0.05371  0.00993  0.32724  1.0000
  H   H445      1.0  0.95926  0.90492  0.31387  1.0000
  C   C275      1.0  0.99325  0.85818  0.29282  1.0000
  C   C276      1.0  0.82934  0.04633  0.30140  1.0000
  S   S113      1.0  0.68492  0.78885  0.53324  1.0000
  C   C277      1.0  0.55893  0.74847  0.51772  1.0000
  Fe  Fe57      1.0  0.71428  0.68706  0.56772  1.0000
  H   H446      1.0  0.56053  0.86289  0.62326  1.0000
  S   S114      1.0  0.73262  0.63062  0.59102  1.0000
  C   C278      1.0  0.74430  0.59312  0.56378  1.0000
  C   C279      1.0  0.84235  0.62770  0.54454  1.0000
  S   S115      1.0  0.75112  0.73944  0.57034  1.0000
  C   C280      1.0  0.80204  0.82618  0.63981  1.0000
  S   S116      1.0  0.66025  0.71650  0.58803  1.0000
  C   C281      1.0  0.76570  0.84586  0.69108  1.0000
  C   C282      1.0  0.73113  0.83662  0.67795  1.0000
  C   C283      1.0  0.76756  0.81718  0.62667  1.0000
  C   C284      1.0  0.80127  0.84041  0.67206  1.0000
  N   N29       1.0  0.56985  0.80199  0.61775  1.0000
  H   H447      1.0  0.76484  0.85669  0.71602  1.0000
  Fe  Fe58      1.0  0.69631  0.77048  0.58586  1.0000
  S   S117      1.0  0.68852  0.80920  0.63005  1.0000
  H   H448      1.0  0.70377  0.84047  0.69290  1.0000
  S   S118      1.0  0.79636  0.92358  0.75339  1.0000
  C   C285      1.0  0.02790  0.88639  0.75316  1.0000
  Fe  Fe59      1.0  0.84262  0.88170  0.73615  1.0000
  S   S119      1.0  0.84532  0.85070  0.68774  1.0000
  H   H449      1.0  0.76862  0.80722  0.60152  1.0000
  S   S120      1.0  0.85306  0.02356  0.74644  1.0000
  H   H450      1.0  0.96586  0.88340  0.75532  1.0000
  S   S121      1.0  0.89179  0.92145  0.74329  1.0000
  S   S122      1.0  0.84376  0.85116  0.78652  1.0000
  Fe  Fe60      1.0  0.84559  0.96122  0.76444  1.0000
  C   C286      1.0  0.99028  0.88424  0.76972  1.0000
  H   H451      1.0  0.03224  0.88743  0.72600  1.0000
  H   H452      1.0  0.82942  0.82228  0.62488  1.0000
  C   C287      1.0  0.73201  0.82182  0.64584  1.0000
  H   H453      1.0  0.60080  0.78144  0.57282  1.0000
  H   H454      1.0  0.94810  0.95627  0.78480  1.0000
  C   C288      1.0  0.58219  0.76833  0.63785  1.0000
  H   H455      1.0  0.61981  0.57050  0.57474  1.0000
  H   H456      1.0  0.62850  0.57358  0.61801  1.0000
  H   H457      1.0  0.61196  0.77261  0.64488  1.0000
  H   H458      1.0  0.82480  0.69926  0.56243  1.0000
  H   H459      1.0  0.62649  0.81624  0.59359  1.0000
  H   H460      1.0  0.94243  0.99984  0.75985  1.0000
  C   C289      1.0  0.59739  0.80816  0.58729  1.0000
  H   H461      1.0  0.82023  0.62901  0.56676  1.0000
  C   C290      1.0  0.84615  0.69750  0.53977  1.0000
  H   H462      1.0  0.58245  0.74141  0.62358  1.0000
  H   H463      1.0  0.66792  0.57633  0.58554  1.0000
  C   C291      1.0  0.86805  0.05565  0.77505  1.0000
  H   H464      1.0  0.59827  0.84282  0.64577  1.0000
  C   C292      1.0  0.94531  0.98822  0.78580  1.0000
  H   H465      1.0  0.01428  0.00619  0.75243  1.0000
  C   C293      1.0  0.56918  0.83683  0.63786  1.0000
  C   C294      1.0  0.01463  0.99554  0.77898  1.0000
  H   H466      1.0  0.87538  0.69839  0.54839  1.0000
  H   H467      1.0  0.87106  0.62535  0.55409  1.0000
  H   H468      1.0  0.58791  0.83185  0.57048  1.0000
  H   H469      1.0  0.56265  0.76331  0.66148  1.0000
  H   H470      1.0  0.01893  0.96366  0.77885  1.0000
  C   C295      1.0  0.63977  0.56174  0.59351  1.0000
  C   C296      1.0  0.76380  0.56074  0.57534  1.0000
  H   H471      1.0  0.84176  0.02455  0.81944  1.0000
  H   H472      1.0  0.60342  0.88754  0.97526  1.0000
  H   H473      1.0  0.67447  0.79428  0.93918  1.0000
  S   S123      1.0  0.73537  0.64334  0.00176  1.0000
  C   C297      1.0  0.74993  0.56701  0.01411  1.0000
  H   H474      1.0  0.62364  0.79366  0.93509  1.0000
  H   H475      1.0  0.00509  0.00199  0.84576  1.0000
  H   H476      1.0  0.67968  0.85888  0.90872  1.0000
  H   H477      1.0  0.87930  0.81943  0.84219  1.0000
  Fe  Fe61      1.0  0.73344  0.70032  0.02666  1.0000
  H   H478      1.0  0.94461  0.80378  0.85701  1.0000
  S   S124      1.0  0.71349  0.75187  0.99731  1.0000
  S   S125      1.0  0.80401  0.82338  0.98187  1.0000
  H   H479      1.0  0.94778  0.05639  0.81572  1.0000
  S   S126      1.0  0.84603  0.93803  0.81741  1.0000
  H   H480      1.0  0.87742  0.81776  0.93469  1.0000
  Fe  Fe62      1.0  0.80123  0.89619  0.80468  1.0000
  S   S127      1.0  0.75105  0.87562  0.84131  1.0000
  C   C298      1.0  0.97429  0.04799  0.79971  1.0000
  C   C299      1.0  0.87667  0.78865  0.92390  1.0000
  C   C300      1.0  0.93243  0.80263  0.88392  1.0000
  H   H481      1.0  0.95066  0.78275  0.89791  1.0000
  H   H482      1.0  0.89371  0.76870  0.93896  1.0000
  H   H483      1.0  0.87071  0.84761  0.87850  1.0000
  C   C301      1.0  0.78935  0.83719  0.94263  1.0000
  C   C302      1.0  0.76385  0.81424  0.92736  1.0000
  C   C303      1.0  0.75215  0.82612  0.89617  1.0000
  C   C304      1.0  0.76657  0.86056  0.87986  1.0000
  C   C305      1.0  0.79298  0.88290  0.89465  1.0000
  C   C306      1.0  0.80429  0.87125  0.92603  1.0000
  H   H484      1.0  0.75355  0.78710  0.93929  1.0000
  H   H485      1.0  0.73239  0.80835  0.88437  1.0000
  H   H486      1.0  0.80403  0.90962  0.88225  1.0000
  H   H487      1.0  0.82432  0.88892  0.93761  1.0000
  C   C307      1.0  0.67429  0.85694  0.97621  1.0000
  H   H488      1.0  0.61848  0.57252  0.03352  1.0000
  H   H489      1.0  0.95330  0.99714  0.85090  1.0000
  C   C308      1.0  0.86868  0.81781  0.86937  1.0000
  N   N30       1.0  0.97859  0.00548  0.79974  1.0000
  Fe  Fe63      1.0  0.76503  0.78130  0.01378  1.0000
  H   H490      1.0  0.01211  0.88207  0.85037  1.0000
  H   H491      1.0  0.63856  0.58044  0.99044  1.0000
  H   H492      1.0  0.89939  0.75141  0.84724  1.0000
  H   H493      1.0  0.85786  0.74112  0.87690  1.0000
  C   C309      1.0  0.98451  0.88287  0.80479  1.0000
  H   H494      1.0  0.64003  0.78707  0.97579  1.0000
  C   C310      1.0  0.88844  0.75126  0.87440  1.0000
  H   H495      1.0  0.65007  0.89791  0.92403  1.0000
  H   H496      1.0  0.67044  0.84169  0.00136  1.0000
  H   H497      1.0  0.90528  0.72948  0.88787  1.0000
  S   S128      1.0  0.93781  0.88228  0.82631  1.0000
  H   H498      1.0  0.84614  0.77844  0.92786  1.0000
  N   N31       1.0  0.89157  0.79007  0.88794  1.0000
  H   H499      1.0  0.83758  0.80958  0.87185  1.0000
  H   H500      1.0  0.93560  0.83227  0.89314  1.0000
  C   C311      1.0  0.01642  0.88327  0.82322  1.0000
  C   C312      1.0  0.60575  0.85588  0.97171  1.0000
  N   N32       1.0  0.64418  0.84553  0.95521  1.0000
  C   C313      1.0  0.85790  0.05004  0.80966  1.0000
  C   C314      1.0  0.74012  0.60241  0.02833  1.0000
  H   H501      1.0  0.67376  0.88856  0.98019  1.0000
  C   C315      1.0  0.65091  0.86595  0.92190  1.0000
  H   H502      1.0  0.91773  0.99408  0.80139  1.0000
  H   H503      1.0  0.75721  0.56584  0.98723  1.0000
  H   H504      1.0  0.59985  0.84101  0.99697  1.0000
  H   H505      1.0  0.56563  0.68148  0.01668  1.0000
  H   H506      1.0  0.70369  0.84988  0.96444  1.0000
  C   C316      1.0  0.98002  0.99003  0.83453  1.0000
  Fe  Fe64      1.0  0.88854  0.89499  0.79543  1.0000
  C   C317      1.0  0.64569  0.80328  0.95110  1.0000
  H   H507      1.0  0.98265  0.95794  0.83547  1.0000
  C   C318      1.0  0.64083  0.56254  0.01388  1.0000
  H   H508      1.0  0.62887  0.85793  0.90528  1.0000
  C   C319      1.0  0.59244  0.73232  0.03342  1.0000
  H   H509      1.0  0.58228  0.84730  0.95675  1.0000
  H   H510      1.0  0.62134  0.72071  0.02976  1.0000
  H   H511      1.0  0.66937  0.56912  0.02230  1.0000
  C   C320      1.0  0.56091  0.71013  0.02607  1.0000
  H   H512      1.0  0.04042  0.00824  0.78861  1.0000
