data_image0
_chemical_formula_structural       C2H2CFeHCS2CSHNCH2C3SFeCS2FeSH2CHC2HFeH2SFeH3CH2SH3NH3C4HCH2CHCHFeH2C2H3SC3HNSHFeCSFeH3CH2C2HS2H3CH3C4HCSHCH2Fe2HS3C2H2FeHCSCHSC2HSCHFeSC2FeCHC2H2CHSH2CHNH3CH2CHCH3CFeH4SHFeSHCSCNH2C4H2SH2CHC2HCHC2NH7FeCHCH2SH3SHFe2SCHSH2CSCH3NHCHC3SCHC2HC2HCHSC2H3CH2SH3FeHCH4FeNSH2C2H3CH4SHCFeNC2HCHFeH2CHCNC3HCH2C3HS2HCSCHCH2CH3SFeHCHFeCH5SH2SHNSCH6SH2C2SC2SCHFeCHC3H2FeH2C2SHFeHC2SFeHCH6SHSHC3SC2H4CNHCH2CSC2HC3H2CH3CH2C2H2C2HFeCHSCFeH2SHS2H3NFeCSCH6CH3CH2CH3NH4SH2CHCHCHSH2S2FeHC2SHNCSCSC2H4C2H4C3HC3SH2CH3FeH3C2H2CFeH3CH3SC2FeC5HC2HC2HCH2C2H3C2H3CH2NH2CNHCSFeSHNS2FeHSC3H2CHS2C2HC3FeH3C2SHCHC2FeH3SH3NFeCS2H3CSH2FeS2FeHFeC2H2CH2S2H2CH4SHC2SH3Fe2SH5CH2C2HFeCHCH2C2HSFeSHS2C2SH4NSHCSHCH5CHCH2C3HFeHNH2SC2SH2CH2CNH3CH5FeCH4CNC2NC5H2SH2CH2SH4CH4CHCHCNFeCFeSH7C3H4C2SC2HCHSHCHSC2H3CHFe2H2SHCNSCSHSC2HSCH2C3FeH2CH2CH3C2HCH3CH2CHCSH6SHNCHSCFeC2HFeSH2CHCHSHSCHNSFeC2H3CH2SFeC3HSCFeSC2HCFeHCHSCSH2CSHCHCH5CH3C2H5CH7C2H7CHCNCH2CSH3CH5NH5CHSFeSFeCFeS2HC2H4CHSCH2CSHCHCHCHFe2HC2SHCH2NSCSCH2SHFeNCFeH2SH3C5HCHSNS2HCSH3CH4CH3CNSH2FeHS2FeH2CH5C2SCH3CHCH2C3HSCH4CHCNFeCH4C2H2C2HFeHSFeSCFeSHS2CHCHCNSHFeHC7H3FeHSH2NH2SHSCHCH3CSH3C2HFe2H2SHCH3CHCHCHCHCH3C2H4CH7CSNH2CH4Fe2SFeSFeS2HC5H3C3FeHC2HC2HSH2CFeH2SCHCH4CH2CHSC2HCHC2NH3C2H2NC4H12C2SH2NCH7CSHSCH2CHC2HCSHCSHSHSC2HSH2C2HCFeH3CSCH2SC2HC2FeSHCH2FeCH3C2H4C4H2NH2CSC3HCSH2NHCH2FeHCS2FeNHSHCHFeHCHCH3C2H2FeS2FeSHFeHFeS3H2FeSC3FeHCHC2SH2C6H2CFeCHSHS3H4C3H2C6H5CH2SHFeCHC2HCHSCSFeNH2SHNC2H5C3HCHSHCH2CFeS2C2NHCH2SH2FeHFeH3CH2C2H2CH2SHCHNHSCH3FeHCNH4C2HSH2CH2SHCH5C2H8CSHC2NFeHCHCHCHNHCH3CHSH2CFe2SH2CSHC2HS2HCH4CSCH6CHCH2CH2FeH4C3H2SHCH2NHSH2CHCH3CH4CNSHC2HCH3C2HCHCS2HSHSCHCH2CSHSHSH2CHS2CHCSHSCH5SHC2NC2H4CNCHSH2FeCHSCHC2SCH3CH2NH2Fe2HFeCSHFeH3C2SHCSH2C2FeC2HC3H5SC2SCHCHCFeSHFeSFeSFeS5H3CSCHNFeHC6H6CSC3SHCHNC2HC2H3C2FeC4H7C2HC2FeHCH3CHCFeHCH2CH2SH2CH4NH4FeH7FeH2C3HCH3C2NH4SHCH5CHSFeSCSC6H4CHCHSHCH6CHSH2NSCH2SCFe2SHCHC2H2CHC2HCH2SHNHFeH4CSNH2C2H3NHFe2HSC3H4SHCHCSH2SH2C2
_chemical_formula_sum              "C640 H1024 Fe128 S256 N64"
_cell_length_a       68.8051
_cell_length_b       68.9167
_cell_length_c       32.5207
_cell_angle_alpha    79.0193
_cell_angle_beta     77.6345
_cell_angle_gamma    76.4253

_space_group_name_H-M_alt    "P 1"
_space_group_IT_number       1

loop_
  _space_group_symop_operation_xyz
  'x, y, z'

loop_
  _atom_site_type_symbol
  _atom_site_label
  _atom_site_symmetry_multiplicity
  _atom_site_fract_x
  _atom_site_fract_y
  _atom_site_fract_z
  _atom_site_occupancy
  C   C1        1.0  0.01210  0.08244  0.30982  1.0000
  C   C2        1.0  0.23375  0.08551  0.40896  1.0000
  H   H1        1.0  0.22298  0.16409  0.09274  1.0000
  H   H2        1.0  0.01649  0.07793  0.20553  1.0000
  C   C3        1.0  0.11487  0.10949  0.30327  1.0000
  Fe  Fe1       1.0  0.18672  0.12671  0.29708  1.0000
  H   H3        1.0  0.01787  0.13106  0.06167  1.0000
  C   C4        1.0  0.08245  0.13287  0.31478  1.0000
  S   S1        1.0  0.19140  0.06890  0.30583  1.0000
  S   S2        1.0  0.04276  0.13052  0.24428  1.0000
  C   C5        1.0  0.13130  0.18707  0.34940  1.0000
  S   S3        1.0  0.07220  0.16768  0.26065  1.0000
  H   H4        1.0  0.05588  0.05536  0.28085  1.0000
  N   N1        1.0  0.23220  0.13194  0.10945  1.0000
  C   C6        1.0  0.23542  0.05505  0.19329  1.0000
  H   H5        1.0  0.11163  0.14841  0.22132  1.0000
  H   H6        1.0  0.20982  0.11332  0.12890  1.0000
  C   C7        1.0  0.00781  0.06355  0.32844  1.0000
  C   C8        1.0  0.22485  0.04042  0.21736  1.0000
  C   C9        1.0  0.20084  0.16924  0.25096  1.0000
  S   S4        1.0  0.17560  0.11338  0.25106  1.0000
  Fe  Fe2       1.0  0.16337  0.09344  0.30911  1.0000
  C   C10       1.0  0.09581  0.11517  0.32830  1.0000
  S   S5        1.0  0.01331  0.09974  0.34183  1.0000
  S   S6        1.0  0.02038  0.17765  0.21858  1.0000
  Fe  Fe3       1.0  0.01901  0.14723  0.20595  1.0000
  S   S7        1.0  0.02256  0.14007  0.14013  1.0000
  H   H7        1.0  0.05777  0.08422  0.22271  1.0000
  H   H8        1.0  0.23449  0.05583  0.31735  1.0000
  C   C11       1.0  0.20882  0.19240  0.18666  1.0000
  H   H9        1.0  0.22560  0.00855  0.23697  1.0000
  C   C12       1.0  0.10724  0.13921  0.25129  1.0000
  C   C13       1.0  0.08830  0.14501  0.27650  1.0000
  H   H10       1.0  0.14806  0.18334  0.33851  1.0000
  Fe  Fe4       1.0  0.20441  0.09007  0.25145  1.0000
  H   H11       1.0  0.14181  0.17647  0.27034  1.0000
  H   H12       1.0  0.20967  0.04494  0.23471  1.0000
  S   S8        1.0  0.17234  0.10860  0.35547  1.0000
  Fe  Fe5       1.0  0.20171  0.08610  0.34639  1.0000
  H   H13       1.0  0.08143  0.07065  0.19697  1.0000
  H   H14       1.0  0.01856  0.10204  0.25067  1.0000
  H   H15       1.0  0.12506  0.14940  0.37706  1.0000
  C   C14       1.0  0.12789  0.15392  0.34194  1.0000
  H   H16       1.0  0.14447  0.14920  0.33037  1.0000
  H   H17       1.0  0.12009  0.14500  0.32815  1.0000
  S   S9        1.0  0.21684  0.10561  0.29154  1.0000
  H   H18       1.0  0.13483  0.11675  0.24440  1.0000
  H   H19       1.0  0.12843  0.18334  0.38471  1.0000
  H   H20       1.0  0.21422  0.11298  0.38620  1.0000
  N   N2        1.0  0.12076  0.17582  0.32975  1.0000
  H   H21       1.0  0.07647  0.04574  0.30980  1.0000
  H   H22       1.0  0.12629  0.20366  0.34095  1.0000
  H   H23       1.0  0.09261  0.19763  0.33548  1.0000
  C   C15       1.0  0.12046  0.12140  0.26454  1.0000
  C   C16       1.0  0.07271  0.05282  0.27797  1.0000
  C   C17       1.0  0.09860  0.18127  0.34474  1.0000
  C   C18       1.0  0.12528  0.18103  0.28291  1.0000
  H   H24       1.0  0.23411  0.13520  0.40275  1.0000
  C   C19       1.0  0.01538  0.08750  0.26545  1.0000
  H   H25       1.0  0.09462  0.17763  0.37996  1.0000
  H   H26       1.0  0.09023  0.17290  0.33074  1.0000
  C   C20       1.0  0.19474  0.18606  0.22161  1.0000
  H   H27       1.0  0.23175  0.11938  0.17545  1.0000
  C   C21       1.0  0.23550  0.16610  0.21219  1.0000
  H   H28       1.0  0.11703  0.17333  0.26714  1.0000
  Fe  Fe6       1.0  0.04198  0.16048  0.26193  1.0000
  H   H29       1.0  0.12063  0.19752  0.27259  1.0000
  H   H30       1.0  0.05367  0.08888  0.29864  1.0000
  C   C22       1.0  0.07050  0.08607  0.29402  1.0000
  C   C23       1.0  0.22914  0.18229  0.18158  1.0000
  H   H31       1.0  0.11022  0.05727  0.23700  1.0000
  H   H32       1.0  0.07501  0.10090  0.28282  1.0000
  H   H33       1.0  0.09145  0.10597  0.35830  1.0000
  S   S10       1.0  0.13164  0.08760  0.32061  1.0000
  C   C24       1.0  0.01421  0.07380  0.23976  1.0000
  C   C25       1.0  0.22126  0.15936  0.24655  1.0000
  C   C26       1.0  0.23294  0.13370  0.15359  1.0000
  H   H34       1.0  0.07975  0.09544  0.20913  1.0000
  N   N3        1.0  0.08005  0.07192  0.26319  1.0000
  S   S11       1.0  0.18260  0.16029  0.29188  1.0000
  H   H35       1.0  0.07960  0.04172  0.25549  1.0000
  Fe  Fe7       1.0  0.01679  0.12865  0.29861  1.0000
  C   C27       1.0  0.21233  0.12764  0.10792  1.0000
  S   S12       1.0  0.21962  0.06975  0.39734  1.0000
  Fe  Fe8       1.0  0.99630  0.17172  0.27533  1.0000
  H   H36       1.0  0.20390  0.20498  0.16314  1.0000
  H   H37       1.0  0.07494  0.08024  0.32577  1.0000
  H   H38       1.0  0.17898  0.19377  0.22502  1.0000
  C   C28       1.0  0.07454  0.08092  0.22113  1.0000
  H   H39       1.0  0.10708  0.06158  0.29112  1.0000
  H   H40       1.0  0.06775  0.13731  0.33427  1.0000
  C   C29       1.0  0.10237  0.06801  0.25976  1.0000
  C   C30       1.0  0.23378  0.01983  0.21821  1.0000
  H   H41       1.0  0.10832  0.08219  0.24870  1.0000
  S   S13       1.0  0.01810  0.15723  0.32023  1.0000
  S   S14       1.0  0.22468  0.08089  0.19137  1.0000
  H   H42       1.0  0.19958  0.13986  0.11888  1.0000
  H   H43       1.0  0.23408  0.15063  0.04815  1.0000
  H   H44       1.0  0.22020  0.14552  0.16614  1.0000
  C   C31       1.0  0.22785  0.10645  0.39949  1.0000
  H   H45       1.0  0.22606  0.14651  0.26952  1.0000
  H   H46       1.0  0.21125  0.12607  0.07511  1.0000
  H   H47       1.0  0.23854  0.17824  0.30233  1.0000
  C   C32       1.0  0.23484  0.15116  0.08173  1.0000
  C   C33       1.0  0.00910  0.05527  0.25851  1.0000
  C   C34       1.0  0.23918  0.11902  0.40865  1.0000
  C   C35       1.0  0.00601  0.05009  0.30282  1.0000
  H   H48       1.0  0.00557  0.05940  0.36259  1.0000
  C   C36       1.0  0.00287  0.13458  0.08067  1.0000
  S   S15       1.0  0.00464  0.03946  0.22698  1.0000
  H   H49       1.0  0.00228  0.03566  0.31736  1.0000
  C   C37       1.0  0.00067  0.13953  0.12136  1.0000
  H   H50       1.0  0.99799  0.07539  0.14352  1.0000
  H   H51       1.0  0.99420  0.07924  0.42514  1.0000
  Fe  Fe9       1.0  0.09041  0.69991  0.19579  1.0000
  Fe  Fe10      1.0  0.05145  0.69376  0.25442  1.0000
  H   H52       1.0  0.18367  0.71788  0.15601  1.0000
  S   S16       1.0  0.03493  0.67541  0.30893  1.0000
  S   S17       1.0  0.06613  0.68388  0.19122  1.0000
  S   S18       1.0  0.07687  0.70721  0.26145  1.0000
  C   C38       1.0  0.11444  0.72554  0.31820  1.0000
  C   C39       1.0  0.12847  0.72482  0.19168  1.0000
  H   H53       1.0  0.99938  0.67262  0.37268  1.0000
  H   H54       1.0  0.02813  0.68197  0.14883  1.0000
  Fe  Fe11      1.0  0.23563  0.71875  0.19779  1.0000
  H   H55       1.0  0.22991  0.69145  0.09077  1.0000
  C   C40       1.0  0.19613  0.71435  0.12879  1.0000
  S   S19       1.0  0.07620  0.72988  0.16280  1.0000
  C   C41       1.0  0.15128  0.69669  0.22441  1.0000
  H   H56       1.0  0.13065  0.72687  0.30872  1.0000
  S   S20       1.0  0.12395  0.68732  0.18518  1.0000
  C   C42       1.0  0.16020  0.71019  0.23783  1.0000
  C   C43       1.0  0.01137  0.71090  0.12450  1.0000
  H   H57       1.0  0.00340  0.66538  0.27980  1.0000
  S   S21       1.0  0.21439  0.70829  0.25590  1.0000
  C   C44       1.0  0.00333  0.68699  0.37173  1.0000
  H   H58       1.0  0.15637  0.68058  0.23260  1.0000
  Fe  Fe12      1.0  0.05054  0.71466  0.16412  1.0000
  S   S22       1.0  0.03360  0.72300  0.22702  1.0000
  C   C45       1.0  0.21528  0.68953  0.08423  1.0000
  C   C46       1.0  0.13532  0.70404  0.20157  1.0000
  Fe  Fe13      1.0  0.06035  0.73580  0.22836  1.0000
  C   C47       1.0  0.01346  0.69054  0.14255  1.0000
  H   H59       1.0  0.21218  0.70009  0.05485  1.0000
  C   C48       1.0  0.17950  0.69080  0.11045  1.0000
  C   C49       1.0  0.02087  0.69170  0.34477  1.0000
  H   H60       1.0  0.07433  0.73586  0.31769  1.0000
  H   H61       1.0  0.20517  0.66323  0.15404  1.0000
  C   C50       1.0  0.02631  0.71005  0.34454  1.0000
  H   H62       1.0  0.17201  0.70450  0.25681  1.0000
  S   S23       1.0  0.03206  0.72306  0.11198  1.0000
  H   H63       1.0  0.03994  0.71370  0.32413  1.0000
  H   H64       1.0  0.99848  0.66525  0.16393  1.0000
  C   C51       1.0  0.99594  0.71954  0.39607  1.0000
  H   H65       1.0  0.11317  0.71461  0.34812  1.0000
  N   N4        1.0  0.19857  0.69346  0.12059  1.0000
  H   H66       1.0  0.18070  0.67517  0.10432  1.0000
  H   H67       1.0  0.99538  0.68337  0.23611  1.0000
  H   H68       1.0  0.16657  0.69360  0.13714  1.0000
  C   C52       1.0  0.99666  0.68111  0.15118  1.0000
  H   H69       1.0  0.21782  0.68062  0.16717  1.0000
  H   H70       1.0  0.17528  0.70143  0.08194  1.0000
  C   C53       1.0  0.15314  0.73101  0.22824  1.0000
  H   H71       1.0  0.21766  0.67385  0.07736  1.0000
  C   C54       1.0  0.01411  0.72374  0.37095  1.0000
  H   H72       1.0  0.21025  0.71682  0.13667  1.0000
  H   H73       1.0  0.11643  0.73058  0.17339  1.0000
  H   H74       1.0  0.19132  0.68187  0.18703  1.0000
  C   C55       1.0  0.20342  0.67914  0.15883  1.0000
  Fe  Fe14      1.0  0.23138  0.72183  0.29115  1.0000
  H   H75       1.0  0.11077  0.71878  0.29301  1.0000
  H   H76       1.0  0.07850  0.73281  0.37134  1.0000
  H   H77       1.0  0.19254  0.72561  0.10066  1.0000
  H   H78       1.0  0.01607  0.75056  0.04051  1.0000
  S   S24       1.0  0.00066  0.82723  0.13092  1.0000
  H   H79       1.0  0.09780  0.75191  0.25783  1.0000
  Fe  Fe15      1.0  0.23279  0.75923  0.22510  1.0000
  S   S25       1.0  0.05378  0.76541  0.25311  1.0000
  H   H80       1.0  0.03015  0.80561  0.26135  1.0000
  C   C56       1.0  0.01654  0.81116  0.16421  1.0000
  S   S26       1.0  0.16233  0.74809  0.24869  1.0000
  C   C57       1.0  0.13745  0.73828  0.20479  1.0000
  N   N5        1.0  0.10101  0.74539  0.32370  1.0000
  H   H81       1.0  0.00220  0.89523  0.36420  1.0000
  H   H82       1.0  0.03362  0.77619  0.05177  1.0000
  C   C58       1.0  0.02784  0.79297  0.15158  1.0000
  C   C59       1.0  0.03937  0.77910  0.17881  1.0000
  C   C60       1.0  0.04028  0.78357  0.21837  1.0000
  C   C61       1.0  0.02949  0.80206  0.23075  1.0000
  H   H83       1.0  0.00880  0.82983  0.21380  1.0000
  H   H84       1.0  0.01009  0.86714  0.32165  1.0000
  S   S27       1.0  0.21590  0.74913  0.18399  1.0000
  H   H85       1.0  0.04746  0.76490  0.16902  1.0000
  H   H86       1.0  0.01847  0.73782  0.37100  1.0000
  C   C62       1.0  0.07988  0.74275  0.34004  1.0000
  H   H87       1.0  0.09811  0.76960  0.35903  1.0000
  C   C63       1.0  0.10194  0.75878  0.28231  1.0000
  C   C64       1.0  0.99482  0.77813  0.09018  1.0000
  H   H88       1.0  0.01081  0.76528  0.99079  1.0000
  C   C65       1.0  0.01739  0.81577  0.20387  1.0000
  H   H89       1.0  0.02746  0.78934  0.12106  1.0000
  C   C66       1.0  0.02222  0.78806  0.03643  1.0000
  C   C67       1.0  0.00506  0.76310  0.02566  1.0000
  N   N6        1.0  0.00247  0.78181  0.04389  1.0000
  H   H90       1.0  0.01313  0.76224  0.30101  1.0000
  H   H91       1.0  0.12378  0.75681  0.34249  1.0000
  H   H92       1.0  0.02855  0.79088  0.00188  1.0000
  H   H93       1.0  0.02070  0.80222  0.04976  1.0000
  H   H94       1.0  0.00492  0.90222  0.28467  1.0000
  H   H95       1.0  0.00569  0.76615  0.10671  1.0000
  H   H96       1.0  0.09120  0.77353  0.28469  1.0000
  Fe  Fe16      1.0  0.19612  0.73986  0.24559  1.0000
  C   C68       1.0  0.99797  0.77186  0.31067  1.0000
  H   H97       1.0  0.11745  0.76192  0.27007  1.0000
  C   C69       1.0  0.10786  0.75457  0.35420  1.0000
  H   H98       1.0  0.06928  0.75748  0.34387  1.0000
  H   H99       1.0  0.00420  0.76520  0.23019  1.0000
  S   S28       1.0  0.21128  0.75266  0.28591  1.0000
  H   H100      1.0  0.10751  0.74483  0.38575  1.0000
  H   H101      1.0  0.99984  0.78783  0.30377  1.0000
  H   H102      1.0  0.13214  0.75438  0.19684  1.0000
  S   S29       1.0  0.24359  0.78846  0.20268  1.0000
  H   H103      1.0  0.99581  0.73712  0.28897  1.0000
  Fe  Fe17      1.0  0.39473  0.22188  0.83432  1.0000
  Fe  Fe18      1.0  0.27821  0.17331  0.13384  1.0000
  S   S30       1.0  0.29275  0.16519  0.19163  1.0000
  C   C70       1.0  0.25119  0.07716  0.42704  1.0000
  H   H104      1.0  0.26385  0.11788  0.09627  1.0000
  S   S31       1.0  0.29040  0.14341  0.11085  1.0000
  H   H105      1.0  0.47945  0.20533  0.67046  1.0000
  H   H106      1.0  0.27702  0.01273  0.30200  1.0000
  C   C71       1.0  0.25399  0.18187  0.29360  1.0000
  S   S32       1.0  0.24581  0.18911  0.13505  1.0000
  C   C72       1.0  0.25493  0.04906  0.17027  1.0000
  H   H107      1.0  0.36401  0.18892  0.52084  1.0000
  H   H108      1.0  0.24422  0.16818  0.37828  1.0000
  H   H109      1.0  0.46223  0.06731  0.62479  1.0000
  N   N7        1.0  0.26659  0.04417  0.30805  1.0000
  H   H110      1.0  0.36421  0.21060  0.42883  1.0000
  C   C73       1.0  0.25699  0.11071  0.42537  1.0000
  H   H111      1.0  0.29891  0.03868  0.28735  1.0000
  C   C74       1.0  0.28518  0.05044  0.28250  1.0000
  C   C75       1.0  0.26313  0.08974  0.43419  1.0000
  C   C76       1.0  0.37802  0.10785  0.52085  1.0000
  S   S33       1.0  0.27084  0.12693  0.43612  1.0000
  C   C77       1.0  0.26956  0.14784  0.31996  1.0000
  H   H112      1.0  0.25553  0.06098  0.43536  1.0000
  C   C78       1.0  0.35232  0.20559  0.04829  1.0000
  C   C79       1.0  0.32940  0.17787  0.97774  1.0000
  H   H113      1.0  0.27925  0.02406  0.15459  1.0000
  C   C80       1.0  0.44767  0.07739  0.63636  1.0000
  C   C81       1.0  0.26417  0.02546  0.29566  1.0000
  H   H114      1.0  0.28463  0.05333  0.24783  1.0000
  C   C82       1.0  0.26795  0.04060  0.35367  1.0000
  H   H115      1.0  0.28730  0.06458  0.29121  1.0000
  S   S34       1.0  0.30694  0.01244  0.22111  1.0000
  C   C83       1.0  0.32743  0.21800  0.93835  1.0000
  C   C84       1.0  0.26404  0.02854  0.17198  1.0000
  H   H116      1.0  0.46766  0.22485  0.83271  1.0000
  H   H117      1.0  0.26354  0.02757  0.26126  1.0000
  H   H118      1.0  0.28700  0.19096  0.31185  1.0000
  C   C85       1.0  0.47029  0.23313  0.55287  1.0000
  H   H119      1.0  0.36022  0.98926  0.43576  1.0000
  H   H120      1.0  0.43194  0.22063  0.85082  1.0000
  S   S35       1.0  0.47630  0.20843  0.54041  1.0000
  H   H121      1.0  0.29690  0.22355  0.97370  1.0000
  H   H122      1.0  0.36206  0.00644  0.38668  1.0000
  H   H123      1.0  0.34741  0.22871  0.11018  1.0000
  Fe  Fe19      1.0  0.30468  0.11604  0.42850  1.0000
  H   H124      1.0  0.37711  0.99392  0.31882  1.0000
  C   C86       1.0  0.24865  0.11532  0.09481  1.0000
  H   H125      1.0  0.27672  0.14423  0.28747  1.0000
  H   H126      1.0  0.27102  0.05403  0.36344  1.0000
  H   H127      1.0  0.42609  0.10985  0.67339  1.0000
  H   H128      1.0  0.24991  0.02077  0.31354  1.0000
  Fe  Fe20      1.0  0.30715  0.13638  0.16551  1.0000
  N   N8        1.0  0.26757  0.16944  0.32255  1.0000
  S   S36       1.0  0.30837  0.10811  0.21255  1.0000
  H   H129      1.0  0.45321  0.11857  0.56188  1.0000
  H   H130      1.0  0.43534  0.07310  0.62488  1.0000
  C   C87       1.0  0.48341  0.14048  0.69340  1.0000
  C   C88       1.0  0.48626  0.12331  0.72407  1.0000
  H   H131      1.0  0.30935  0.02652  0.39618  1.0000
  H   H132      1.0  0.38662  0.19928  0.76712  1.0000
  H   H133      1.0  0.27667  0.08328  0.44783  1.0000
  C   C89       1.0  0.42900  0.11163  0.63796  1.0000
  H   H134      1.0  0.24975  0.15480  0.08194  1.0000
  H   H135      1.0  0.28033  0.02762  0.36108  1.0000
  H   H136      1.0  0.47299  0.22024  0.73545  1.0000
  H   H137      1.0  0.38762  0.17139  0.50913  1.0000
  S   S37       1.0  0.30308  0.18802  0.09387  1.0000
  H   H138      1.0  0.29854  0.18801  0.00802  1.0000
  C   C90       1.0  0.25349  0.01389  0.19594  1.0000
  Fe  Fe21      1.0  0.31674  0.15732  0.07560  1.0000
  N   N9        1.0  0.45072  0.22275  0.69656  1.0000
  C   C91       1.0  0.31054  0.21232  0.96625  1.0000
  C   C92       1.0  0.31154  0.19227  0.98597  1.0000
  H   H139      1.0  0.39031  0.09978  0.45840  1.0000
  C   C93       1.0  0.34679  0.19960  0.24348  1.0000
  H   H140      1.0  0.34461  0.09284  0.26110  1.0000
  Fe  Fe22      1.0  0.34322  0.10477  0.46659  1.0000
  H   H141      1.0  0.35334  0.11019  0.28396  1.0000
  H   H142      1.0  0.36437  0.04317  0.27781  1.0000
  C   C94       1.0  0.35006  0.19250  0.28527  1.0000
  H   H143      1.0  0.37875  0.12964  0.23831  1.0000
  C   C95       1.0  0.40836  0.11740  0.47599  1.0000
  N   N10       1.0  0.37016  0.10434  0.22227  1.0000
  C   C96       1.0  0.34694  0.17330  0.30482  1.0000
  C   C97       1.0  0.33817  0.05121  0.15287  1.0000
  C   C98       1.0  0.35226  0.03969  0.30353  1.0000
  H   H144      1.0  0.35424  0.10821  0.17024  1.0000
  C   C99       1.0  0.34611  0.05092  0.33728  1.0000
  H   H145      1.0  0.32197  0.10176  0.12429  1.0000
  H   H146      1.0  0.38066  0.09648  0.15907  1.0000
  C   C100      1.0  0.36684  0.09763  0.18423  1.0000
  C   C101      1.0  0.39200  0.10762  0.48270  1.0000
  C   C102      1.0  0.38591  0.08903  0.24158  1.0000
  H   H147      1.0  0.46657  0.09298  0.56052  1.0000
  S   S38       1.0  0.32436  0.08610  0.44864  1.0000
  S   S39       1.0  0.33531  0.19688  0.16990  1.0000
  H   H148      1.0  0.40063  0.08683  0.21911  1.0000
  C   C103      1.0  0.34026  0.18754  0.22131  1.0000
  S   S40       1.0  0.36327  0.10817  0.40277  1.0000
  C   C104      1.0  0.34096  0.16104  0.28216  1.0000
  H   H149      1.0  0.34555  0.16682  0.49833  1.0000
  C   C105      1.0  0.35101  0.10680  0.25349  1.0000
  H   H150      1.0  0.39862  0.16019  0.43870  1.0000
  H   H151      1.0  0.36260  0.08254  0.19223  1.0000
  C   C106      1.0  0.37682  0.12386  0.20998  1.0000
  H   H152      1.0  0.33922  0.11929  0.24137  1.0000
  H   H153      1.0  0.34900  0.21455  0.22862  1.0000
  H   H154      1.0  0.38851  0.09337  0.27096  1.0000
  S   S41       1.0  0.35904  0.06979  0.33822  1.0000
  Fe  Fe23      1.0  0.34304  0.09176  0.38339  1.0000
  H   H155      1.0  0.38124  0.07416  0.25111  1.0000
  C   C107      1.0  0.35919  0.16291  0.47367  1.0000
  H   H156      1.0  0.35479  0.20200  0.30259  1.0000
  Fe  Fe24      1.0  0.34036  0.13597  0.38716  1.0000
  C   C108      1.0  0.34274  0.02396  0.30276  1.0000
  H   H157      1.0  0.36548  0.13557  0.19423  1.0000
  H   H158      1.0  0.36905  0.14917  0.48770  1.0000
  H   H159      1.0  0.39152  0.12252  0.18734  1.0000
  H   H160      1.0  0.38333  0.16985  0.39819  1.0000
  H   H161      1.0  0.34769  0.01529  0.27677  1.0000
  S   S42       1.0  0.32180  0.13416  0.45260  1.0000
  H   H162      1.0  0.36878  0.19865  0.04522  1.0000
  H   H163      1.0  0.34280  0.20253  0.46445  1.0000
  S   S43       1.0  0.33489  0.14737  0.12830  1.0000
  H   H164      1.0  0.33897  0.14610  0.29668  1.0000
  N   N11       1.0  0.37015  0.17971  0.45882  1.0000
  S   S44       1.0  0.34797  0.02875  0.13100  1.0000
  C   C109      1.0  0.33747  0.16820  0.24052  1.0000
  H   H165      1.0  0.26320  0.06031  0.15163  1.0000
  H   H166      1.0  0.33703  0.03624  0.21720  1.0000
  H   H167      1.0  0.41885  0.11753  0.44598  1.0000
  H   H168      1.0  0.35404  0.15870  0.44699  1.0000
  H   H169      1.0  0.46590  0.12008  0.62742  1.0000
  H   H170      1.0  0.32142  0.06735  0.24932  1.0000
  S   S45       1.0  0.35019  0.16515  0.35780  1.0000
  H   H171      1.0  0.25225  0.19827  0.29436  1.0000
  H   H172      1.0  0.33255  0.15880  0.22334  1.0000
  C   C110      1.0  0.32003  0.08647  0.18897  1.0000
  C   C111      1.0  0.33358  0.05046  0.19703  1.0000
  S   S46       1.0  0.32174  0.12002  0.36165  1.0000
  C   C112      1.0  0.35643  0.19763  0.44048  1.0000
  C   C113      1.0  0.33038  0.04640  0.37034  1.0000
  S   S47       1.0  0.37482  0.22571  0.57369  1.0000
  C   C114      1.0  0.33441  0.06983  0.12662  1.0000
  H   H173      1.0  0.25356  0.03724  0.37402  1.0000
  Fe  Fe25      1.0  0.42719  0.16413  0.53959  1.0000
  C   C115      1.0  0.32736  0.01911  0.33613  1.0000
  H   H174      1.0  0.32562  0.05499  0.39657  1.0000
  C   C116      1.0  0.32466  0.06804  0.21509  1.0000
  C   C117      1.0  0.32115  0.03032  0.37002  1.0000
  C   C118      1.0  0.38797  0.17370  0.42595  1.0000
  H   H175      1.0  0.35098  0.19440  0.41305  1.0000
  H   H176      1.0  0.39901  0.99038  0.37247  1.0000
  Fe  Fe26      1.0  0.31895  0.17693  0.14950  1.0000
  H   H177      1.0  0.33806  0.07049  0.09238  1.0000
  H   H178      1.0  0.44472  0.07415  0.67179  1.0000
  C   C119      1.0  0.32523  0.08748  0.14468  1.0000
  C   C120      1.0  0.46519  0.10384  0.63694  1.0000
  S   S48       1.0  0.33203  0.15393  0.00847  1.0000
  H   H179      1.0  0.41598  0.10789  0.62795  1.0000
  Fe  Fe27      1.0  0.44879  0.19421  0.55830  1.0000
  H   H180      1.0  0.34636  0.20070  0.02353  1.0000
  C   C121      1.0  0.34586  0.18325  0.94775  1.0000
  C   C122      1.0  0.41076  0.12751  0.50740  1.0000
  S   S49       1.0  0.42518  0.20175  0.61516  1.0000
  Fe  Fe28      1.0  0.32193  0.99051  0.27043  1.0000
  H   H181      1.0  0.29843  0.16559  0.33137  1.0000
  C   C123      1.0  0.39748  0.12676  0.54653  1.0000
  H   H182      1.0  0.25996  0.17932  0.26008  1.0000
  H   H183      1.0  0.40356  0.17529  0.76487  1.0000
  H   H184      1.0  0.37050  0.11687  0.58311  1.0000
  H   H185      1.0  0.39957  0.13390  0.57145  1.0000
  H   H186      1.0  0.46175  0.16275  0.66144  1.0000
  H   H187      1.0  0.34927  0.20135  0.78066  1.0000
  S   S50       1.0  0.42655  0.19698  0.51521  1.0000
  H   H188      1.0  0.43695  0.11871  0.75793  1.0000
  S   S51       1.0  0.41316  0.19063  0.83323  1.0000
  H   H189      1.0  0.35910  0.16384  0.84607  1.0000
  C   C124      1.0  0.47415  0.17854  0.80369  1.0000
  C   C125      1.0  0.37152  0.17144  0.82745  1.0000
  C   C126      1.0  0.37538  0.15381  0.76789  1.0000
  S   S52       1.0  0.40145  0.16957  0.59400  1.0000
  C   C127      1.0  0.45216  0.10258  0.57433  1.0000
  C   C128      1.0  0.38115  0.11688  0.55333  1.0000
  H   H190      1.0  0.38613  0.16232  0.83612  1.0000
  H   H191      1.0  0.36316  0.14555  0.78466  1.0000
  H   H192      1.0  0.47168  0.10223  0.77109  1.0000
  H   H193      1.0  0.33941  0.17881  0.78783  1.0000
  C   C129      1.0  0.35232  0.18611  0.77098  1.0000
  N   N12       1.0  0.37192  0.17389  0.78110  1.0000
  H   H194      1.0  0.34463  0.19902  0.07973  1.0000
  C   C130      1.0  0.25889  0.17327  0.36663  1.0000
  H   H195      1.0  0.26932  0.16507  0.38897  1.0000
  H   H196      1.0  0.42886  0.12789  0.62617  1.0000
  C   C131      1.0  0.46391  0.21112  0.82811  1.0000
  S   S53       1.0  0.43002  0.14153  0.49618  1.0000
  C   C132      1.0  0.34491  0.20334  0.92818  1.0000
  C   C133      1.0  0.45394  0.17608  0.81423  1.0000
  H   H197      1.0  0.38403  0.21372  0.65887  1.0000
  C   C134      1.0  0.47904  0.19625  0.80980  1.0000
  C   C135      1.0  0.28783  0.17480  0.31014  1.0000
  C   C136      1.0  0.46677  0.21733  0.66010  1.0000
  H   H198      1.0  0.36920  0.18625  0.83859  1.0000
  H   H199      1.0  0.45007  0.16274  0.80774  1.0000
  C   C137      1.0  0.43864  0.19152  0.82998  1.0000
  H   H200      1.0  0.39015  0.14433  0.77492  1.0000
  H   H201      1.0  0.35801  0.20758  0.90660  1.0000
  H   H202      1.0  0.46083  0.21163  0.63651  1.0000
  C   C138      1.0  0.46948  0.11547  0.74727  1.0000
  H   H203      1.0  0.39665  0.18598  0.41400  1.0000
  H   H204      1.0  0.46318  0.10076  0.67231  1.0000
  C   C139      1.0  0.46385  0.14964  0.68553  1.0000
  C   C140      1.0  0.44368  0.20880  0.83803  1.0000
  H   H205      1.0  0.29487  0.17220  0.27705  1.0000
  H   H206      1.0  0.27904  0.13797  0.34266  1.0000
  C   C141      1.0  0.44713  0.14170  0.70863  1.0000
  C   C142      1.0  0.44988  0.12484  0.73996  1.0000
  H   H207      1.0  0.45557  0.19245  0.72997  1.0000
  Fe  Fe29      1.0  0.40305  0.20199  0.57376  1.0000
  C   C143      1.0  0.37701  0.18455  0.49508  1.0000
  H   H208      1.0  0.43620  0.19808  0.69815  1.0000
  S   S54       1.0  0.42298  0.15171  0.69609  1.0000
  C   C144      1.0  0.44311  0.20452  0.71900  1.0000
  Fe  Fe30      1.0  0.42580  0.16874  0.63022  1.0000
  H   H209      1.0  0.38512  0.19736  0.48518  1.0000
  H   H210      1.0  0.48025  0.09487  0.62430  1.0000
  S   S55       1.0  0.45170  0.16075  0.57746  1.0000
  H   H211      1.0  0.35218  0.18837  0.73620  1.0000
  S   S56       1.0  0.35596  0.09820  0.52722  1.0000
  S   S57       1.0  0.38674  0.23520  0.89461  1.0000
  H   H212      1.0  0.37599  0.15508  0.73299  1.0000
  H   H213      1.0  0.43960  0.09949  0.56145  1.0000
  H   H214      1.0  0.35970  0.17212  0.94137  1.0000
  N   N13       1.0  0.44852  0.09886  0.62138  1.0000
  Fe  Fe31      1.0  0.33596  0.00366  0.17651  1.0000
  C   C145      1.0  0.38855  0.18415  0.75792  1.0000
  S   S58       1.0  0.31662  0.99843  0.33640  1.0000
  C   C146      1.0  0.24894  0.06036  0.30036  1.0000
  H   H215      1.0  0.48571  0.16709  0.78905  1.0000
  H   H216      1.0  0.43130  0.20788  0.74735  1.0000
  H   H217      1.0  0.38937  0.18612  0.72287  1.0000
  H   H218      1.0  0.24699  0.10061  0.11505  1.0000
  H   H219      1.0  0.32082  0.23254  0.02050  1.0000
  H   H220      1.0  0.24980  0.07427  0.31193  1.0000
  C   C147      1.0  0.35943  0.99107  0.40138  1.0000
  H   H221      1.0  0.25114  0.15815  0.20834  1.0000
  H   H222      1.0  0.25617  0.18958  0.36929  1.0000
  H   H223      1.0  0.24802  0.06421  0.26591  1.0000
  C   C148      1.0  0.37832  0.22982  0.65422  1.0000
  H   H224      1.0  0.25451  0.14336  0.32798  1.0000
  H   H225      1.0  0.31789  0.23021  0.07730  1.0000
  C   C149      1.0  0.32675  0.23629  0.04663  1.0000
  H   H226      1.0  0.37237  0.22684  0.07865  1.0000
  H   H227      1.0  0.34359  0.99063  0.39943  1.0000
  H   H228      1.0  0.24870  0.11366  0.06144  1.0000
  N   N14       1.0  0.34874  0.22784  0.04394  1.0000
  H   H229      1.0  0.24745  0.13760  0.15567  1.0000
  H   H230      1.0  0.47334  0.23058  0.64355  1.0000
  H   H231      1.0  0.35545  0.23067  0.97587  1.0000
  H   H232      1.0  0.38169  0.23377  0.71652  1.0000
  S   S59       1.0  0.36366  0.23128  0.81728  1.0000
  H   H233      1.0  0.37656  0.23046  0.99992  1.0000
  H   H234      1.0  0.43794  0.23636  0.55846  1.0000
  C   C150      1.0  0.35605  0.23372  0.07841  1.0000
  H   H235      1.0  0.42809  0.23352  0.65630  1.0000
  C   C151      1.0  0.45945  0.23100  0.72558  1.0000
  H   H236      1.0  0.47241  0.22697  0.91317  1.0000
  C   C152      1.0  0.35984  0.23576  0.00234  1.0000
  H   H237      1.0  0.44828  0.23421  0.75481  1.0000
  S   S60       1.0  0.26552  0.98833  0.20092  1.0000
  H   H238      1.0  0.47688  0.47464  0.75839  1.0000
  H   H239      1.0  0.47854  0.30205  0.84795  1.0000
  S   S61       1.0  0.40589  0.24848  0.79372  1.0000
  S   S62       1.0  0.36386  0.27601  0.83984  1.0000
  Fe  Fe32      1.0  0.37388  0.25955  0.78338  1.0000
  H   H240      1.0  0.43356  0.30538  0.75565  1.0000
  C   C153      1.0  0.46989  0.29286  0.83871  1.0000
  C   C154      1.0  0.43379  0.23819  0.68160  1.0000
  S   S63       1.0  0.45448  0.28797  0.62120  1.0000
  H   H241      1.0  0.47279  0.25168  0.88393  1.0000
  N   N15       1.0  0.40909  0.31238  0.72019  1.0000
  C   C155      1.0  0.39373  0.30773  0.75798  1.0000
  S   S64       1.0  0.48098  0.31420  0.68427  1.0000
  C   C156      1.0  0.44742  0.26922  0.81500  1.0000
  S   S65       1.0  0.41319  0.28166  0.87316  1.0000
  C   C157      1.0  0.46066  0.26877  0.58925  1.0000
  C   C158      1.0  0.44519  0.26076  0.58107  1.0000
  H   H242      1.0  0.42944  0.26782  0.59050  1.0000
  H   H243      1.0  0.35907  0.26749  0.58077  1.0000
  H   H244      1.0  0.47434  0.26036  0.76907  1.0000
  H   H245      1.0  0.39381  0.34319  0.70604  1.0000
  C   C159      1.0  0.44975  0.29289  0.85900  1.0000
  C   C160      1.0  0.36912  0.26193  0.68097  1.0000
  H   H246      1.0  0.35667  0.28745  0.63813  1.0000
  H   H247      1.0  0.43009  0.28455  0.73398  1.0000
  H   H248      1.0  0.41500  0.31080  0.65297  1.0000
  H   H249      1.0  0.44289  0.30210  0.88389  1.0000
  C   C161      1.0  0.40444  0.30640  0.68259  1.0000
  C   C162      1.0  0.36269  0.27136  0.64275  1.0000
  C   C163      1.0  0.40887  0.33426  0.71240  1.0000
  H   H250      1.0  0.44127  0.30410  0.69968  1.0000
  C   C164      1.0  0.46742  0.26956  0.79390  1.0000
  C   C165      1.0  0.42940  0.30111  0.72780  1.0000
  C   C166      1.0  0.36396  0.26007  0.61037  1.0000
  S   S66       1.0  0.36769  0.27667  0.72033  1.0000
  H   H251      1.0  0.41217  0.33930  0.74030  1.0000
  H   H252      1.0  0.40581  0.28978  0.68609  1.0000
  C   C167      1.0  0.47865  0.28136  0.80589  1.0000
  H   H253      1.0  0.39698  0.31160  0.78724  1.0000
  H   H254      1.0  0.43910  0.25967  0.80653  1.0000
  H   H255      1.0  0.38866  0.31348  0.67759  1.0000
  Fe  Fe33      1.0  0.39537  0.26281  0.85289  1.0000
  H   H256      1.0  0.42052  0.33820  0.68436  1.0000
  H   H257      1.0  0.39334  0.29143  0.76407  1.0000
  H   H258      1.0  0.37816  0.31599  0.75359  1.0000
  C   C168      1.0  0.37683  0.24110  0.68692  1.0000
  C   C169      1.0  0.43843  0.28111  0.84715  1.0000
  H   H259      1.0  0.46450  0.24528  0.71002  1.0000
  H   H260      1.0  0.32340  0.25303  0.04395  1.0000
  C   C170      1.0  0.48578  0.24222  0.55734  1.0000
  Fe  Fe34      1.0  0.35631  0.24671  0.87494  1.0000
  H   H261      1.0  0.35652  0.25256  0.99652  1.0000
  H   H262      1.0  0.35425  0.25039  0.07504  1.0000
  H   H263      1.0  0.42066  0.24118  0.70773  1.0000
  C   C171      1.0  0.45000  0.24285  0.56324  1.0000
  H   H264      1.0  0.47146  0.24770  0.94044  1.0000
  H   H265      1.0  0.49302  0.26626  0.58133  1.0000
  H   H266      1.0  0.43851  0.25280  0.66833  1.0000
  S   S67       1.0  0.32737  0.24363  0.92004  1.0000
  C   C172      1.0  0.49188  0.47913  0.74743  1.0000
  C   C173      1.0  0.47840  0.24088  0.91096  1.0000
  Fe  Fe35      1.0  0.48258  0.29345  0.63770  1.0000
  C   C174      1.0  0.48098  0.25992  0.57592  1.0000
  C   C175      1.0  0.37203  0.23936  0.61576  1.0000
  C   C176      1.0  0.27535  0.70744  0.38649  1.0000
  C   C177      1.0  0.45010  0.56626  0.67361  1.0000
  C   C178      1.0  0.47788  0.50828  0.70048  1.0000
  H   H267      1.0  0.31959  0.68546  0.32142  1.0000
  C   C179      1.0  0.29968  0.72532  0.13518  1.0000
  C   C180      1.0  0.31302  0.69190  0.11564  1.0000
  H   H268      1.0  0.29722  0.66643  0.24518  1.0000
  C   C181      1.0  0.29309  0.68885  0.12067  1.0000
  C   C182      1.0  0.29048  0.71666  0.39239  1.0000
  H   H269      1.0  0.27858  0.68752  0.26332  1.0000
  C   C183      1.0  0.27655  0.70403  0.13333  1.0000
  H   H270      1.0  0.48557  0.50093  0.67195  1.0000
  H   H271      1.0  0.30507  0.71905  0.22555  1.0000
  C   C184      1.0  0.30923  0.67989  0.30647  1.0000
  C   C185      1.0  0.26171  0.71759  0.35940  1.0000
  H   H272      1.0  0.29371  0.68332  0.32564  1.0000
  H   H273      1.0  0.32584  0.68003  0.10677  1.0000
  H   H274      1.0  0.28984  0.71687  0.27783  1.0000
  C   C186      1.0  0.31624  0.70998  0.12397  1.0000
  C   C187      1.0  0.30502  0.71146  0.25903  1.0000
  H   H275      1.0  0.29055  0.67452  0.11631  1.0000
  H   H276      1.0  0.27444  0.69230  0.40234  1.0000
  H   H277      1.0  0.30089  0.70876  0.41349  1.0000
  C   C188      1.0  0.27991  0.72253  0.13869  1.0000
  H   H278      1.0  0.31410  0.66318  0.30938  1.0000
  H   H279      1.0  0.31635  0.71670  0.27182  1.0000
  N   N16       1.0  0.30957  0.68928  0.26157  1.0000
  H   H280      1.0  0.40111  0.64466  0.53045  1.0000
  H   H281      1.0  0.45930  0.57620  0.65298  1.0000
  C   C189      1.0  0.29408  0.68306  0.24451  1.0000
  N   N17       1.0  0.48951  0.50126  0.73574  1.0000
  H   H282      1.0  0.29359  0.69024  0.21098  1.0000
  C   C190      1.0  0.32988  0.68278  0.23629  1.0000
  S   S68       1.0  0.42683  0.65584  0.14981  1.0000
  Fe  Fe36      1.0  0.36590  0.69240  0.08843  1.0000
  S   S69       1.0  0.36161  0.66195  0.31691  1.0000
  H   H283      1.0  0.49316  0.50335  0.58881  1.0000
  N   N18       1.0  0.39216  0.62461  0.41139  1.0000
  S   S70       1.0  0.46836  0.62910  0.44171  1.0000
  S   S71       1.0  0.46325  0.60763  0.56552  1.0000
  Fe  Fe37      1.0  0.38481  0.65880  0.03671  1.0000
  H   H284      1.0  0.40561  0.61869  0.46744  1.0000
  S   S72       1.0  0.39217  0.68942  0.36788  1.0000
  C   C191      1.0  0.39388  0.64551  0.20575  1.0000
  C   C192      1.0  0.41051  0.65483  0.19905  1.0000
  C   C193      1.0  0.38527  0.61322  0.38495  1.0000
  H   H285      1.0  0.44511  0.59675  0.03544  1.0000
  H   H286      1.0  0.41333  0.69822  0.16046  1.0000
  C   C194      1.0  0.38103  0.65833  0.27285  1.0000
  H   H287      1.0  0.39226  0.63714  0.18215  1.0000
  S   S73       1.0  0.35875  0.71990  0.31503  1.0000
  S   S74       1.0  0.34382  0.69371  0.40864  1.0000
  C   C195      1.0  0.44479  0.64468  0.45739  1.0000
  C   C196      1.0  0.43669  0.58676  0.98409  1.0000
  H   H288      1.0  0.41299  0.62183  0.04907  1.0000
  C   C197      1.0  0.43342  0.59840  0.01671  1.0000
  C   C198      1.0  0.42022  0.67584  0.44500  1.0000
  C   C199      1.0  0.43939  0.66368  0.43373  1.0000
  Fe  Fe38      1.0  0.37176  0.69824  0.42744  1.0000
  H   H289      1.0  0.38911  0.60218  0.46701  1.0000
  H   H290      1.0  0.45000  0.66906  0.40670  1.0000
  H   H291      1.0  0.41627  0.69067  0.42709  1.0000
  C   C200      1.0  0.41537  0.61278  0.02404  1.0000
  C   C201      1.0  0.37478  0.63962  0.42918  1.0000
  S   S75       1.0  0.39594  0.69953  0.08775  1.0000
  H   H292      1.0  0.39945  0.67594  0.28955  1.0000
  C   C202      1.0  0.39878  0.72047  0.22244  1.0000
  H   H293      1.0  0.36639  0.63985  0.24786  1.0000
  C   C203      1.0  0.39795  0.66720  0.26669  1.0000
  C   C204      1.0  0.41290  0.66512  0.23018  1.0000
  Fe  Fe39      1.0  0.36397  0.68779  0.34682  1.0000
  H   H294      1.0  0.42161  0.62431  0.37177  1.0000
  H   H295      1.0  0.41311  0.64433  0.40353  1.0000
  H   H296      1.0  0.40222  0.64549  0.35740  1.0000
  S   S76       1.0  0.47877  0.57344  0.49986  1.0000
  H   H297      1.0  0.47098  0.65696  0.86949  1.0000
  H   H298      1.0  0.47603  0.52490  0.69054  1.0000
  H   H299      1.0  0.42584  0.67219  0.22522  1.0000
  N   N19       1.0  0.44378  0.65083  0.91119  1.0000
  Fe  Fe40      1.0  0.40253  0.69626  0.01918  1.0000
  C   C205      1.0  0.37929  0.64700  0.24297  1.0000
  S   S77       1.0  0.37950  0.63556  0.00297  1.0000
  S   S78       1.0  0.37598  0.65915  0.10725  1.0000
  H   H300      1.0  0.42692  0.71562  0.12415  1.0000
  H   H301      1.0  0.38984  0.70870  0.22428  1.0000
  H   H302      1.0  0.37947  0.64862  0.44900  1.0000
  C   C206      1.0  0.40799  0.63512  0.38485  1.0000
  S   S79       1.0  0.41650  0.66343  0.03162  1.0000
  H   H303      1.0  0.46286  0.50818  0.78335  1.0000
  H   H304      1.0  0.33407  0.66609  0.23811  1.0000
  Fe  Fe41      1.0  0.47745  0.60643  0.49697  1.0000
  S   S80       1.0  0.25188  0.69929  0.14773  1.0000
  S   S81       1.0  0.24444  0.70502  0.34836  1.0000
  Fe  Fe42      1.0  0.38524  0.72233  0.34234  1.0000
  H   H305      1.0  0.36253  0.63232  0.44960  1.0000
  Fe  Fe43      1.0  0.40680  0.66626  0.10065  1.0000
  C   C207      1.0  0.40328  0.60299  0.96796  1.0000
  C   C208      1.0  0.42102  0.71096  0.15839  1.0000
  H   H306      1.0  0.36802  0.65046  0.40354  1.0000
  H   H307      1.0  0.41112  0.71374  0.24126  1.0000
  C   C209      1.0  0.40059  0.61051  0.44656  1.0000
  H   H308      1.0  0.37894  0.62342  0.35794  1.0000
  H   H309      1.0  0.46235  0.63387  0.62549  1.0000
  S   S82       1.0  0.37156  0.69160  0.01834  1.0000
  S   S83       1.0  0.34067  0.71372  0.12214  1.0000
  H   H310      1.0  0.41402  0.59921  0.43444  1.0000
  H   H311      1.0  0.39801  0.60175  0.37105  1.0000
  C   C210      1.0  0.40055  0.61550  0.99882  1.0000
  H   H312      1.0  0.37314  0.60529  0.40379  1.0000
  H   H313      1.0  0.46060  0.62365  0.88689  1.0000
  H   H314      1.0  0.34185  0.68765  0.24776  1.0000
  H   H315      1.0  0.33051  0.68928  0.20214  1.0000
  S   S84       1.0  0.47488  0.54201  0.87010  1.0000
  H   H316      1.0  0.43452  0.63612  0.75556  1.0000
  C   C211      1.0  0.43195  0.62218  0.68527  1.0000
  C   C212      1.0  0.42626  0.54057  0.72718  1.0000
  S   S85       1.0  0.38113  0.68237  0.48922  1.0000
  H   H317      1.0  0.42030  0.53392  0.66941  1.0000
  H   H318      1.0  0.41364  0.65134  0.94740  1.0000
  H   H319      1.0  0.46235  0.50491  0.70986  1.0000
  Fe  Fe44      1.0  0.46777  0.57011  0.90019  1.0000
  Fe  Fe45      1.0  0.47614  0.59707  0.81667  1.0000
  S   S86       1.0  0.47808  0.62936  0.79294  1.0000
  H   H320      1.0  0.44552  0.63568  0.97484  1.0000
  H   H321      1.0  0.26720  0.73465  0.14639  1.0000
  H   H322      1.0  0.45318  0.65966  0.96264  1.0000
  H   H323      1.0  0.43623  0.62175  0.91868  1.0000
  H   H324      1.0  0.47701  0.52785  0.76570  1.0000
  C   C213      1.0  0.40625  0.66885  0.47937  1.0000
  H   H325      1.0  0.45228  0.65184  0.72978  1.0000
  H   H326      1.0  0.42616  0.61261  0.71497  1.0000
  C   C214      1.0  0.44013  0.55516  0.65619  1.0000
  C   C215      1.0  0.43639  0.55151  0.74462  1.0000
  H   H327      1.0  0.46848  0.65043  0.65442  1.0000
  Fe  Fe46      1.0  0.46717  0.57417  0.56933  1.0000
  C   C216      1.0  0.43110  0.63800  0.49273  1.0000
  H   H328      1.0  0.41887  0.63383  0.67562  1.0000
  C   C217      1.0  0.47853  0.51118  0.77297  1.0000
  H   H329      1.0  0.41452  0.66480  0.89449  1.0000
  H   H330      1.0  0.45413  0.67874  0.88941  1.0000
  C   C218      1.0  0.42809  0.54243  0.68293  1.0000
  C   C219      1.0  0.41189  0.65012  0.50386  1.0000
  H   H331      1.0  0.43749  0.61230  0.66001  1.0000
  S   S87       1.0  0.46065  0.57152  0.97017  1.0000
  Fe  Fe47      1.0  0.45722  0.56126  0.82126  1.0000
  S   S88       1.0  0.44306  0.55684  0.60110  1.0000
  H   H332      1.0  0.46957  0.63787  0.94204  1.0000
  S   S89       1.0  0.25418  0.72945  0.23402  1.0000
  S   S90       1.0  0.44761  0.58838  0.85491  1.0000
  C   C220      1.0  0.44808  0.56453  0.71783  1.0000
  C   C221      1.0  0.44466  0.63203  0.89477  1.0000
  S   S91       1.0  0.48417  0.57166  0.77831  1.0000
  H   H333      1.0  0.46005  0.60706  0.73682  1.0000
  H   H334      1.0  0.42750  0.65706  0.71542  1.0000
  H   H335      1.0  0.42107  0.67541  0.93482  1.0000
  H   H336      1.0  0.39169  0.60480  0.94893  1.0000
  N   N20       1.0  0.44826  0.63146  0.69138  1.0000
  S   S92       1.0  0.43494  0.54807  0.79980  1.0000
  H   H337      1.0  0.43790  0.63510  0.86545  1.0000
  C   C222      1.0  0.45345  0.64584  0.94934  1.0000
  S   S93       1.0  0.41738  0.71762  0.96790  1.0000
  H   H338      1.0  0.43429  0.70486  0.17479  1.0000
  C   C223      1.0  0.46500  0.61541  0.70499  1.0000
  H   H339      1.0  0.42342  0.57903  0.93667  1.0000
  H   H340      1.0  0.47820  0.62170  0.70722  1.0000
  H   H341      1.0  0.43494  0.62316  0.51049  1.0000
  H   H342      1.0  0.45539  0.57339  0.73113  1.0000
  H   H343      1.0  0.47070  0.60433  0.68216  1.0000
  C   C224      1.0  0.42133  0.58858  0.96068  1.0000
  H   H344      1.0  0.44816  0.66792  0.84857  1.0000
  C   C225      1.0  0.42234  0.66107  0.92242  1.0000
  H   H345      1.0  0.44375  0.65571  0.63952  1.0000
  H   H346      1.0  0.41708  0.53058  0.74787  1.0000
  C   C226      1.0  0.45595  0.64346  0.65097  1.0000
  C   C227      1.0  0.45475  0.66426  0.87821  1.0000
  C   C228      1.0  0.44022  0.64475  0.72445  1.0000
  H   H347      1.0  0.38084  0.72455  0.15549  1.0000
  Fe  Fe48      1.0  0.34061  0.72612  0.37894  1.0000
  H   H348      1.0  0.48647  0.50582  0.80065  1.0000
  N   N21       1.0  0.40700  0.72786  0.17791  1.0000
  H   H349      1.0  0.39337  0.73669  0.04020  1.0000
  H   H350      1.0  0.38856  0.73291  0.23848  1.0000
  S   S94       1.0  0.36672  0.73151  0.40375  1.0000
  C   C229      1.0  0.29167  0.73625  0.37211  1.0000
  C   C230      1.0  0.39003  0.73606  0.15420  1.0000
  S   S95       1.0  0.41263  0.73508  0.30898  1.0000
  H   H351      1.0  0.35014  0.79069  0.01298  1.0000
  H   H352      1.0  0.34378  0.78164  0.26510  1.0000
  C   C231      1.0  0.41113  0.74279  0.97800  1.0000
  H   H353      1.0  0.33155  0.82851  0.31476  1.0000
  H   H354      1.0  0.27650  0.89931  0.20048  1.0000
  C   C232      1.0  0.33273  0.81780  0.29227  1.0000
  N   N22       1.0  0.32686  0.79874  0.31488  1.0000
  H   H355      1.0  0.41853  0.78958  0.92984  1.0000
  H   H356      1.0  0.32284  0.82541  0.26847  1.0000
  H   H357      1.0  0.27211  0.75917  0.24779  1.0000
  C   C233      1.0  0.31237  0.77788  0.18811  1.0000
  H   H358      1.0  0.37943  0.74903  0.16795  1.0000
  H   H359      1.0  0.31019  0.80473  0.14150  1.0000
  H   H360      1.0  0.32388  0.77065  0.29944  1.0000
  H   H361      1.0  0.38007  0.94291  0.38330  1.0000
  H   H362      1.0  0.39609  0.97251  0.42025  1.0000
  Fe  Fe49      1.0  0.29802  0.98598  0.20574  1.0000
  C   C234      1.0  0.39919  0.74804  0.01647  1.0000
  H   H363      1.0  0.35659  0.75011  0.07262  1.0000
  H   H364      1.0  0.29488  0.81041  0.31620  1.0000
  H   H365      1.0  0.30300  0.77617  0.08135  1.0000
  H   H366      1.0  0.40785  0.75735  0.18911  1.0000
  C   C235      1.0  0.28565  0.94479  0.14790  1.0000
  N   N23       1.0  0.27275  0.93055  0.17210  1.0000
  C   C236      1.0  0.32817  0.78524  0.28369  1.0000
  C   C237      1.0  0.25768  0.92945  0.14676  1.0000
  N   N24       1.0  0.33220  0.76822  0.04188  1.0000
  C   C238      1.0  0.30160  0.76515  0.21826  1.0000
  C   C239      1.0  0.28040  0.76867  0.22355  1.0000
  C   C240      1.0  0.26997  0.78478  0.19832  1.0000
  C   C241      1.0  0.28073  0.79797  0.16912  1.0000
  C   C242      1.0  0.30196  0.79455  0.16410  1.0000
  H   H367      1.0  0.30962  0.75278  0.23801  1.0000
  H   H368      1.0  0.27263  0.81064  0.15006  1.0000
  S   S96       1.0  0.35203  0.98372  0.22730  1.0000
  H   H369      1.0  0.32017  0.75408  0.00200  1.0000
  H   H370      1.0  0.35815  0.97885  0.32826  1.0000
  C   C243      1.0  0.41816  0.74391  0.17680  1.0000
  H   H371      1.0  0.29420  0.93976  0.11736  1.0000
  H   H372      1.0  0.35368  0.95473  0.39414  1.0000
  S   S97       1.0  0.31066  0.96449  0.25887  1.0000
  H   H373      1.0  0.31778  0.79218  0.26056  1.0000
  H   H374      1.0  0.26526  0.92413  0.11587  1.0000
  H   H375      1.0  0.34871  0.81507  0.27494  1.0000
  H   H376      1.0  0.31705  0.74317  0.05702  1.0000
  C   C244      1.0  0.27759  0.74669  0.34615  1.0000
  H   H377      1.0  0.27837  0.76189  0.33052  1.0000
  H   H378      1.0  0.42732  0.75394  0.91708  1.0000
  H   H379      1.0  0.24778  0.94452  0.13945  1.0000
  H   H380      1.0  0.25205  0.74533  0.31901  1.0000
  C   C245      1.0  0.41814  0.75784  0.94693  1.0000
  H   H381      1.0  0.35683  0.78552  0.32856  1.0000
  C   C246      1.0  0.36917  0.95530  0.39856  1.0000
  H   H382      1.0  0.39014  0.88737  0.20272  1.0000
  C   C247      1.0  0.42391  0.78871  0.24641  1.0000
  N   N25       1.0  0.40908  0.88063  0.14331  1.0000
  Fe  Fe50      1.0  0.34707  0.84410  0.11486  1.0000
  C   C248      1.0  0.30574  0.80312  0.33822  1.0000
  Fe  Fe51      1.0  0.38348  0.82071  0.15283  1.0000
  S   S98       1.0  0.40488  0.82057  0.19569  1.0000
  H   H383      1.0  0.29305  0.90413  0.15089  1.0000
  H   H384      1.0  0.38543  0.77208  0.05383  1.0000
  H   H385      1.0  0.42545  0.74907  0.14377  1.0000
  H   H386      1.0  0.42952  0.86695  0.09181  1.0000
  H   H387      1.0  0.38443  0.90506  0.12913  1.0000
  H   H388      1.0  0.35947  0.76668  0.99469  1.0000
  H   H389      1.0  0.30409  0.81318  0.36225  1.0000
  C   C249      1.0  0.40602  0.79774  0.23076  1.0000
  C   C250      1.0  0.38949  0.78798  0.24146  1.0000
  C   C251      1.0  0.39089  0.76920  0.26784  1.0000
  H   H390      1.0  0.37578  0.79470  0.22882  1.0000
  H   H391      1.0  0.27643  0.96018  0.14022  1.0000
  H   H392      1.0  0.43675  0.79610  0.23802  1.0000
  H   H393      1.0  0.43400  0.88719  0.16463  1.0000
  C   C252      1.0  0.34076  0.78887  0.34512  1.0000
  C   C253      1.0  0.39362  0.89108  0.11686  1.0000
  S   S99       1.0  0.31074  0.74781  0.37872  1.0000
  C   C254      1.0  0.42558  0.76962  0.27127  1.0000
  C   C255      1.0  0.39458  0.76815  0.02411  1.0000
  H   H394      1.0  0.43012  0.89979  0.11234  1.0000
  C   C256      1.0  0.42221  0.89457  0.14477  1.0000
  H   H395      1.0  0.38810  0.86439  0.18686  1.0000
  S   S100      1.0  0.35744  0.92778  0.21192  1.0000
  H   H396      1.0  0.41000  0.86521  0.20723  1.0000
  C   C257      1.0  0.34826  0.89327  0.19948  1.0000
  H   H397      1.0  0.43324  0.85432  0.14429  1.0000
  S   S101      1.0  0.34493  0.81844  0.08368  1.0000
  C   C258      1.0  0.34034  0.92255  0.14699  1.0000
  C   C259      1.0  0.26271  0.73731  0.33956  1.0000
  H   H398      1.0  0.36937  0.95200  0.43335  1.0000
  H   H399      1.0  0.40068  0.89551  0.08327  1.0000
  H   H400      1.0  0.27297  0.93979  0.23155  1.0000
  C   C260      1.0  0.40146  0.78318  0.99280  1.0000
  H   H401      1.0  0.41214  0.85191  0.12349  1.0000
  Fe  Fe52      1.0  0.35164  0.79925  0.14502  1.0000
  Fe  Fe53      1.0  0.33940  0.95950  0.21097  1.0000
  H   H402      1.0  0.41315  0.90824  0.15863  1.0000
  H   H403      1.0  0.38285  0.88134  0.11651  1.0000
  S   S102      1.0  0.39509  0.80859  0.00064  1.0000
  H   H404      1.0  0.37822  0.76158  0.27576  1.0000
  C   C261      1.0  0.31310  0.78279  0.05322  1.0000
  N   N26       1.0  0.37427  0.97519  0.37996  1.0000
  S   S103      1.0  0.38534  0.79302  0.12486  1.0000
  C   C262      1.0  0.34760  0.91378  0.18471  1.0000
  S   S104      1.0  0.38051  0.84165  0.09184  1.0000
  H   H405      1.0  0.39561  0.74140  0.12015  1.0000
  S   S105      1.0  0.35021  0.82521  0.17810  1.0000
  C   C263      1.0  0.39889  0.87417  0.18696  1.0000
  C   C264      1.0  0.33415  0.91065  0.12367  1.0000
  H   H406      1.0  0.34759  0.77502  0.08680  1.0000
  S   S106      1.0  0.33884  0.77297  0.18169  1.0000
  C   C265      1.0  0.42159  0.86275  0.12479  1.0000
  H   H407      1.0  0.33284  0.75610  0.10770  1.0000
  H   H408      1.0  0.34256  0.86565  0.18800  1.0000
  C   C266      1.0  0.32752  0.75023  0.03061  1.0000
  C   C267      1.0  0.34281  0.76212  0.07870  1.0000
  C   C268      1.0  0.26208  0.93764  0.21272  1.0000
  Fe  Fe54      1.0  0.37882  0.81427  0.06602  1.0000
  H   H409      1.0  0.29696  0.94633  0.16640  1.0000
  H   H410      1.0  0.30445  0.78754  0.02652  1.0000
  C   C269      1.0  0.37351  0.97897  0.33396  1.0000
  H   H411      1.0  0.43973  0.76233  0.28201  1.0000
  H   H412      1.0  0.25152  0.95246  0.20717  1.0000
  C   C270      1.0  0.33522  0.89002  0.13808  1.0000
  H   H413      1.0  0.35354  0.88652  0.22902  1.0000
  H   H414      1.0  0.25291  0.92684  0.23276  1.0000
  H   H415      1.0  0.34025  0.93828  0.13490  1.0000
  C   C271      1.0  0.34216  0.88140  0.17613  1.0000
  C   C272      1.0  0.39491  0.97544  0.38591  1.0000
  H   H416      1.0  0.33992  0.79848  0.36957  1.0000
  C   C273      1.0  0.34537  0.77764  0.00514  1.0000
  H   H417      1.0  0.33701  0.77428  0.36233  1.0000
  H   H418      1.0  0.30076  0.78906  0.35553  1.0000
  H   H419      1.0  0.33753  0.78323  0.97732  1.0000
  C   C274      1.0  0.28557  0.91031  0.18091  1.0000
  H   H420      1.0  0.31609  0.79660  0.06161  1.0000
  H   H421      1.0  0.29777  0.91073  0.19821  1.0000
  C   C275      1.0  0.40914  0.75981  0.28186  1.0000
  H   H422      1.0  0.32898  0.91731  0.09397  1.0000
  C   C276      1.0  0.41320  0.77799  0.95418  1.0000
  S   S107      1.0  0.32750  0.87517  0.10897  1.0000
  H   H423      1.0  0.43021  0.73866  0.19682  1.0000
  H   H424      1.0  0.40655  0.96376  0.36985  1.0000
  H   H425      1.0  0.30208  0.73938  0.14147  1.0000
  H   H426      1.0  0.24767  0.91883  0.16405  1.0000
  H   H427      1.0  0.34150  0.73844  0.02405  1.0000
  H   H428      1.0  0.38448  0.96727  0.31674  1.0000
  S   S108      1.0  0.32575  0.97882  0.15617  1.0000
  H   H429      1.0  0.54002  0.20325  0.46434  1.0000
  N   N27       1.0  0.53892  0.19110  0.53068  1.0000
  C   C277      1.0  0.59294  0.15820  0.86728  1.0000
  H   H430      1.0  0.54440  0.15908  0.85834  1.0000
  S   S109      1.0  0.58106  0.13135  0.83060  1.0000
  C   C278      1.0  0.61237  0.16980  0.75393  1.0000
  Fe  Fe55      1.0  0.55780  0.15993  0.69433  1.0000
  C   C279      1.0  0.55448  0.20717  0.64401  1.0000
  C   C280      1.0  0.57261  0.19630  0.62361  1.0000
  H   H431      1.0  0.56642  0.17447  0.55230  1.0000
  Fe  Fe56      1.0  0.52393  0.17393  0.76517  1.0000
  S   S110      1.0  0.52391  0.16481  0.70266  1.0000
  H   H432      1.0  0.60262  0.18187  0.88722  1.0000
  H   H433      1.0  0.64618  0.12513  0.76266  1.0000
  C   C281      1.0  0.57664  0.15202  0.85781  1.0000
  H   H434      1.0  0.53742  0.22165  0.49868  1.0000
  C   C282      1.0  0.52956  0.19753  0.57253  1.0000
  H   H435      1.0  0.70266  0.18266  0.93049  1.0000
  S   S111      1.0  0.51071  0.11105  0.73241  1.0000
  H   H436      1.0  0.57510  0.22076  0.70004  1.0000
  S   S112      1.0  0.65718  0.18237  0.79501  1.0000
  C   C283      1.0  0.61573  0.14127  0.71816  1.0000
  H   H437      1.0  0.61996  0.17804  0.77004  1.0000
  N   N28       1.0  0.62664  0.15211  0.73791  1.0000
  S   S113      1.0  0.52552  0.14298  0.80257  1.0000
  Fe  Fe57      1.0  0.55918  0.14046  0.78526  1.0000
  C   C284      1.0  0.68246  0.17617  0.80257  1.0000
  C   C285      1.0  0.53942  0.22933  0.75258  1.0000
  H   H438      1.0  0.53355  0.21192  0.57527  1.0000
  H   H439      1.0  0.66067  0.20745  0.00844  1.0000
  H   H440      1.0  0.69727  0.22830  0.98044  1.0000
  C   C286      1.0  0.69064  0.18874  0.82042  1.0000
  H   H441      1.0  0.53473  0.18598  0.59906  1.0000
  H   H442      1.0  0.60810  0.14909  0.86175  1.0000
  S   S114      1.0  0.56252  0.12768  0.72517  1.0000
  Fe  Fe58      1.0  0.52841  0.13340  0.73892  1.0000
  C   C287      1.0  0.53197  0.17283  0.52729  1.0000
  C   C288      1.0  0.58984  0.17681  0.88159  1.0000
  C   C289      1.0  0.55707  0.16386  0.86529  1.0000
  H   H443      1.0  0.60895  0.15118  0.69137  1.0000
  S   S115      1.0  0.57848  0.17000  0.63521  1.0000
  C   C290      1.0  0.57032  0.18885  0.88819  1.0000
  Fe  Fe59      1.0  0.59631  0.22304  0.87242  1.0000
  S   S116      1.0  0.55738  0.17236  0.75301  1.0000
  C   C291      1.0  0.63505  0.13846  0.77366  1.0000
  C   C292      1.0  0.58572  0.20642  0.59268  1.0000
  H   H444      1.0  0.60309  0.13580  0.74167  1.0000
  C   C293      1.0  0.69459  0.15822  0.79015  1.0000
  Fe  Fe60      1.0  0.63819  0.20952  0.82232  1.0000
  H   H445      1.0  0.59980  0.19805  0.57691  1.0000
  C   C294      1.0  0.50764  0.22189  0.94100  1.0000
  H   H446      1.0  0.68518  0.17839  0.97934  1.0000
  S   S117      1.0  0.60747  0.21888  0.80439  1.0000
  C   C295      1.0  0.64337  0.15898  0.70596  1.0000
  S   S118      1.0  0.62687  0.21116  0.89183  1.0000
  H   H447      1.0  0.53872  0.19106  0.88676  1.0000
  H   H448      1.0  0.54423  0.19940  0.66775  1.0000
  C   C296      1.0  0.55385  0.18205  0.88127  1.0000
  S   S119      1.0  0.56691  0.21318  0.90073  1.0000
  H   H449      1.0  0.57820  0.21034  0.75390  1.0000
  C   C297      1.0  0.71482  0.15265  0.79584  1.0000
  H   H450      1.0  0.51270  0.19999  0.57770  1.0000
  C   C298      1.0  0.72308  0.16505  0.81374  1.0000
  H   H451      1.0  0.53617  0.16027  0.55300  1.0000
  H   H452      1.0  0.53876  0.16746  0.49619  1.0000
  H   H453      1.0  0.68127  0.20268  0.82970  1.0000
  H   H454      1.0  0.62600  0.12786  0.70549  1.0000
  H   H455      1.0  0.62286  0.13268  0.79796  1.0000
  C   C299      1.0  0.66328  0.21641  0.97621  1.0000
  H   H456      1.0  0.58945  0.23150  0.72635  1.0000
  H   H457      1.0  0.51512  0.17584  0.53005  1.0000
  H   H458      1.0  0.59941  0.16517  0.77755  1.0000
  C   C300      1.0  0.58061  0.22742  0.58192  1.0000
  C   C301      1.0  0.68709  0.18818  0.94792  1.0000
  H   H459      1.0  0.52452  0.21827  0.93733  1.0000
  H   H460      1.0  0.56693  0.20016  0.52903  1.0000
  H   H461      1.0  0.63755  0.16930  0.67851  1.0000
  H   H462      1.0  0.51616  0.21097  0.49772  1.0000
  H   H463      1.0  0.60602  0.18053  0.72765  1.0000
  C   C302      1.0  0.57583  0.22464  0.73130  1.0000
  H   H464      1.0  0.56080  0.22954  0.81278  1.0000
  H   H465      1.0  0.64290  0.14631  0.79007  1.0000
  H   H466      1.0  0.67610  0.18585  0.92957  1.0000
  H   H467      1.0  0.56893  0.18157  0.49561  1.0000
  H   H468      1.0  0.65180  0.16731  0.72001  1.0000
  H   H469      1.0  0.52606  0.22492  0.85828  1.0000
  H   H470      1.0  0.68829  0.14849  0.77642  1.0000
  C   C303      1.0  0.71107  0.18319  0.82586  1.0000
  C   C304      1.0  0.53290  0.20745  0.49634  1.0000
  H   H471      1.0  0.71484  0.20743  0.95999  1.0000
  H   H472      1.0  0.65452  0.14603  0.69329  1.0000
  H   H473      1.0  0.71755  0.19283  0.83940  1.0000
  H   H474      1.0  0.67494  0.22115  0.89213  1.0000
  H   H475      1.0  0.53812  0.22485  0.72244  1.0000
  H   H476      1.0  0.72409  0.13863  0.78649  1.0000
  H   H477      1.0  0.54046  0.21549  0.77672  1.0000
  C   C305      1.0  0.56128  0.18661  0.52666  1.0000
  H   H478      1.0  0.69756  0.20317  0.00914  1.0000
  C   C306      1.0  0.68661  0.22194  0.91037  1.0000
  N   N29       1.0  0.68400  0.20964  0.95287  1.0000
  C   C307      1.0  0.69903  0.21218  0.97680  1.0000
  H   H479      1.0  0.65150  0.21506  0.95879  1.0000
  H   H480      1.0  0.70188  0.21690  0.89142  1.0000
  C   C308      1.0  0.54923  0.22813  0.63267  1.0000
  S   S120      1.0  0.50337  0.20115  0.78970  1.0000
  H   H481      1.0  0.50465  0.21306  0.86685  1.0000
  H   H482      1.0  0.50150  0.23517  0.54858  1.0000
  H   H483      1.0  0.49637  0.14630  0.67481  1.0000
  C   C309      1.0  0.50918  0.22773  0.86495  1.0000
  H   H484      1.0  0.50264  0.20738  0.94381  1.0000
  H   H485      1.0  0.59081  0.23528  0.55806  1.0000
  H   H486      1.0  0.50156  0.22794  0.97161  1.0000
  H   H487      1.0  0.66056  0.23260  0.98020  1.0000
  H   H488      1.0  0.53497  0.23634  0.64747  1.0000
  N   N30       1.0  0.50084  0.23646  0.90470  1.0000
  H   H489      1.0  0.65035  0.45261  0.69122  1.0000
  H   H490      1.0  0.63265  0.37487  0.61901  1.0000
  H   H491      1.0  0.52690  0.41680  0.50189  1.0000
  H   H492      1.0  0.60400  0.48645  0.78829  1.0000
  H   H493      1.0  0.55507  0.35605  0.80252  1.0000
  C   C310      1.0  0.63964  0.27395  0.69726  1.0000
  H   H494      1.0  0.68791  0.24287  0.81485  1.0000
  S   S121      1.0  0.58382  0.38235  0.66497  1.0000
  Fe  Fe61      1.0  0.50712  0.32445  0.63812  1.0000
  S   S122      1.0  0.50673  0.30579  0.58899  1.0000
  Fe  Fe62      1.0  0.73471  0.31718  0.55096  1.0000
  C   C311      1.0  0.55852  0.24343  0.78901  1.0000
  Fe  Fe63      1.0  0.52818  0.28187  0.62379  1.0000
  S   S123      1.0  0.55633  0.26455  0.58748  1.0000
  S   S124      1.0  0.53092  0.30189  0.66828  1.0000
  H   H495      1.0  0.59607  0.30451  0.67128  1.0000
  C   C312      1.0  0.56607  0.35773  0.63391  1.0000
  C   C313      1.0  0.54921  0.35176  0.62581  1.0000
  H   H496      1.0  0.58126  0.35120  0.61917  1.0000
  H   H497      1.0  0.55142  0.34075  0.60464  1.0000
  H   H498      1.0  0.50384  0.26637  0.87386  1.0000
  H   H499      1.0  0.59050  0.30594  0.80520  1.0000
  C   C314      1.0  0.56234  0.23832  0.60184  1.0000
  H   H500      1.0  0.68517  0.23813  0.91296  1.0000
  S   S125      1.0  0.55943  0.47032  0.69749  1.0000
  C   C315      1.0  0.64471  0.28424  0.87729  1.0000
  H   H501      1.0  0.70389  0.44260  0.70687  1.0000
  H   H502      1.0  0.54354  0.39056  0.57719  1.0000
  C   C316      1.0  0.64696  0.29829  0.63432  1.0000
  S   S126      1.0  0.59861  0.25545  0.86076  1.0000
  H   H503      1.0  0.62749  0.27965  0.83323  1.0000
  C   C317      1.0  0.65375  0.28198  0.66421  1.0000
  H   H504      1.0  0.62736  0.35922  0.66904  1.0000
  C   C318      1.0  0.58320  0.32166  0.81103  1.0000
  H   H505      1.0  0.62082  0.31874  0.61361  1.0000
  C   C319      1.0  0.54350  0.38077  0.67897  1.0000
  H   H506      1.0  0.50087  0.47329  0.77356  1.0000
  Fe  Fe64      1.0  0.57457  0.41435  0.67941  1.0000
  Fe  Fe65      1.0  0.58960  0.45305  0.66913  1.0000
  H   H507      1.0  0.72391  0.45546  0.04217  1.0000
  C   C320      1.0  0.66614  0.34182  0.67498  1.0000
  C   C321      1.0  0.56982  0.35565  0.78014  1.0000
  S   S127      1.0  0.64456  0.26023  0.90737  1.0000
  H   H508      1.0  0.55068  0.32666  0.77371  1.0000
  C   C322      1.0  0.63620  0.30827  0.81579  1.0000
  H   H509      1.0  0.57987  0.36194  0.79452  1.0000
  H   H510      1.0  0.56890  0.32094  0.83442  1.0000
  N   N31       1.0  0.65884  0.36087  0.64804  1.0000
  S   S128      1.0  0.54308  0.42835  0.70880  1.0000
  C   C323      1.0  0.64650  0.32154  0.82540  1.0000
  S   S129      1.0  0.64684  0.34473  0.79231  1.0000
  C   C324      1.0  0.63530  0.28973  0.84158  1.0000
  H   H511      1.0  0.60692  0.31977  0.73587  1.0000
  H   H512      1.0  0.57225  0.31173  0.74427  1.0000
  S   S130      1.0  0.50388  0.26792  0.66886  1.0000
  H   H513      1.0  0.66182  0.45642  0.79605  1.0000
  Fe  Fe66      1.0  0.55848  0.44242  0.74556  1.0000
  N   N32       1.0  0.57927  0.33496  0.77103  1.0000
  C   C325      1.0  0.56546  0.32723  0.75193  1.0000
  Fe  Fe67      1.0  0.73663  0.27271  0.55283  1.0000
  H   H514      1.0  0.51152  0.38188  0.68465  1.0000
  H   H515      1.0  0.65709  0.48315  0.71057  1.0000
  S   S131      1.0  0.58998  0.42628  0.72082  1.0000
  H   H516      1.0  0.52625  0.42499  0.62916  1.0000
  H   H517      1.0  0.63940  0.34789  0.62217  1.0000
  H   H518      1.0  0.54113  0.39122  0.70097  1.0000
  C   C326      1.0  0.62615  0.30631  0.63704  1.0000
  C   C327      1.0  0.52950  0.36106  0.64286  1.0000
  C   C328      1.0  0.56313  0.37285  0.65928  1.0000
  C   C329      1.0  0.59868  0.33528  0.74099  1.0000
  C   C330      1.0  0.61885  0.28225  0.70021  1.0000
  H   H519      1.0  0.66781  0.32855  0.65884  1.0000
  C   C331      1.0  0.52351  0.48102  0.83964  1.0000
  H   H520      1.0  0.50409  0.42991  0.53180  1.0000
  S   S132      1.0  0.60081  0.27360  0.74233  1.0000
  N   N33       1.0  0.55718  0.23870  0.74737  1.0000
  S   S133      1.0  0.50827  0.35727  0.62628  1.0000
  S   S134      1.0  0.50389  0.28117  0.78111  1.0000
  H   H521      1.0  0.64183  0.45873  0.76675  1.0000
  C   C332      1.0  0.52672  0.37511  0.67043  1.0000
  S   S135      1.0  0.54329  0.44513  0.81274  1.0000
  H   H522      1.0  0.70021  0.28191  0.88857  1.0000
  H   H523      1.0  0.67546  0.25966  0.74707  1.0000
  H   H524      1.0  0.62932  0.31207  0.78772  1.0000
  C   C333      1.0  0.54147  0.47018  0.81855  1.0000
  H   H525      1.0  0.60890  0.34246  0.75288  1.0000
  H   H526      1.0  0.60366  0.46489  0.73549  1.0000
  H   H527      1.0  0.66524  0.42829  0.70705  1.0000
  H   H528      1.0  0.59616  0.34380  0.70930  1.0000
  C   C334      1.0  0.54801  0.40544  0.56601  1.0000
  H   H529      1.0  0.57137  0.25106  0.78631  1.0000
  H   H530      1.0  0.64478  0.26120  0.71993  1.0000
  H   H531      1.0  0.56682  0.36610  0.75058  1.0000
  C   C335      1.0  0.61214  0.29823  0.66967  1.0000
  N   N34       1.0  0.52996  0.42190  0.56320  1.0000
  S   S136      1.0  0.51965  0.47048  0.62923  1.0000
  H   H532      1.0  0.59353  0.32713  0.82632  1.0000
  H   H533      1.0  0.56212  0.33693  0.72173  1.0000
  Fe  Fe68      1.0  0.61266  0.25032  0.79405  1.0000
  H   H534      1.0  0.74159  0.44994  0.94929  1.0000
  S   S137      1.0  0.61483  0.46996  0.64438  1.0000
  S   S138      1.0  0.57699  0.43977  0.62521  1.0000
  Fe  Fe69      1.0  0.54679  0.45471  0.65843  1.0000
  H   H535      1.0  0.69784  0.44748  0.76124  1.0000
  H   H536      1.0  0.70937  0.41041  0.57471  1.0000
  C   C336      1.0  0.50821  0.25527  0.90168  1.0000
  H   H537      1.0  0.65165  0.39270  0.65145  1.0000
  H   H538      1.0  0.70702  0.25210  0.83108  1.0000
  H   H539      1.0  0.65539  0.33966  0.70549  1.0000
  H   H540      1.0  0.70336  0.47624  0.03096  1.0000
  H   H541      1.0  0.52497  0.23984  0.76291  1.0000
  C   C337      1.0  0.69331  0.25673  0.81589  1.0000
  C   C338      1.0  0.63869  0.36069  0.63918  1.0000
  S   S139      1.0  0.67041  0.39162  0.77123  1.0000
  C   C339      1.0  0.73618  0.35480  0.60354  1.0000
  H   H542      1.0  0.65671  0.43444  0.78235  1.0000
  H   H543      1.0  0.70607  0.29674  0.74515  1.0000
  H   H544      1.0  0.67220  0.37861  0.67753  1.0000
  C   C340      1.0  0.65623  0.31607  0.86078  1.0000
  H   H545      1.0  0.68120  0.34155  0.68267  1.0000
  C   C341      1.0  0.60876  0.47901  0.72491  1.0000
  H   H546      1.0  0.70291  0.43135  0.03718  1.0000
  H   H547      1.0  0.64654  0.37682  0.70168  1.0000
  C   C342      1.0  0.65523  0.29743  0.88693  1.0000
  C   C343      1.0  0.70260  0.46911  0.95311  1.0000
  C   C344      1.0  0.65720  0.37803  0.67065  1.0000
  H   H548      1.0  0.66265  0.29323  0.91442  1.0000
  S   S140      1.0  0.74322  0.34686  0.52173  1.0000
  C   C345      1.0  0.65744  0.45053  0.77050  1.0000
  H   H549      1.0  0.66423  0.32628  0.86844  1.0000
  H   H550      1.0  0.67651  0.44580  0.66652  1.0000
  H   H551      1.0  0.55711  0.40757  0.58873  1.0000
  H   H552      1.0  0.55819  0.40449  0.53458  1.0000
  C   C346      1.0  0.69667  0.44240  0.01112  1.0000
  H   H553      1.0  0.68142  0.26594  0.83717  1.0000
  C   C347      1.0  0.55485  0.25749  0.71673  1.0000
  N   N35       1.0  0.71157  0.45464  0.98713  1.0000
  Fe  Fe70      1.0  0.73488  0.28862  0.63267  1.0000
  C   C348      1.0  0.73877  0.42034  0.85734  1.0000
  H   H554      1.0  0.56828  0.26466  0.71101  1.0000
  H   H555      1.0  0.68881  0.36274  0.61296  1.0000
  H   H556      1.0  0.52331  0.45413  0.54477  1.0000
  H   H557      1.0  0.71386  0.47776  0.93277  1.0000
  C   C349      1.0  0.71561  0.28413  0.87726  1.0000
  C   C350      1.0  0.73193  0.26769  0.88026  1.0000
  H   H558      1.0  0.71741  0.26297  0.71344  1.0000
  H   H559      1.0  0.67479  0.35023  0.58941  1.0000
  C   C351      1.0  0.53655  0.44127  0.54646  1.0000
  C   C352      1.0  0.70391  0.28694  0.77645  1.0000
  H   H560      1.0  0.69243  0.43368  0.98999  1.0000
  Fe  Fe71      1.0  0.68814  0.39179  0.82129  1.0000
  H   H561      1.0  0.49997  0.47118  0.71991  1.0000
  S   S141      1.0  0.68065  0.41973  0.85231  1.0000
  Fe  Fe72      1.0  0.71626  0.35251  0.80396  1.0000
  S   S142      1.0  0.70162  0.34941  0.75073  1.0000
  C   C353      1.0  0.69252  0.44164  0.73685  1.0000
  Fe  Fe73      1.0  0.70066  0.38258  0.73096  1.0000
  S   S143      1.0  0.70429  0.40091  0.66589  1.0000
  H   H562      1.0  0.66650  0.28188  0.77250  1.0000
  S   S144      1.0  0.71841  0.38477  0.77922  1.0000
  S   S145      1.0  0.68724  0.35963  0.85046  1.0000
  C   C354      1.0  0.55732  0.47997  0.79819  1.0000
  H   H563      1.0  0.51129  0.47340  0.85580  1.0000
  C   C355      1.0  0.71452  0.25552  0.74696  1.0000
  H   H564      1.0  0.55304  0.25477  0.68529  1.0000
  C   C356      1.0  0.67973  0.27339  0.75262  1.0000
  N   N36       1.0  0.67201  0.45276  0.73011  1.0000
  S   S146      1.0  0.71376  0.31724  0.61360  1.0000
  H   H565      1.0  0.54140  0.26864  0.72879  1.0000
  Fe  Fe74      1.0  0.67266  0.35877  0.79536  1.0000
  H   H566      1.0  0.54583  0.44465  0.56733  1.0000
  C   C357      1.0  0.71718  0.38660  0.62551  1.0000
  C   C358      1.0  0.72011  0.45485  0.85277  1.0000
  C   C359      1.0  0.70236  0.44829  0.85210  1.0000
  C   C360      1.0  0.70286  0.42774  0.85373  1.0000
  C   C361      1.0  0.72109  0.41377  0.85626  1.0000
  C   C362      1.0  0.66572  0.44455  0.69732  1.0000
  C   C363      1.0  0.72705  0.36665  0.63581  1.0000
  H   H567      1.0  0.68829  0.45914  0.85002  1.0000
  H   H568      1.0  0.72152  0.39784  0.85831  1.0000
  H   H569      1.0  0.69220  0.29604  0.79846  1.0000
  Fe  Fe75      1.0  0.69752  0.29848  0.58988  1.0000
  H   H570      1.0  0.68940  0.48034  0.96641  1.0000
  S   S147      1.0  0.71618  0.26932  0.61661  1.0000
  H   H571      1.0  0.50184  0.26260  0.93068  1.0000
  H   H572      1.0  0.71847  0.28366  0.78853  1.0000
  N   N37       1.0  0.69787  0.26817  0.77296  1.0000
  H   H573      1.0  0.57134  0.47147  0.78275  1.0000
  H   H574      1.0  0.66978  0.27543  0.66140  1.0000
  S   S148      1.0  0.71678  0.30066  0.52494  1.0000
  H   H575      1.0  0.51271  0.40323  0.54639  1.0000
  S   S149      1.0  0.66386  0.30948  0.59364  1.0000
  C   C364      1.0  0.71693  0.46584  0.01621  1.0000
  H   H576      1.0  0.54589  0.44113  0.51402  1.0000
  C   C365      1.0  0.71916  0.30343  0.85888  1.0000
  H   H577      1.0  0.70649  0.31599  0.85608  1.0000
  H   H578      1.0  0.66854  0.37722  0.58656  1.0000
  H   H579      1.0  0.72795  0.47541  0.99895  1.0000
  C   C366      1.0  0.67236  0.47437  0.71582  1.0000
  S   S150      1.0  0.72716  0.24345  0.90078  1.0000
  H   H580      1.0  0.68245  0.28303  0.72117  1.0000
  H   H581      1.0  0.69269  0.42536  0.74828  1.0000
  H   H582      1.0  0.69723  0.46129  0.93212  1.0000
  C   C367      1.0  0.67336  0.36287  0.60748  1.0000
  C   C368      1.0  0.73502  0.36274  0.56098  1.0000
  H   H583      1.0  0.54446  0.25379  0.80204  1.0000
  Fe  Fe76      1.0  0.50480  0.28985  0.71067  1.0000
  Fe  Fe77      1.0  0.63033  0.24348  0.87336  1.0000
  H   H584      1.0  0.68247  0.45208  0.02563  1.0000
  H   H585      1.0  0.52510  0.25226  0.89779  1.0000
  S   S151      1.0  0.64466  0.24063  0.80549  1.0000
  H   H586      1.0  0.72894  0.25250  0.75956  1.0000
  C   C369      1.0  0.73907  0.30639  0.84456  1.0000
  H   H587      1.0  0.72737  0.36036  0.66866  1.0000
  H   H588      1.0  0.67698  0.48106  0.73989  1.0000
  H   H589      1.0  0.71086  0.24071  0.74632  1.0000
  C   C370      1.0  0.61543  0.48495  0.68163  1.0000
  H   H590      1.0  0.71962  0.47068  0.85119  1.0000
  C   C371      1.0  0.51735  0.42300  0.60597  1.0000
  H   H591      1.0  0.50362  0.23792  0.83707  1.0000
  C   C372      1.0  0.73832  0.44088  0.85580  1.0000
  H   H592      1.0  0.68316  0.47664  0.68535  1.0000
  C   C373      1.0  0.71693  0.39491  0.58281  1.0000
  H   H593      1.0  0.55744  0.48180  0.58370  1.0000
  C   C374      1.0  0.51788  0.41781  0.53447  1.0000
  H   H594      1.0  0.50420  0.43598  0.60552  1.0000
  H   H595      1.0  0.51120  0.40905  0.61852  1.0000
  H   H596      1.0  0.72655  0.43259  0.94571  1.0000
  C   C375      1.0  0.72584  0.38298  0.55052  1.0000
  C   C376      1.0  0.73004  0.44122  0.96797  1.0000
  H   H597      1.0  0.73734  0.43011  0.99256  1.0000
  H   H598      1.0  0.72498  0.38920  0.51764  1.0000
  H   H599      1.0  0.71950  0.57552  0.61142  1.0000
  H   H600      1.0  0.51338  0.60123  0.76086  1.0000
  C   C377      1.0  0.52133  0.62044  0.38409  1.0000
  H   H601      1.0  0.70052  0.60024  0.82249  1.0000
  H   H602      1.0  0.54404  0.57062  0.39551  1.0000
  H   H603      1.0  0.53660  0.58707  0.43474  1.0000
  H   H604      1.0  0.51620  0.62171  0.41852  1.0000
  H   H605      1.0  0.56404  0.51130  0.52931  1.0000
  H   H606      1.0  0.69823  0.57787  0.89191  1.0000
  H   H607      1.0  0.72269  0.55402  0.94525  1.0000
  C   C378      1.0  0.50614  0.59149  0.39166  1.0000
  S   S152      1.0  0.49576  0.58093  0.86426  1.0000
  N   N38       1.0  0.52509  0.59927  0.37652  1.0000
  H   H608      1.0  0.70166  0.59487  0.10569  1.0000
  H   H609      1.0  0.71038  0.58705  0.97057  1.0000
  C   C379      1.0  0.60903  0.49117  0.75472  1.0000
  H   H610      1.0  0.66365  0.56331  0.06275  1.0000
  H   H611      1.0  0.53939  0.58105  0.89753  1.0000
  H   H612      1.0  0.57689  0.51174  0.68803  1.0000
  H   H613      1.0  0.56427  0.66172  0.76225  1.0000
  Fe  Fe78      1.0  0.50930  0.56940  0.51755  1.0000
  Fe  Fe79      1.0  0.61552  0.55669  0.74771  1.0000
  S   S153      1.0  0.61509  0.52487  0.77864  1.0000
  Fe  Fe80      1.0  0.59230  0.59910  0.75951  1.0000
  S   S154      1.0  0.57028  0.62016  0.80068  1.0000
  Fe  Fe81      1.0  0.63716  0.59178  0.72552  1.0000
  S   S155      1.0  0.61881  0.57906  0.78592  1.0000
  S   S156      1.0  0.53272  0.53821  0.80678  1.0000
  H   H614      1.0  0.58769  0.55302  0.65046  1.0000
  C   C380      1.0  0.54507  0.62398  0.79343  1.0000
  C   C381      1.0  0.53882  0.61025  0.77509  1.0000
  C   C382      1.0  0.51825  0.61240  0.77340  1.0000
  C   C383      1.0  0.66989  0.58028  0.84498  1.0000
  C   C384      1.0  0.53089  0.64058  0.80770  1.0000
  H   H615      1.0  0.53564  0.65122  0.82204  1.0000
  H   H616      1.0  0.59482  0.56018  0.87195  1.0000
  H   H617      1.0  0.53747  0.60005  0.55586  1.0000
  C   C385      1.0  0.55494  0.50074  0.79731  1.0000
  C   C386      1.0  0.53647  0.51187  0.81557  1.0000
  C   C387      1.0  0.50866  0.50498  0.57597  1.0000
  Fe  Fe82      1.0  0.66529  0.65157  0.90498  1.0000
  H   H618      1.0  0.56724  0.50826  0.78147  1.0000
  C   C388      1.0  0.54106  0.58677  0.39987  1.0000
  C   C389      1.0  0.66532  0.64260  0.80570  1.0000
  H   H619      1.0  0.50835  0.57542  0.38741  1.0000
  C   C390      1.0  0.61534  0.50958  0.74114  1.0000
  C   C391      1.0  0.62183  0.51559  0.69773  1.0000
  H   H620      1.0  0.53460  0.58258  0.32370  1.0000
  S   S157      1.0  0.58708  0.57535  0.72694  1.0000
  H   H621      1.0  0.50695  0.51031  0.85330  1.0000
  H   H622      1.0  0.57890  0.55560  0.60132  1.0000
  C   C392      1.0  0.56707  0.67733  0.75754  1.0000
  Fe  Fe83      1.0  0.60831  0.58781  0.67141  1.0000
  H   H623      1.0  0.60460  0.66892  0.71325  1.0000
  H   H624      1.0  0.60120  0.64832  0.75524  1.0000
  S   S158      1.0  0.61085  0.61339  0.70169  1.0000
  C   C393      1.0  0.56581  0.52588  0.69462  1.0000
  H   H625      1.0  0.59290  0.53174  0.62257  1.0000
  C   C394      1.0  0.64566  0.64478  0.82971  1.0000
  H   H626      1.0  0.53259  0.55388  0.68536  1.0000
  H   H627      1.0  0.55362  0.68660  0.77549  1.0000
  H   H628      1.0  0.50063  0.59239  0.42601  1.0000
  H   H629      1.0  0.58185  0.65421  0.82537  1.0000
  C   C395      1.0  0.65694  0.62090  0.76431  1.0000
  H   H630      1.0  0.57470  0.59161  0.54917  1.0000
  H   H631      1.0  0.61789  0.66457  0.75705  1.0000
  C   C396      1.0  0.53209  0.61038  0.61645  1.0000
  H   H632      1.0  0.61672  0.63613  0.84036  1.0000
  S   S159      1.0  0.53642  0.54639  0.49541  1.0000
  C   C397      1.0  0.54686  0.55769  0.66540  1.0000
  C   C398      1.0  0.56542  0.59780  0.57683  1.0000
  H   H633      1.0  0.54601  0.60412  0.31795  1.0000
  C   C399      1.0  0.58972  0.69829  0.76346  1.0000
  H   H634      1.0  0.62751  0.50765  0.63455  1.0000
  C   C400      1.0  0.58419  0.67006  0.81796  1.0000
  C   C401      1.0  0.54426  0.60265  0.58056  1.0000
  N   N39       1.0  0.58603  0.67750  0.77181  1.0000
  H   H635      1.0  0.60389  0.69886  0.77427  1.0000
  H   H636      1.0  0.53962  0.52457  0.64442  1.0000
  H   H637      1.0  0.57700  0.70870  0.78060  1.0000
  C   C402      1.0  0.58120  0.54518  0.63130  1.0000
  C   C403      1.0  0.63723  0.62346  0.78789  1.0000
  H   H638      1.0  0.59811  0.67037  0.82999  1.0000
  H   H639      1.0  0.57113  0.67939  0.83672  1.0000
  N   N40       1.0  0.56393  0.55705  0.87806  1.0000
  C   C404      1.0  0.55168  0.54132  0.89430  1.0000
  C   C405      1.0  0.58518  0.54866  0.88377  1.0000
  C   C406      1.0  0.55543  0.57447  0.90141  1.0000
  C   C407      1.0  0.56346  0.56384  0.83238  1.0000
  H   H640      1.0  0.55751  0.52813  0.87670  1.0000
  H   H641      1.0  0.53555  0.54715  0.89036  1.0000
  H   H642      1.0  0.55175  0.53571  0.92868  1.0000
  H   H643      1.0  0.59204  0.53572  0.86570  1.0000
  H   H644      1.0  0.58619  0.54313  0.91783  1.0000
  H   H645      1.0  0.56417  0.58676  0.88934  1.0000
  H   H646      1.0  0.55562  0.57003  0.93608  1.0000
  H   H647      1.0  0.56986  0.55114  0.81350  1.0000
  H   H648      1.0  0.57235  0.57586  0.81936  1.0000
  H   H649      1.0  0.54765  0.57013  0.82674  1.0000
  H   H650      1.0  0.54962  0.59757  0.76348  1.0000
  H   H651      1.0  0.62616  0.61640  0.78108  1.0000
  C   C408      1.0  0.51238  0.52175  0.54599  1.0000
  C   C409      1.0  0.63169  0.63508  0.82096  1.0000
  S   S160      1.0  0.63669  0.56729  0.68940  1.0000
  H   H652      1.0  0.62679  0.52972  0.68696  1.0000
  H   H653      1.0  0.56523  0.51489  0.62014  1.0000
  N   N41       1.0  0.56201  0.53942  0.65488  1.0000
  C   C410      1.0  0.55423  0.52891  0.62816  1.0000
  H   H654      1.0  0.55151  0.53866  0.59753  1.0000
  H   H655      1.0  0.55275  0.56667  0.68328  1.0000
  H   H656      1.0  0.54273  0.56768  0.63617  1.0000
  H   H657      1.0  0.66157  0.56967  0.86835  1.0000
  H   H658      1.0  0.59143  0.70434  0.72890  1.0000
  H   H659      1.0  0.56775  0.68324  0.72305  1.0000
  H   H660      1.0  0.66724  0.59447  0.85879  1.0000
  C   C411      1.0  0.52484  0.49069  0.58996  1.0000
  S   S161      1.0  0.63863  0.65906  0.87151  1.0000
  H   H661      1.0  0.56941  0.61059  0.67019  1.0000
  S   S162      1.0  0.60077  0.59176  0.60660  1.0000
  C   C412      1.0  0.56245  0.60829  0.64518  1.0000
  H   H662      1.0  0.55161  0.52152  0.71366  1.0000
  H   H663      1.0  0.53192  0.61947  0.67639  1.0000
  C   C413      1.0  0.60319  0.66428  0.74828  1.0000
  H   H664      1.0  0.57208  0.53324  0.71512  1.0000
  C   C414      1.0  0.57452  0.60025  0.60946  1.0000
  C   C415      1.0  0.54124  0.61346  0.64855  1.0000
  H   H665      1.0  0.66278  0.58398  0.81608  1.0000
  C   C416      1.0  0.53231  0.52411  0.52916  1.0000
  S   S163      1.0  0.50925  0.60239  0.50777  1.0000
  H   H666      1.0  0.69262  0.55326  0.89627  1.0000
  C   C417      1.0  0.62226  0.50308  0.66807  1.0000
  S   S164      1.0  0.66434  0.60405  0.72698  1.0000
  H   H667      1.0  0.71101  0.54681  0.80459  1.0000
  S   S165      1.0  0.50550  0.61507  0.62259  1.0000
  H   H668      1.0  0.72613  0.59304  0.70816  1.0000
  S   S166      1.0  0.66479  0.65607  0.97175  1.0000
  C   C418      1.0  0.67096  0.63071  0.77283  1.0000
  C   C419      1.0  0.54860  0.50945  0.54208  1.0000
  H   H669      1.0  0.50859  0.52309  0.71410  1.0000
  S   S167      1.0  0.71301  0.63230  0.95716  1.0000
  H   H670      1.0  0.67483  0.53074  0.03436  1.0000
  H   H671      1.0  0.70041  0.62756  0.05785  1.0000
  C   C420      1.0  0.67653  0.56128  0.03710  1.0000
  C   C421      1.0  0.51043  0.64324  0.80424  1.0000
  H   H672      1.0  0.49954  0.65598  0.81559  1.0000
  C   C422      1.0  0.68620  0.57736  0.01851  1.0000
  Fe  Fe84      1.0  0.68248  0.62424  0.97867  1.0000
  H   H673      1.0  0.53522  0.62695  0.37299  1.0000
  H   H674      1.0  0.55565  0.59211  0.38930  1.0000
  H   H675      1.0  0.51998  0.60761  0.31200  1.0000
  C   C423      1.0  0.69933  0.54030  0.98742  1.0000
  S   S168      1.0  0.70419  0.69062  0.96026  1.0000
  C   C424      1.0  0.71121  0.59110  0.61620  1.0000
  H   H676      1.0  0.51821  0.49953  0.69338  1.0000
  H   H677      1.0  0.69509  0.59031  0.63038  1.0000
  S   S169      1.0  0.67696  0.60097  0.03562  1.0000
  C   C425      1.0  0.54486  0.49284  0.57297  1.0000
  C   C426      1.0  0.70014  0.56495  0.87446  1.0000
  H   H678      1.0  0.68683  0.54196  0.83295  1.0000
  C   C427      1.0  0.68287  0.54287  0.02106  1.0000
  C   C428      1.0  0.70282  0.57470  0.98520  1.0000
  Fe  Fe85      1.0  0.70911  0.62980  0.89209  1.0000
  S   S170      1.0  0.73205  0.50570  0.85358  1.0000
  H   H679      1.0  0.49971  0.53290  0.53601  1.0000
  C   C429      1.0  0.70896  0.62020  0.64939  1.0000
  H   H680      1.0  0.68853  0.55822  0.78246  1.0000
  H   H681      1.0  0.71466  0.62659  0.67231  1.0000
  Fe  Fe86      1.0  0.69535  0.66389  0.94490  1.0000
  C   C430      1.0  0.71436  0.62902  0.06825  1.0000
  H   H682      1.0  0.72264  0.63844  0.04179  1.0000
  H   H683      1.0  0.71017  0.63074  0.61887  1.0000
  H   H684      1.0  0.71666  0.55848  0.86775  1.0000
  C   C431      1.0  0.69463  0.55382  0.81272  1.0000
  C   C432      1.0  0.71564  0.59714  0.11478  1.0000
  H   H685      1.0  0.50906  0.63019  0.36757  1.0000
  H   H686      1.0  0.71082  0.60481  0.14353  1.0000
  H   H687      1.0  0.70940  0.63753  0.09578  1.0000
  H   H688      1.0  0.71965  0.59597  0.03150  1.0000
  C   C433      1.0  0.50401  0.62879  0.78833  1.0000
  C   C434      1.0  0.72700  0.64619  0.73798  1.0000
  C   C435      1.0  0.72379  0.63835  0.78146  1.0000
  C   C436      1.0  0.71999  0.58666  0.68581  1.0000
  H   H689      1.0  0.71795  0.66049  0.72646  1.0000
  H   H690      1.0  0.71223  0.64660  0.80316  1.0000
  N   N42       1.0  0.69179  0.57142  0.83477  1.0000
  H   H691      1.0  0.69706  0.59158  0.77644  1.0000
  H   H692      1.0  0.68621  0.62899  0.75451  1.0000
  C   C437      1.0  0.50979  0.50647  0.72204  1.0000
  S   S171      1.0  0.69429  0.66233  0.87726  1.0000
  C   C438      1.0  0.53172  0.59835  0.33048  1.0000
  C   C439      1.0  0.70263  0.58660  0.80706  1.0000
  C   C440      1.0  0.73313  0.59820  0.04216  1.0000
  H   H693      1.0  0.72951  0.71976  0.93098  1.0000
  C   C441      1.0  0.73053  0.68813  0.95351  1.0000
  S   S172      1.0  0.68006  0.61885  0.91454  1.0000
  H   H694      1.0  0.67610  0.65018  0.81235  1.0000
  H   H695      1.0  0.69257  0.62040  0.66184  1.0000
  N   N43       1.0  0.72051  0.59959  0.64387  1.0000
  H   H696      1.0  0.71930  0.58049  0.79972  1.0000
  C   C442      1.0  0.52098  0.50194  0.83795  1.0000
  H   H697      1.0  0.70426  0.58507  0.70082  1.0000
  H   H698      1.0  0.71128  0.60051  0.58431  1.0000
  Fe  Fe87      1.0  0.50113  0.55455  0.82960  1.0000
  H   H699      1.0  0.72911  0.57115  0.68313  1.0000
  C   C443      1.0  0.70972  0.55601  0.97053  1.0000
  S   S173      1.0  0.70563  0.51792  0.96505  1.0000
  S   S174      1.0  0.73457  0.61163  0.85117  1.0000
  Fe  Fe88      1.0  0.49537  0.60060  0.57679  1.0000
  N   N44       1.0  0.72721  0.60903  0.07937  1.0000
  H   H700      1.0  0.51914  0.50092  0.74756  1.0000
  S   S175      1.0  0.49789  0.56715  0.58774  1.0000
  H   H701      1.0  0.72486  0.58191  0.12376  1.0000
  C   C444      1.0  0.73610  0.62030  0.79666  1.0000
  H   H702      1.0  0.73649  0.65619  0.97530  1.0000
  Fe  Fe89      1.0  0.73391  0.51447  0.91522  1.0000
  H   H703      1.0  0.73781  0.67976  0.82321  1.0000
  C   C445      1.0  0.73918  0.70514  0.93796  1.0000
  H   H704      1.0  0.74281  0.61024  0.59261  1.0000
  C   C446      1.0  0.74181  0.60039  0.62405  1.0000
  H   H705      1.0  0.74184  0.65375  0.84722  1.0000
  H   H706      1.0  0.49369  0.60052  0.37483  1.0000
  H   H707      1.0  0.74200  0.61962  0.12027  1.0000
  C   C447      1.0  0.74268  0.63600  0.70999  1.0000
  C   C448      1.0  0.74304  0.66926  0.96257  1.0000
  H   H708      1.0  0.74271  0.58304  0.04978  1.0000
  H   H709      1.0  0.74205  0.60654  0.01471  1.0000
  Fe  Fe90      1.0  0.91542  0.15493  0.09619  1.0000
  S   S176      1.0  0.90652  0.15348  0.16651  1.0000
  S   S177      1.0  0.94539  0.13734  0.06731  1.0000
  Fe  Fe91      1.0  0.87619  0.18377  0.08022  1.0000
  S   S178      1.0  0.86407  0.18496  0.14988  1.0000
  H   H710      1.0  0.96792  0.18001  0.20987  1.0000
  Fe  Fe92      1.0  0.89574  0.18678  0.15277  1.0000
  H   H711      1.0  0.98763  0.13036  0.03272  1.0000
  Fe  Fe93      1.0  0.87594  0.15162  0.15706  1.0000
  S   S179      1.0  0.86126  0.13007  0.20737  1.0000
  S   S180      1.0  0.90711  0.18865  0.08268  1.0000
  S   S181      1.0  0.88561  0.14993  0.08729  1.0000
  H   H712      1.0  0.97049  0.10640  0.38899  1.0000
  H   H713      1.0  0.77393  0.18004  0.63130  1.0000
  Fe  Fe94      1.0  0.84847  0.14489  0.43216  1.0000
  S   S182      1.0  0.96701  0.19353  0.29109  1.0000
  C   C449      1.0  0.96404  0.14406  0.12905  1.0000
  C   C450      1.0  0.96632  0.13904  0.08825  1.0000
  C   C451      1.0  0.92965  0.16264  0.40735  1.0000
  Fe  Fe95      1.0  0.94919  0.00016  0.30316  1.0000
  H   H714      1.0  0.80752  0.17796  0.25109  1.0000
  C   C452      1.0  0.77592  0.22957  0.56606  1.0000
  H   H715      1.0  0.93691  0.08174  0.12564  1.0000
  C   C453      1.0  0.95020  0.15453  0.39471  1.0000
  C   C454      1.0  0.87239  0.08808  0.36862  1.0000
  S   S183      1.0  0.85832  0.20370  0.03193  1.0000
  H   H716      1.0  0.84219  0.16950  0.85764  1.0000
  H   H717      1.0  0.97836  0.06158  0.42725  1.0000
  C   C455      1.0  0.97051  0.05402  0.14120  1.0000
  C   C456      1.0  0.86574  0.21386  0.23582  1.0000
  C   C457      1.0  0.87742  0.20770  0.31537  1.0000
  C   C458      1.0  0.84742  0.20720  0.82446  1.0000
  C   C459      1.0  0.96148  0.16390  0.35867  1.0000
  C   C460      1.0  0.92055  0.18066  0.38476  1.0000
  H   H718      1.0  0.99092  0.07418  0.07247  1.0000
  H   H719      1.0  0.85832  0.15129  0.27368  1.0000
  C   C461      1.0  0.88384  0.10603  0.41286  1.0000
  Fe  Fe96      1.0  0.97534  0.03066  0.26020  1.0000
  C   C462      1.0  0.84262  0.17189  0.02293  1.0000
  H   H720      1.0  0.84670  0.17001  0.90985  1.0000
  S   S184      1.0  0.74858  0.15753  0.81955  1.0000
  H   H721      1.0  0.89916  0.00086  0.12796  1.0000
  S   S185      1.0  0.93109  0.06213  0.37828  1.0000
  S   S186      1.0  0.90502  0.20412  0.19405  1.0000
  S   S187      1.0  0.94882  0.05656  0.26171  1.0000
  H   H722      1.0  0.92824  0.16296  0.28367  1.0000
  H   H723      1.0  0.78368  0.17100  0.75958  1.0000
  H   H724      1.0  0.91461  0.13314  0.36078  1.0000
  H   H725      1.0  0.94911  0.14764  0.14785  1.0000
  C   C463      1.0  0.87568  0.10594  0.20194  1.0000
  C   C464      1.0  0.88161  0.09290  0.23766  1.0000
  C   C465      1.0  0.88217  0.10006  0.16157  1.0000
  H   H726      1.0  0.87655  0.09742  0.26892  1.0000
  H   H727      1.0  0.87746  0.11008  0.13400  1.0000
  C   C466      1.0  0.94722  0.08623  0.14261  1.0000
  C   C467      1.0  0.76575  0.22728  0.53485  1.0000
  C   C468      1.0  0.84851  0.15922  0.29974  1.0000
  C   C469      1.0  0.95258  0.18202  0.33625  1.0000
  C   C470      1.0  0.77172  0.20983  0.51563  1.0000
  C   C471      1.0  0.82377  0.17459  0.25448  1.0000
  H   H728      1.0  0.81667  0.16576  0.36256  1.0000
  H   H729      1.0  0.86054  0.08605  0.35362  1.0000
  H   H730      1.0  0.82248  0.13415  0.33284  1.0000
  H   H731      1.0  0.93079  0.11083  0.34209  1.0000
  H   H732      1.0  0.85874  0.19875  0.92404  1.0000
  C   C472      1.0  0.89449  0.08104  0.15686  1.0000
  H   H733      1.0  0.88197  0.20521  0.34609  1.0000
  H   H734      1.0  0.94430  0.19762  0.21787  1.0000
  S   S188      1.0  0.91551  0.14962  0.45042  1.0000
  H   H735      1.0  0.88113  0.11783  0.43200  1.0000
  Fe  Fe97      1.0  0.75300  0.21850  0.88088  1.0000
  C   C473      1.0  0.81451  0.17426  0.33057  1.0000
  H   H736      1.0  0.96523  0.07589  0.06565  1.0000
  C   C474      1.0  0.90684  0.07770  0.38321  1.0000
  C   C475      1.0  0.93694  0.12615  0.25938  1.0000
  H   H737      1.0  0.95746  0.14098  0.41260  1.0000
  C   C476      1.0  0.97475  0.08114  0.08325  1.0000
  H   H738      1.0  0.89943  0.06425  0.26027  1.0000
  S   S189      1.0  0.75797  0.21136  0.81463  1.0000
  C   C477      1.0  0.84097  0.19281  0.01618  1.0000
  S   S190      1.0  0.75220  0.18658  0.91183  1.0000
  Fe  Fe98      1.0  0.93323  0.03579  0.24195  1.0000
  N   N45       1.0  0.96857  0.07611  0.12978  1.0000
  H   H739      1.0  0.97745  0.07955  0.18711  1.0000
  H   H740      1.0  0.94035  0.13364  0.33516  1.0000
  S   S191      1.0  0.92028  0.02365  0.30853  1.0000
  H   H741      1.0  0.94892  0.18132  0.17834  1.0000
  N   N46       1.0  0.82682  0.16285  0.29647  1.0000
  C   C478      1.0  0.84182  0.17965  0.88073  1.0000
  C   C479      1.0  0.82601  0.20517  0.99426  1.0000
  H   H742      1.0  0.89939  0.07650  0.12560  1.0000
  H   H743      1.0  0.95070  0.13231  0.25783  1.0000
  H   H744      1.0  0.89659  0.13006  0.26272  1.0000
  H   H745      1.0  0.94138  0.10937  0.26542  1.0000
  H   H746      1.0  0.79803  0.17721  0.32938  1.0000
  C   C480      1.0  0.89454  0.07415  0.23275  1.0000
  C   C481      1.0  0.94533  0.08045  0.47553  1.0000
  C   C482      1.0  0.93215  0.19057  0.34966  1.0000
  H   H747      1.0  0.81882  0.18909  0.32796  1.0000
  C   C483      1.0  0.89216  0.20567  0.27855  1.0000
  H   H748      1.0  0.80432  0.14548  0.29845  1.0000
  S   S192      1.0  0.91779  0.04536  0.18566  1.0000
  H   H749      1.0  0.82974  0.13407  0.27672  1.0000
  C   C484      1.0  0.82053  0.14332  0.30132  1.0000
  H   H750      1.0  0.80150  0.21713  0.59825  1.0000
  H   H751      1.0  0.85356  0.17360  0.29799  1.0000
  C   C485      1.0  0.90089  0.06824  0.19234  1.0000
  Fe  Fe99      1.0  0.93889  0.04202  0.32793  1.0000
  S   S193      1.0  0.87121  0.16183  0.39085  1.0000
  S   S194      1.0  0.96682  0.01744  0.32845  1.0000
  C   C486      1.0  0.92680  0.12757  0.33457  1.0000
  C   C487      1.0  0.90223  0.12543  0.29351  1.0000
  N   N47       1.0  0.92022  0.13384  0.29285  1.0000
  H   H752      1.0  0.90576  0.10862  0.29945  1.0000
  C   C488      1.0  0.91502  0.15612  0.28420  1.0000
  H   H753      1.0  0.88952  0.13046  0.31923  1.0000
  H   H754      1.0  0.93247  0.13038  0.22747  1.0000
  S   S195      1.0  0.82499  0.17266  0.44463  1.0000
  H   H755      1.0  0.92533  0.20485  0.33307  1.0000
  H   H756      1.0  0.85143  0.14969  0.33027  1.0000
  Fe  Fe100     1.0  0.84885  0.18946  0.40826  1.0000
  H   H757      1.0  0.90989  0.16157  0.25302  1.0000
  Fe  Fe101     1.0  0.76047  0.17931  0.84545  1.0000
  H   H758      1.0  0.82886  0.18919  0.24937  1.0000
  H   H759      1.0  0.90809  0.20162  0.28073  1.0000
  H   H760      1.0  0.84775  0.19785  0.79980  1.0000
  C   C489      1.0  0.86843  0.10339  0.39399  1.0000
  H   H761      1.0  0.90474  0.18717  0.39499  1.0000
  H   H762      1.0  0.90257  0.16238  0.30912  1.0000
  C   C490      1.0  0.89172  0.07529  0.36292  1.0000
  C   C491      1.0  0.88633  0.20834  0.23895  1.0000
  H   H763      1.0  0.78210  0.14988  0.73683  1.0000
  H   H764      1.0  0.82452  0.22139  0.98947  1.0000
  C   C492      1.0  0.78845  0.19511  0.52587  1.0000
  H   H765      1.0  0.95516  0.23034  0.11337  1.0000
  H   H766      1.0  0.79950  0.19631  0.67683  1.0000
  S   S196      1.0  0.84459  0.11968  0.40188  1.0000
  H   H767      1.0  0.98869  0.20663  0.10579  1.0000
  C   C493      1.0  0.96648  0.10419  0.47340  1.0000
  H   H768      1.0  0.94179  0.20992  0.12318  1.0000
  N   N48       1.0  0.96499  0.20576  0.16097  1.0000
  H   H769      1.0  0.83150  0.14708  0.01119  1.0000
  S   S197      1.0  0.96056  0.01110  0.23471  1.0000
  C   C494      1.0  0.98181  0.08301  0.15190  1.0000
  H   H770      1.0  0.89475  0.06339  0.34362  1.0000
  H   H771      1.0  0.97950  0.14778  0.17733  1.0000
  H   H772      1.0  0.97937  0.11124  0.45515  1.0000
  Fe  Fe102     1.0  0.88209  0.16103  0.45123  1.0000
  H   H773      1.0  0.85404  0.16224  0.03976  1.0000
  C   C495      1.0  0.98125  0.14410  0.14580  1.0000
  N   N49       1.0  0.96265  0.08925  0.45051  1.0000
  H   H774      1.0  0.94159  0.06957  0.45848  1.0000
  H   H775      1.0  0.93662  0.22706  0.16098  1.0000
  H   H776      1.0  0.90896  0.00495  0.23369  1.0000
  H   H777      1.0  0.91436  0.09521  0.42345  1.0000
  C   C496      1.0  0.90281  0.09311  0.40797  1.0000
  C   C497      1.0  0.82983  0.16332  0.00667  1.0000
  H   H778      1.0  0.88183  0.17456  0.87887  1.0000
  S   S198      1.0  0.83844  0.21471  0.35845  1.0000
  H   H779      1.0  0.83257  0.16618  0.22811  1.0000
  H   H780      1.0  0.79809  0.16711  0.64445  1.0000
  C   C498      1.0  0.98577  0.13422  0.06427  1.0000
  H   H781      1.0  0.94862  0.07222  0.50697  1.0000
  H   H782      1.0  0.87733  0.17410  0.82661  1.0000
  S   S199      1.0  0.86209  0.19086  0.46460  1.0000
  H   H783      1.0  0.87612  0.99971  0.22143  1.0000
  C   C499      1.0  0.81537  0.17562  0.98353  1.0000
  H   H784      1.0  0.83778  0.21604  0.90407  1.0000
  H   H785      1.0  0.96032  0.04832  0.12604  1.0000
  H   H786      1.0  0.83143  0.21545  0.83247  1.0000
  H   H787      1.0  0.98640  0.04587  0.13166  1.0000
  H   H788      1.0  0.85681  0.21868  0.80961  1.0000
  C   C500      1.0  0.85686  0.21333  0.31230  1.0000
  C   C501      1.0  0.81322  0.19659  0.97792  1.0000
  H   H789      1.0  0.76366  0.20789  0.49200  1.0000
  H   H790      1.0  0.98535  0.20877  0.20004  1.0000
  H   H791      1.0  0.77663  0.15509  0.66137  1.0000
  H   H792      1.0  0.92189  0.00542  0.14010  1.0000
  H   H793      1.0  0.97022  0.09712  0.50521  1.0000
  H   H794      1.0  0.94525  0.10295  0.13522  1.0000
  H   H795      1.0  0.82570  0.18710  0.89010  1.0000
  H   H796      1.0  0.86123  0.21633  0.20505  1.0000
  C   C502      1.0  0.98092  0.07307  0.44438  1.0000
  S   S200      1.0  0.82178  0.18060  0.56361  1.0000
  H   H797      1.0  0.95288  0.11660  0.47849  1.0000
  C   C503      1.0  0.90608  0.00343  0.15389  1.0000
  C   C504      1.0  0.85361  0.20773  0.89454  1.0000
  N   N50       1.0  0.77634  0.17857  0.69678  1.0000
  Fe  Fe103     1.0  0.83953  0.17202  0.50065  1.0000
  H   H798      1.0  0.86330  0.21916  0.88222  1.0000
  C   C505      1.0  0.97338  0.21817  0.18247  1.0000
  H   H799      1.0  0.80179  0.20620  0.96093  1.0000
  C   C506      1.0  0.79946  0.19791  0.55491  1.0000
  H   H800      1.0  0.88616  0.19501  0.83686  1.0000
  C   C507      1.0  0.85100  0.21679  0.27247  1.0000
  H   H801      1.0  0.83508  0.22133  0.27003  1.0000
  N   N51       1.0  0.85472  0.19468  0.86256  1.0000
  H   H802      1.0  0.95530  0.08841  0.39002  1.0000
  C   C508      1.0  0.98134  0.19557  0.12998  1.0000
  H   H803      1.0  0.97717  0.15718  0.34876  1.0000
  H   H804      1.0  0.97536  0.18643  0.11262  1.0000
  H   H805      1.0  0.98517  0.06515  0.47530  1.0000
  C   C509      1.0  0.78143  0.16980  0.65678  1.0000
  H   H806      1.0  0.94388  0.11137  0.41209  1.0000
  S   S201      1.0  0.79398  0.17361  0.84338  1.0000
  H   H807      1.0  0.77962  0.20490  0.71881  1.0000
  H   H808      1.0  0.96635  0.04966  0.17608  1.0000
  C   C510      1.0  0.94900  0.21887  0.13853  1.0000
  Fe  Fe104     1.0  0.78567  0.18377  0.90752  1.0000
  Fe  Fe105     1.0  0.79102  0.20635  0.81773  1.0000
  S   S202      1.0  0.78600  0.21639  0.88160  1.0000
  H   H809      1.0  0.80570  0.22472  0.44346  1.0000
  H   H810      1.0  0.99346  0.18514  0.14592  1.0000
  C   C511      1.0  0.87597  0.18412  0.85063  1.0000
  S   S203      1.0  0.81089  0.21689  0.75757  1.0000
  H   H811      1.0  0.80391  0.23365  0.67159  1.0000
  C   C512      1.0  0.78285  0.19810  0.68903  1.0000
  C   C513      1.0  0.95617  0.19044  0.19308  1.0000
  H   H812      1.0  0.79281  0.18157  0.51126  1.0000
  S   S204      1.0  0.86065  0.14227  0.49224  1.0000
  S   S205      1.0  0.80142  0.16427  0.95913  1.0000
  H   H813      1.0  0.97299  0.09771  0.07333  1.0000
  C   C514      1.0  0.79293  0.21491  0.57585  1.0000
  H   H814      1.0  0.80375  0.16177  0.71849  1.0000
  H   H815      1.0  0.74880  0.16722  0.71967  1.0000
  H   H816      1.0  0.98013  0.22998  0.15942  1.0000
  H   H817      1.0  0.94174  0.08229  0.17728  1.0000
  C   C515      1.0  0.95784  0.09934  0.40853  1.0000
  S   S206      1.0  0.99299  0.14276  0.25869  1.0000
  C   C516      1.0  0.78698  0.16466  0.72924  1.0000
  H   H818      1.0  0.93141  0.09237  0.48164  1.0000
  H   H819      1.0  0.96140  0.22581  0.20649  1.0000
  H   H820      1.0  0.98102  0.09957  0.14346  1.0000
  H   H821      1.0  0.74564  0.19186  0.68812  1.0000
  H   H822      1.0  0.77489  0.20917  0.66531  1.0000
  H   H823      1.0  0.74983  0.18867  0.74196  1.0000
  C   C517      1.0  0.75416  0.18175  0.71218  1.0000
  H   H824      1.0  0.89748  0.01802  0.16434  1.0000
  C   C518      1.0  0.91611  0.99024  0.22216  1.0000
  H   H825      1.0  0.93236  0.99059  0.20910  1.0000
  H   H826      1.0  0.81110  0.24220  0.49687  1.0000
  C   C519      1.0  0.76447  0.26980  0.70886  1.0000
  H   H827      1.0  0.83188  0.26825  0.41855  1.0000
  H   H828      1.0  0.82726  0.25564  0.37913  1.0000
  Fe  Fe106     1.0  0.75835  0.48076  0.86689  1.0000
  H   H829      1.0  0.77130  0.24304  0.58108  1.0000
  H   H830      1.0  0.78228  0.31073  0.65689  1.0000
  H   H831      1.0  0.75279  0.40943  0.85985  1.0000
  H   H832      1.0  0.83548  0.24115  0.42641  1.0000
  C   C520      1.0  0.75575  0.33036  0.71489  1.0000
  C   C521      1.0  0.79512  0.23877  0.73702  1.0000
  C   C522      1.0  0.77799  0.25825  0.67972  1.0000
  H   H833      1.0  0.77332  0.34826  0.63969  1.0000
  H   H834      1.0  0.78300  0.24765  0.79891  1.0000
  S   S207      1.0  0.74714  0.24685  0.51563  1.0000
  H   H835      1.0  0.75644  0.27542  0.77373  1.0000
  C   C523      1.0  0.78188  0.25072  0.76555  1.0000
  H   H836      1.0  0.77708  0.34718  0.75290  1.0000
  H   H837      1.0  0.76446  0.25815  0.86878  1.0000
  N   N52       1.0  0.80425  0.25674  0.43549  1.0000
  H   H838      1.0  0.74676  0.34393  0.72893  1.0000
  S   S208      1.0  0.76042  0.44837  0.86027  1.0000
  H   H839      1.0  0.74893  0.32898  0.68783  1.0000
  H   H840      1.0  0.77633  0.26103  0.64667  1.0000
  C   C524      1.0  0.78873  0.31307  0.68379  1.0000
  H   H841      1.0  0.75380  0.31695  0.73945  1.0000
  C   C525      1.0  0.79159  0.27556  0.41735  1.0000
  H   H842      1.0  0.80503  0.31364  0.67204  1.0000
  H   H843      1.0  0.80189  0.33454  0.72966  1.0000
  H   H844      1.0  0.77025  0.36358  0.68038  1.0000
  C   C526      1.0  0.78560  0.33351  0.73845  1.0000
  H   H845      1.0  0.79523  0.35113  0.65788  1.0000
  H   H846      1.0  0.78799  0.29946  0.70836  1.0000
  H   H847      1.0  0.79657  0.28914  0.42186  1.0000
  H   H848      1.0  0.78423  0.32035  0.76404  1.0000
  C   C527      1.0  0.76679  0.26637  0.75136  1.0000
  N   N53       1.0  0.77736  0.33160  0.70132  1.0000
  S   S209      1.0  0.75696  0.28950  0.57142  1.0000
  H   H849      1.0  0.77081  0.29228  0.83779  1.0000
  C   C528      1.0  0.77916  0.34942  0.66836  1.0000
  C   C529      1.0  0.80282  0.25674  0.48148  1.0000
  H   H850      1.0  0.79233  0.27609  0.38263  1.0000
  C   C530      1.0  0.82565  0.25545  0.41402  1.0000
  H   H851      1.0  0.80922  0.26914  0.48741  1.0000
  H   H852      1.0  0.77531  0.27685  0.43289  1.0000
  H   H853      1.0  0.78672  0.25897  0.49807  1.0000
  C   C531      1.0  0.75538  0.29004  0.84862  1.0000
  C   C532      1.0  0.79363  0.24288  0.69376  1.0000
  H   H854      1.0  0.79831  0.23843  0.39473  1.0000
  C   C533      1.0  0.75181  0.27068  0.86601  1.0000
  H   H855      1.0  0.78061  0.24000  0.44388  1.0000
  C   C534      1.0  0.79688  0.23922  0.42915  1.0000
  S   S210      1.0  0.74423  0.28855  0.69416  1.0000
  S   S211      1.0  0.74395  0.33025  0.82065  1.0000
  H   H856      1.0  0.74385  0.33937  0.61153  1.0000
  S   S212      1.0  0.89789  0.70137  0.14548  1.0000
  H   H857      1.0  0.77638  0.68833  0.84480  1.0000
  S   S213      1.0  0.92045  0.73410  0.16815  1.0000
  C   C535      1.0  0.87491  0.65904  0.01087  1.0000
  H   H858      1.0  0.84195  0.70901  0.04553  1.0000
  C   C536      1.0  0.86727  0.66094  0.08627  1.0000
  H   H859      1.0  0.86134  0.65482  0.11850  1.0000
  H   H860      1.0  0.85438  0.70389  0.60054  1.0000
  C   C537      1.0  0.88735  0.70409  0.26555  1.0000
  S   S214      1.0  0.91614  0.69230  0.36579  1.0000
  H   H861      1.0  0.90675  0.67857  0.29573  1.0000
  S   S215      1.0  0.93610  0.70476  0.45933  1.0000
  H   H862      1.0  0.76699  0.71629  0.91746  1.0000
  S   S216      1.0  0.95613  0.68123  0.15593  1.0000
  H   H863      1.0  0.85314  0.73353  0.39484  1.0000
  H   H864      1.0  0.96112  0.72155  0.12021  1.0000
  C   C538      1.0  0.97060  0.65637  0.26291  1.0000
  H   H865      1.0  0.81979  0.68630  0.43882  1.0000
  S   S217      1.0  0.75486  0.53573  0.88456  1.0000
  S   S218      1.0  0.74918  0.64675  0.65694  1.0000
  C   C539      1.0  0.87417  0.67913  0.07838  1.0000
  H   H866      1.0  0.87325  0.68709  0.10446  1.0000
  C   C540      1.0  0.95726  0.66836  0.04149  1.0000
  S   S219      1.0  0.84773  0.64281  0.94447  1.0000
  H   H867      1.0  0.77372  0.65269  0.96274  1.0000
  S   S220      1.0  0.80811  0.63548  0.01896  1.0000
  C   C541      1.0  0.79121  0.56708  0.98922  1.0000
  H   H868      1.0  0.90071  0.68652  0.49509  1.0000
  H   H869      1.0  0.96376  0.66850  0.07003  1.0000
  H   H870      1.0  0.83503  0.68274  0.98487  1.0000
  H   H871      1.0  0.97002  0.66272  0.01649  1.0000
  H   H872      1.0  0.83171  0.69998  0.48944  1.0000
  S   S221      1.0  0.75239  0.54588  0.76388  1.0000
  H   H873      1.0  0.79793  0.64550  0.82832  1.0000
  C   C542      1.0  0.83516  0.71313  0.46560  1.0000
  C   C543      1.0  0.90017  0.70411  0.32933  1.0000
  N   N54       1.0  0.94160  0.65585  0.05187  1.0000
  C   C544      1.0  0.95082  0.63475  0.06680  1.0000
  C   C545      1.0  0.89866  0.69399  0.29713  1.0000
  H   H874      1.0  0.98186  0.64275  0.27299  1.0000
  H   H875      1.0  0.88687  0.69652  0.23968  1.0000
  H   H876      1.0  0.87576  0.65109  0.98482  1.0000
  H   H877      1.0  0.92072  0.64774  0.02056  1.0000
  C   C546      1.0  0.74572  0.61161  0.09209  1.0000
  N   N55       1.0  0.83858  0.70850  0.42172  1.0000
  C   C547      1.0  0.78180  0.64855  0.84473  1.0000
  H   H878      1.0  0.76765  0.69624  0.79470  1.0000
  S   S222      1.0  0.75871  0.48829  0.93074  1.0000
  H   H879      1.0  0.81986  0.71497  0.94675  1.0000
  H   H880      1.0  0.92590  0.67252  0.00152  1.0000
  Fe  Fe107     1.0  0.92972  0.70559  0.13934  1.0000
  C   C548      1.0  0.83558  0.71598  0.01622  1.0000
  H   H881      1.0  0.94466  0.65075  0.98730  1.0000
  S   S223      1.0  0.93158  0.72119  0.07223  1.0000
  C   C549      1.0  0.75080  0.60953  0.76812  1.0000
  H   H882      1.0  0.76586  0.60947  0.70316  1.0000
  C   C550      1.0  0.99145  0.67862  0.27098  1.0000
  C   C551      1.0  0.93289  0.65671  0.01359  1.0000
  S   S224      1.0  0.78507  0.58915  0.01304  1.0000
  C   C552      1.0  0.85753  0.69324  0.41383  1.0000
  H   H883      1.0  0.78823  0.70623  0.05307  1.0000
  H   H884      1.0  0.79289  0.68177  0.79661  1.0000
  H   H885      1.0  0.95744  0.63369  0.09576  1.0000
  C   C553      1.0  0.88177  0.67722  0.00296  1.0000
  H   H886      1.0  0.87084  0.69819  0.41980  1.0000
  H   H887      1.0  0.95080  0.68433  0.02960  1.0000
  N   N56       1.0  0.81751  0.70819  0.01479  1.0000
  H   H888      1.0  0.75102  0.58513  0.61924  1.0000
  H   H889      1.0  0.75481  0.62040  0.06570  1.0000
  Fe  Fe108     1.0  0.89887  0.71955  0.08028  1.0000
  Fe  Fe109     1.0  0.84207  0.62571  0.01025  1.0000
  H   H890      1.0  0.93933  0.62496  0.07505  1.0000
  Fe  Fe110     1.0  0.91843  0.71431  0.40608  1.0000
  C   C554      1.0  0.86737  0.65101  0.05245  1.0000
  S   S225      1.0  0.85723  0.62915  0.06259  1.0000
  H   H891      1.0  0.83195  0.73260  0.01603  1.0000
  Fe  Fe111     1.0  0.84539  0.61457  0.92315  1.0000
  H   H892      1.0  0.74637  0.67256  0.87330  1.0000
  H   H893      1.0  0.87367  0.63467  0.68184  1.0000
  H   H894      1.0  0.97418  0.65986  0.22768  1.0000
  C   C555      1.0  0.88149  0.68726  0.03670  1.0000
  C   C556      1.0  0.99246  0.72181  0.11606  1.0000
  S   S226      1.0  0.89081  0.73148  0.44334  1.0000
  H   H895      1.0  0.95531  0.65241  0.27110  1.0000
  C   C557      1.0  0.84027  0.72713  0.39120  1.0000
  S   S227      1.0  0.79914  0.68178  0.92806  1.0000
  H   H896      1.0  0.91316  0.65467  0.09455  1.0000
  H   H897      1.0  0.91803  0.67955  0.07527  1.0000
  C   C558      1.0  0.75409  0.61746  0.72495  1.0000
  C   C559      1.0  0.76416  0.66733  0.95566  1.0000
  Fe  Fe112     1.0  0.80933  0.60765  0.99134  1.0000
  C   C560      1.0  0.82335  0.68624  0.01341  1.0000
  C   C561      1.0  0.87675  0.72395  0.26745  1.0000
  H   H898      1.0  0.93126  0.66349  0.11516  1.0000
  C   C562      1.0  0.92530  0.66370  0.08578  1.0000
  C   C563      1.0  0.80205  0.71200  0.05319  1.0000
  C   C564      1.0  0.97763  0.69229  0.14336  1.0000
  H   H899      1.0  0.90500  0.66485  0.71264  1.0000
  H   H900      1.0  0.78168  0.65276  0.87618  1.0000
  H   H901      1.0  0.94041  0.68786  0.27654  1.0000
  H   H902      1.0  0.96320  0.62829  0.04200  1.0000
  H   H903      1.0  0.97684  0.69761  0.41653  1.0000
  S   S228      1.0  0.80661  0.51241  0.91923  1.0000
  C   C565      1.0  0.77581  0.55747  0.98632  1.0000
  C   C566      1.0  0.81138  0.55915  0.97241  1.0000
  S   S229      1.0  0.84291  0.59637  0.98845  1.0000
  C   C567      1.0  0.82195  0.58349  0.85254  1.0000
  H   H904      1.0  0.81772  0.60010  0.85200  1.0000
  C   C568      1.0  0.90887  0.66246  0.67869  1.0000
  H   H905      1.0  0.97810  0.65568  0.34195  1.0000
  C   C569      1.0  0.95584  0.69134  0.26911  1.0000
  Fe  Fe113     1.0  0.82259  0.64581  0.58352  1.0000
  S   S230      1.0  0.84173  0.63226  0.63356  1.0000
  H   H906      1.0  0.77619  0.57406  0.84758  1.0000
  Fe  Fe114     1.0  0.78331  0.64096  0.64324  1.0000
  S   S231      1.0  0.79932  0.62741  0.69825  1.0000
  Fe  Fe115     1.0  0.81747  0.65133  0.67463  1.0000
  S   S232      1.0  0.82385  0.66799  0.72117  1.0000
  Fe  Fe116     1.0  0.82169  0.60956  0.65186  1.0000
  S   S233      1.0  0.83257  0.57695  0.67640  1.0000
  S   S234      1.0  0.79957  0.66671  0.62359  1.0000
  S   S235      1.0  0.80448  0.62132  0.59777  1.0000
  S   S236      1.0  0.81191  0.62355  0.92436  1.0000
  S   S237      1.0  0.86278  0.60420  0.86217  1.0000
  H   H907      1.0  0.83176  0.53583  0.93944  1.0000
  H   H908      1.0  0.91024  0.64139  0.61504  1.0000
  H   H909      1.0  0.76857  0.53297  0.96398  1.0000
  C   C570      1.0  0.77279  0.68426  0.93906  1.0000
  S   S238      1.0  0.78212  0.49844  0.83269  1.0000
  C   C571      1.0  0.77682  0.68363  0.81361  1.0000
  H   H910      1.0  0.80081  0.60361  0.79119  1.0000
  N   N57       1.0  0.89169  0.65748  0.66506  1.0000
  Fe  Fe117     1.0  0.81398  0.65026  0.95129  1.0000
  H   H911      1.0  0.83424  0.68138  0.58677  1.0000
  C   C572      1.0  0.83525  0.65033  0.75954  1.0000
  C   C573      1.0  0.83767  0.65647  0.79630  1.0000
  C   C574      1.0  0.84637  0.64229  0.82761  1.0000
  C   C575      1.0  0.85330  0.62208  0.82157  1.0000
  C   C576      1.0  0.85139  0.61605  0.78419  1.0000
  C   C577      1.0  0.84186  0.63007  0.75370  1.0000
  H   H912      1.0  0.83256  0.67213  0.80097  1.0000
  H   H913      1.0  0.84790  0.64708  0.85623  1.0000
  H   H914      1.0  0.85680  0.60046  0.77924  1.0000
  H   H915      1.0  0.83993  0.62516  0.72550  1.0000
  H   H916      1.0  0.78616  0.65712  0.75907  1.0000
  H   H917      1.0  0.82339  0.56627  0.97485  1.0000
  C   C578      1.0  0.77506  0.56838  0.70294  1.0000
  S   S239      1.0  0.89334  0.71239  0.55909  1.0000
  C   C579      1.0  0.80067  0.53258  0.94864  1.0000
  C   C580      1.0  0.78053  0.54029  0.96601  1.0000
  C   C581      1.0  0.81209  0.54887  0.72733  1.0000
  S   S240      1.0  0.84045  0.65685  0.52093  1.0000
  H   H918      1.0  0.82166  0.58515  0.76945  1.0000
  C   C582      1.0  0.87893  0.69661  0.54895  1.0000
  H   H919      1.0  0.79480  0.52940  0.77262  1.0000
  N   N58       1.0  0.80776  0.57605  0.83401  1.0000
  C   C583      1.0  0.88615  0.68550  0.51501  1.0000
  C   C584      1.0  0.88654  0.63880  0.69152  1.0000
  H   H920      1.0  0.86080  0.67127  0.65896  1.0000
  C   C585      1.0  0.81127  0.56592  0.69601  1.0000
  C   C586      1.0  0.79282  0.57532  0.68316  1.0000
  H   H921      1.0  0.90230  0.66799  0.59931  1.0000
  H   H922      1.0  0.79214  0.58826  0.65854  1.0000
  H   H923      1.0  0.88194  0.64059  0.72581  1.0000
  C   C587      1.0  0.84882  0.68217  0.56708  1.0000
  C   C588      1.0  0.80652  0.58715  0.79074  1.0000
  Fe  Fe118     1.0  0.88864  0.73167  0.16726  1.0000
  C   C589      1.0  0.81612  0.54183  0.95256  1.0000
  C   C590      1.0  0.76033  0.70318  0.93034  1.0000
  C   C591      1.0  0.88936  0.72388  0.33150  1.0000
  C   C592      1.0  0.81528  0.55428  0.83177  1.0000
  H   H924      1.0  0.88743  0.68344  0.97063  1.0000
  H   H925      1.0  0.78772  0.57067  0.89360  1.0000
  H   H926      1.0  0.78137  0.59539  0.86426  1.0000
  H   H927      1.0  0.96526  0.68130  0.34653  1.0000
  H   H928      1.0  0.95929  0.69614  0.23410  1.0000
  H   H929      1.0  0.88446  0.65174  0.60782  1.0000
  H   H930      1.0  0.87743  0.68872  0.65154  1.0000
  C   C593      1.0  0.77550  0.55224  0.73616  1.0000
  C   C594      1.0  0.85588  0.67120  0.53293  1.0000
  H   H931      1.0  0.86860  0.67651  0.70404  1.0000
  C   C595      1.0  0.87389  0.67424  0.67013  1.0000
  C   C596      1.0  0.79415  0.54216  0.74769  1.0000
  Fe  Fe119     1.0  0.77960  0.50871  0.89547  1.0000
  H   H932      1.0  0.81008  0.67992  0.01194  1.0000
  C   C597      1.0  0.86024  0.69496  0.57490  1.0000
  H   H933      1.0  0.91304  0.67656  0.65928  1.0000
  H   H934      1.0  0.89961  0.62579  0.68874  1.0000
  H   H935      1.0  0.82973  0.67788  0.04197  1.0000
  C   C598      1.0  0.78738  0.57921  0.86101  1.0000
  H   H936      1.0  0.82958  0.55146  0.80816  1.0000
  C   C599      1.0  0.96629  0.66826  0.32999  1.0000
  Fe  Fe120     1.0  0.90940  0.72402  0.49508  1.0000
  H   H937      1.0  0.82643  0.54134  0.73695  1.0000
  C   C600      1.0  0.89743  0.65448  0.61987  1.0000
  H   H938      1.0  0.82229  0.57643  0.88618  1.0000
  H   H939      1.0  0.83778  0.57988  0.83487  1.0000
  C   C601      1.0  0.87467  0.67274  0.50711  1.0000
  H   H940      1.0  0.80392  0.54748  0.82290  1.0000
  H   H941      1.0  0.81863  0.54578  0.86290  1.0000
  S   S241      1.0  0.88974  0.71021  0.02568  1.0000
  H   H942      1.0  0.85631  0.67863  0.43479  1.0000
  H   H943      1.0  0.79612  0.58172  0.77572  1.0000
  C   C602      1.0  0.82132  0.70047  0.41621  1.0000
  H   H944      1.0  0.80800  0.70434  0.08271  1.0000
  H   H945      1.0  0.88045  0.66399  0.48118  1.0000
  H   H946      1.0  0.92261  0.65017  0.67517  1.0000
  H   H947      1.0  0.82207  0.72586  0.47142  1.0000
  N   N59       1.0  0.76921  0.66477  0.81932  1.0000
  H   H948      1.0  0.86112  0.69015  0.38035  1.0000
  H   H949      1.0  0.80671  0.71148  0.42222  1.0000
  H   H950      1.0  0.84288  0.72418  0.35775  1.0000
  H   H951      1.0  0.79727  0.72842  0.05530  1.0000
  Fe  Fe121     1.0  0.75573  0.52413  0.82422  1.0000
  H   H952      1.0  0.76016  0.56341  0.99889  1.0000
  H   H953      1.0  0.82339  0.69684  0.38342  1.0000
  H   H954      1.0  0.76085  0.57608  0.69368  1.0000
  H   H955      1.0  0.80530  0.73519  0.97524  1.0000
  H   H956      1.0  0.76000  0.59530  0.77946  1.0000
  H   H957      1.0  0.95515  0.70441  0.28521  1.0000
  H   H958      1.0  0.79479  0.71367  0.97539  1.0000
  Fe  Fe122     1.0  0.94712  0.73376  0.43552  1.0000
  H   H959      1.0  0.77613  0.63423  0.85076  1.0000
  H   H960      1.0  0.84876  0.71718  0.47258  1.0000
  C   C603      1.0  0.80901  0.71852  0.97640  1.0000
  C   C604      1.0  0.74788  0.66786  0.84172  1.0000
  C   C605      1.0  0.77038  0.65896  0.77728  1.0000
  H   H961      1.0  0.76059  0.67052  0.75754  1.0000
  C   C606      1.0  0.87721  0.73359  0.30117  1.0000
  H   H962      1.0  0.74925  0.60666  0.64423  1.0000
  H   H963      1.0  0.95145  0.66339  0.34016  1.0000
  H   H964      1.0  0.89055  0.73181  0.35611  1.0000
  C   C607      1.0  0.97563  0.71266  0.12607  1.0000
  C   C608      1.0  0.99061  0.70111  0.39661  1.0000
  N   N60       1.0  0.97104  0.67366  0.28324  1.0000
  H   H965      1.0  0.76550  0.64440  0.78044  1.0000
  H   H966      1.0  0.75591  0.59677  0.09992  1.0000
  H   H967      1.0  0.84789  0.71272  0.98850  1.0000
  H   H968      1.0  0.99258  0.69111  0.28698  1.0000
  S   S242      1.0  0.97879  0.86660  0.21317  1.0000
  H   H969      1.0  0.92861  0.93622  0.31505  1.0000
  C   C609      1.0  0.90733  0.80452  0.37765  1.0000
  H   H970      1.0  0.97279  0.79355  0.02766  1.0000
  H   H971      1.0  0.88371  0.97292  0.23614  1.0000
  H   H972      1.0  0.93259  0.96756  0.16024  1.0000
  H   H973      1.0  0.91597  0.95441  0.20003  1.0000
  H   H974      1.0  0.87615  0.98286  0.18539  1.0000
  C   C610      1.0  0.92572  0.79945  0.39269  1.0000
  H   H975      1.0  0.95614  0.80459  0.09432  1.0000
  S   S243      1.0  0.92842  0.87882  0.23333  1.0000
  Fe  Fe123     1.0  0.95409  0.88971  0.18640  1.0000
  S   S244      1.0  0.95769  0.92194  0.17013  1.0000
  C   C611      1.0  0.94004  0.80869  0.10490  1.0000
  S   S245      1.0  0.90239  0.85223  0.16674  1.0000
  C   C612      1.0  0.95063  0.95432  0.28358  1.0000
  C   C613      1.0  0.96445  0.95859  0.24649  1.0000
  C   C614      1.0  0.96665  0.94845  0.21183  1.0000
  C   C615      1.0  0.95558  0.93349  0.21472  1.0000
  C   C616      1.0  0.94219  0.92873  0.25230  1.0000
  C   C617      1.0  0.93951  0.93936  0.28653  1.0000
  H   H976      1.0  0.98871  0.85717  0.35318  1.0000
  H   H977      1.0  0.98049  0.91862  0.29316  1.0000
  H   H978      1.0  0.93335  0.91741  0.25441  1.0000
  H   H979      1.0  0.91566  0.97821  0.25035  1.0000
  C   C618      1.0  0.90821  0.77550  0.28103  1.0000
  H   H980      1.0  0.88212  0.82429  0.14414  1.0000
  C   C619      1.0  0.90622  0.80210  0.11487  1.0000
  H   H981      1.0  0.95102  0.78011  0.28571  1.0000
  S   S246      1.0  0.88732  0.74986  0.10248  1.0000
  H   H982      1.0  0.95620  0.88550  0.30504  1.0000
  C   C620      1.0  0.98091  0.74729  0.29790  1.0000
  H   H983      1.0  0.95450  0.80751  0.38947  1.0000
  H   H984      1.0  0.96987  0.74422  0.28077  1.0000
  H   H985      1.0  0.98000  0.77321  0.09700  1.0000
  H   H986      1.0  0.90584  0.81523  0.26629  1.0000
  H   H987      1.0  0.86287  0.80697  0.26969  1.0000
  H   H988      1.0  0.92893  0.78608  0.41548  1.0000
  C   C621      1.0  0.87416  0.79578  0.28656  1.0000
  H   H989      1.0  0.86741  0.78235  0.30051  1.0000
  S   S247      1.0  0.94697  0.96769  0.32616  1.0000
  H   H990      1.0  0.88438  0.76789  0.23337  1.0000
  H   H991      1.0  0.90472  0.77816  0.19891  1.0000
  N   N61       1.0  0.90575  0.98664  0.18975  1.0000
  S   S248      1.0  0.93789  0.77433  0.07826  1.0000
  C   C622      1.0  0.94022  0.81162  0.37793  1.0000
  H   H992      1.0  0.98467  0.89893  0.26145  1.0000
  H   H993      1.0  0.86879  0.74880  0.30289  1.0000
  S   S249      1.0  0.95312  0.87205  0.13591  1.0000
  C   C623      1.0  0.89829  0.81991  0.13317  1.0000
  Fe  Fe124     1.0  0.92949  0.85906  0.18496  1.0000
  Fe  Fe125     1.0  0.95312  0.85413  0.25605  1.0000
  S   S250      1.0  0.95620  0.84152  0.32354  1.0000
  H   H994      1.0  0.96387  0.79782  0.29694  1.0000
  C   C624      1.0  0.91141  0.83174  0.13825  1.0000
  H   H995      1.0  0.91542  0.84669  0.30797  1.0000
  C   C625      1.0  0.90334  0.82202  0.34830  1.0000
  C   C626      1.0  0.93675  0.82834  0.34658  1.0000
  H   H996      1.0  0.91144  0.78167  0.30751  1.0000
  H   H997      1.0  0.89091  0.82083  0.22537  1.0000
  C   C627      1.0  0.93224  0.82611  0.12380  1.0000
  H   H998      1.0  0.94247  0.83517  0.12714  1.0000
  C   C628      1.0  0.92718  0.79649  0.10076  1.0000
  C   C629      1.0  0.90209  0.80884  0.24079  1.0000
  H   H999      1.0  0.88894  0.82638  0.33742  1.0000
  C   C630      1.0  0.91827  0.83361  0.33185  1.0000
  H   H1000     1.0  0.95482  0.87807  0.36126  1.0000
  H   H1001     1.0  0.99245  0.79202  0.10492  1.0000
  S   S251      1.0  0.95166  0.83317  0.21278  1.0000
  H   H1002     1.0  0.89615  0.79285  0.11129  1.0000
  N   N62       1.0  0.98269  0.76871  0.28818  1.0000
  H   H1003     1.0  0.97714  0.95204  0.18288  1.0000
  Fe  Fe126     1.0  0.90598  0.75793  0.42110  1.0000
  H   H1004     1.0  0.95064  0.90432  0.33959  1.0000
  H   H1005     1.0  0.90208  0.76172  0.29545  1.0000
  H   H1006     1.0  0.92282  0.77078  0.25961  1.0000
  H   H1007     1.0  0.91619  0.80585  0.21672  1.0000
  C   C631      1.0  0.96288  0.78158  0.30260  1.0000
  S   S252      1.0  0.89016  0.78813  0.39233  1.0000
  N   N63       1.0  0.89371  0.79048  0.25764  1.0000
  H   H1008     1.0  0.97374  0.96944  0.24472  1.0000
  H   H1009     1.0  0.87608  0.80248  0.31356  1.0000
  C   C632      1.0  0.89037  0.78195  0.22194  1.0000
  C   C633      1.0  0.95994  0.88925  0.33391  1.0000
  H   H1010     1.0  0.95758  0.77743  0.33735  1.0000
  H   H1011     1.0  0.87925  0.79272  0.20394  1.0000
  H   H1012     1.0  0.90923  0.96438  0.14885  1.0000
  N   N64       1.0  0.98188  0.88886  0.32898  1.0000
  H   H1013     1.0  0.97725  0.91099  0.37051  1.0000
  Fe  Fe127     1.0  0.97533  0.84766  0.16745  1.0000
  Fe  Fe128     1.0  0.92015  0.74963  0.10117  1.0000
  H   H1014     1.0  0.98100  0.88525  0.39642  1.0000
  S   S253      1.0  0.92198  0.75230  0.47676  1.0000
  C   C634      1.0  0.91632  0.96746  0.17401  1.0000
  C   C635      1.0  0.98578  0.89534  0.36673  1.0000
  C   C636      1.0  0.98829  0.90273  0.29039  1.0000
  H   H1015     1.0  0.97807  0.77152  0.22368  1.0000
  H   H1016     1.0  0.97570  0.74290  0.33254  1.0000
  H   H1017     1.0  0.98510  0.81221  0.03713  1.0000
  H   H1018     1.0  0.82622  0.73896  0.39599  1.0000
  S   S254      1.0  0.93196  0.74144  0.37841  1.0000
  H   H1019     1.0  0.98984  0.79040  0.23334  1.0000
  C   C637      1.0  0.98777  0.79797  0.02337  1.0000
  H   H1020     1.0  0.99038  0.75798  0.03096  1.0000
  C   C638      1.0  0.98896  0.77417  0.24181  1.0000
  S   S255      1.0  0.97925  0.73820  0.42339  1.0000
  H   H1021     1.0  0.99090  0.86285  0.29669  1.0000
  H   H1022     1.0  0.99064  0.73747  0.10248  1.0000
  S   S256      1.0  0.86517  0.73762  0.22511  1.0000
  H   H1023     1.0  0.99323  0.80143  0.98856  1.0000
  H   H1024     1.0  0.99351  0.76808  0.34583  1.0000
  C   C639      1.0  0.99348  0.86813  0.32499  1.0000
  C   C640      1.0  0.88447  0.98548  0.20900  1.0000
