data_image0
_chemical_formula_structural       CFeSNFeSFeNSFeS2FeS2FeSFeS4C6H6C3HCH2C3HSH2C2HCHC2HCHC5SH2CHCHC2H2CNSH2CHCHSH2CNC4H12FeSH2FeCHNH4CFeCH2CH3SCH5CSH3SHSCH2SCH3CFeHNC3H5CH2FeH3C3NH3CH10CHC2NH4CH2SHCSCH2C2H4C2SH2CH3C2SCH2SFeS2FeS2FeSFeS3HCHNC6H4C5H4CHCHC3H5C4H4CH2NH7CH5CSH4CH3C2H2CHS2CH2C3HC2HFeH3C2HFeS2FeCSCHNHCH2CFeS2FeH2SHSFeHC2SC2H5NH2FeCH2SH3C3HSCH4SNC2H3SH2SH3CHC2H2C2SCHC2HC2HCH2CHNH2SHFeCHC2SCH3FeSFeHSHFeSC2H2C2H3CHSH3C2FeC3NSC2H2CHFeHFeCHSH3CH2FeHSH2CH3S2C3HSHSH3S2NHFeHFeH4NHCSHSC4FeHCSHCH3C3NH4CHCH2CHCHCHCH3CHCH7C2H3CH4C3HC3H2NH2C2H4CH2CSCH2NSH2FeS2HSHFeSFeS3HCHSC4H6C2H3CH3CHC4HCH2CHCHN2HCSHC3HCH5CH2CHCH2CFeS3FeSFeS3HCFeCHFeS2Fe2SCHSC4H3C3H2CHCH3CH5CFeH3CH4CH4CHCSH3CH2SH2NFeHC2H2CHCH5NCHCFeS2HFeSFeHSCHFeSHFeS2FeSFeS3HCH7C9H5S2CHCHC6HSH6C2H2C3HCFeHSH7CH2CH8CSHNHCFeC2SCH2C2H2CH2CH3C3HCSCNCSH4CH2NH4CH6FeCHCHCHCSCNCFeH2NHC2H4CHCNCHSFeSHSC4H5CH4CH2CHC3HSH3CHCFeHC3HCFeCSHFeSCFeSHCSFeS2FeS2FeSFeS3H2SHFeSHC7H4CH5C6H4C2SC4H5NC4H15SHNH6CSCNCH2CHSFeHCHSCHFeCSCHC3H2C2H2CH2CNC2H2CSH2CS2HCSCSFeH2C6H2CH2C3H2SHCHC5H4SHC3HCH5CSHCH2C2HCNCHC2H4CHCSCH3CHCHCHNH4NH2CH3FeHSFeC2SH2SFeS2FeSHFeSFeS3H4NC6HCH2C6H4SC7H13CHCSFeSNCH2C2HCH2CH2SHSNC2FeCNHCHSHC3HFeHSH8C2H2CHFeCH4SH2SHCFeH8CH4NHSCH4CH3SH2FeCFeH2CS2HFeSNCSFeSFeHSHFeCS2HFeSCH2SC6H3C2SFeHFeH2CNCH8CFeH2C2SC2HCH4CH6SH2CHNH3CH3CH4SH2CH2C3H4NH2SH2CH2FeC4HSH2SCH3CHNH2CHCH4CSCHS2H2FeCSFeSHS2HC2HSHCHSCHC5H4CH3NS2CHCHFeH5FeCSHC3HFeH4CHFeHFe2C2HSHFeSHFeCS2CH3C2HC2H4SH2NHC2H2FeSC2H3SH3CHCSCHSH2SHC2H2FeCS2CHC6H2SC3HC2HC2HC4HCH2C2H2SHCHCFeC2HCFeCHCNH2SFeH4NSHCHSH4CHCHFeCNHC3H4SHC2SFeHSCH2NH2C2NSCHC2HCHCHSH8SHFeCSFeS2H3CH4FeH6CNSH2C4H4FeHC6H4CSHS2HCHC2SH8C3H4CH3CSCHNHCSFeHFeSHCSCSC3H2SH3CHSCHCH2SCH3CH2FeSHFeS2CFeHFeHSC2FeSCHSFeSNCSHFeCFeSH3C3FeHC6H9C6H4CH4C2H3C3HC2HNH2CNCH2FeCHNCHNHCHSH2CH2CH4C2H5CH2CSCH2SNCH3CH3CSCNCH4SCH2SH2NH6FeH2CH2FeHCHSHCHSH2SHFeHS2H4CH2
_chemical_formula_sum              "C640 Fe128 S256 N64 H1024"
_cell_length_a       36.8367
_cell_length_b       35.9783
_cell_length_c       76.7749
_cell_angle_alpha    90.2219
_cell_angle_beta     90.0438
_cell_angle_gamma    87.1375

_space_group_name_H-M_alt    "P 1"
_space_group_IT_number       1

loop_
  _space_group_symop_operation_xyz
  'x, y, z'

loop_
  _atom_site_type_symbol
  _atom_site_label
  _atom_site_symmetry_multiplicity
  _atom_site_fract_x
  _atom_site_fract_y
  _atom_site_fract_z
  _atom_site_occupancy
  C   C1        1.0  0.10261  0.47116  0.22374  1.0000
  Fe  Fe1       1.0  0.18074  0.15891  0.23304  1.0000
  S   S1        1.0  0.20549  0.19841  0.21457  1.0000
  N   N1        1.0  0.25775  0.10254  0.05880  1.0000
  Fe  Fe2       1.0  0.25261  0.19568  0.23311  1.0000
  S   S2        1.0  0.30908  0.20182  0.22341  1.0000
  Fe  Fe3       1.0  0.18349  0.24275  0.23256  1.0000
  N   N2        1.0  0.11869  0.11447  0.27977  1.0000
  S   S3        1.0  0.23037  0.15123  0.24994  1.0000
  Fe  Fe4       1.0  0.20413  0.44871  0.17108  1.0000
  S   S4        1.0  0.26236  0.45441  0.16299  1.0000
  S   S5        1.0  0.16793  0.49052  0.18533  1.0000
  Fe  Fe5       1.0  0.19993  0.37131  0.15689  1.0000
  S   S6        1.0  0.25702  0.36941  0.14743  1.0000
  S   S7        1.0  0.16576  0.32294  0.15192  1.0000
  Fe  Fe6       1.0  0.27006  0.39593  0.17287  1.0000
  S   S8        1.0  0.31827  0.37041  0.18707  1.0000
  Fe  Fe7       1.0  0.24450  0.42738  0.13817  1.0000
  S   S9        1.0  0.26562  0.43557  0.11120  1.0000
  S   S10       1.0  0.21363  0.39260  0.18335  1.0000
  S   S11       1.0  0.18555  0.42700  0.14530  1.0000
  S   S12       1.0  0.15762  0.29478  0.22166  1.0000
  C   C2        1.0  0.31829  0.38165  0.20918  1.0000
  C   C3        1.0  0.30084  0.41458  0.21526  1.0000
  C   C4        1.0  0.30464  0.42506  0.23276  1.0000
  C   C5        1.0  0.32562  0.40244  0.24410  1.0000
  C   C6        1.0  0.34114  0.36848  0.23820  1.0000
  C   C7        1.0  0.33770  0.35820  0.22073  1.0000
  H   H1        1.0  0.28570  0.43266  0.20632  1.0000
  H   H2        1.0  0.21991  0.50006  0.12179  1.0000
  H   H3        1.0  0.21533  0.29851  0.28161  1.0000
  H   H4        1.0  0.35059  0.33232  0.21610  1.0000
  H   H5        1.0  0.27442  0.45688  0.07600  1.0000
  H   H6        1.0  0.11161  0.54859  0.18725  1.0000
  C   C8        1.0  0.09923  0.37267  0.24898  1.0000
  C   C9        1.0  0.12177  0.33381  0.15955  1.0000
  C   C10       1.0  0.11620  0.35582  0.17448  1.0000
  H   H7        1.0  0.15733  0.42489  0.23458  1.0000
  C   C11       1.0  0.54508  0.32598  0.28305  1.0000
  H   H8        1.0  0.42186  0.45734  0.20268  1.0000
  H   H9        1.0  0.13914  0.36609  0.18146  1.0000
  C   C12       1.0  0.12821  0.55332  0.17592  1.0000
  C   C13       1.0  0.15822  0.52926  0.17212  1.0000
  C   C14       1.0  0.17962  0.53563  0.15750  1.0000
  H   H10       1.0  0.19891  0.36611  0.25848  1.0000
  S   S13       1.0  0.33392  0.41775  0.26532  1.0000
  H   H11       1.0  0.20289  0.51718  0.15454  1.0000
  H   H12       1.0  0.16387  0.13105  0.26473  1.0000
  C   C15       1.0  0.33501  0.21520  0.24130  1.0000
  C   C16       1.0  0.36324  0.23939  0.23908  1.0000
  H   H13       1.0  0.18752  0.46049  0.24089  1.0000
  C   C17       1.0  0.09203  0.32008  0.15074  1.0000
  H   H14       1.0  0.10592  0.18456  0.15902  1.0000
  C   C18       1.0  0.32693  0.20229  0.25795  1.0000
  C   C19       1.0  0.15593  0.10761  0.27296  1.0000
  H   H15       1.0  0.11909  0.53908  0.23458  1.0000
  C   C20       1.0  0.21914  0.32688  0.28696  1.0000
  H   H16       1.0  0.30514  0.18362  0.25973  1.0000
  C   C21       1.0  0.13708  0.32010  0.23879  1.0000
  C   C22       1.0  0.14315  0.30905  0.25605  1.0000
  C   C23       1.0  0.12783  0.33034  0.26977  1.0000
  C   C24       1.0  0.16424  0.45428  0.23231  1.0000
  C   C25       1.0  0.38345  0.25056  0.25353  1.0000
  S   S14       1.0  0.40235  0.24860  0.28811  1.0000
  H   H17       1.0  0.15983  0.28429  0.25889  1.0000
  H   H18       1.0  0.16508  0.52702  0.24103  1.0000
  C   C26       1.0  0.16956  0.35276  0.06738  1.0000
  H   H19       1.0  0.24728  0.38645  0.08367  1.0000
  C   C27       1.0  0.14264  0.51893  0.23234  1.0000
  H   H20       1.0  0.26714  0.14609  0.07731  1.0000
  C   C28       1.0  0.24863  0.47489  0.09995  1.0000
  C   C29       1.0  0.22617  0.50225  0.10808  1.0000
  H   H21       1.0  0.31124  0.12235  0.05469  1.0000
  H   H22       1.0  0.29243  0.45129  0.23732  1.0000
  C   C30       1.0  0.09301  0.11928  0.26504  1.0000
  N   N3        1.0  0.19351  0.38218  0.07319  1.0000
  S   S15       1.0  0.11656  0.20171  0.09830  1.0000
  H   H23       1.0  0.24369  0.36779  0.24913  1.0000
  H   H24       1.0  0.36943  0.24952  0.22623  1.0000
  C   C31       1.0  0.57449  0.30169  0.28748  1.0000
  H   H25       1.0  0.39883  0.39478  0.20716  1.0000
  C   C32       1.0  0.41299  0.43553  0.23571  1.0000
  H   H26       1.0  0.14257  0.48402  0.26314  1.0000
  S   S16       1.0  0.19746  0.19834  0.29403  1.0000
  H   H27       1.0  0.41790  0.36518  0.22397  1.0000
  H   H28       1.0  0.21813  0.42981  0.06226  1.0000
  C   C33       1.0  0.10878  0.18422  0.19400  1.0000
  N   N4        1.0  0.27238  0.26500  0.18186  1.0000
  C   C34       1.0  0.28109  0.27973  0.19930  1.0000
  C   C35       1.0  0.29529  0.28212  0.16864  1.0000
  C   C36       1.0  0.23363  0.27401  0.17796  1.0000
  C   C37       1.0  0.27968  0.22424  0.18150  1.0000
  H   H29       1.0  0.26461  0.26697  0.20963  1.0000
  H   H30       1.0  0.27563  0.31040  0.20002  1.0000
  H   H31       1.0  0.31021  0.27384  0.20268  1.0000
  H   H32       1.0  0.29029  0.31273  0.16840  1.0000
  H   H33       1.0  0.32473  0.27670  0.17142  1.0000
  H   H34       1.0  0.28959  0.27157  0.15532  1.0000
  H   H35       1.0  0.22573  0.26329  0.16495  1.0000
  H   H36       1.0  0.22747  0.30464  0.17790  1.0000
  H   H37       1.0  0.21560  0.26218  0.18790  1.0000
  H   H38       1.0  0.27328  0.21215  0.16857  1.0000
  H   H39       1.0  0.26336  0.21016  0.19140  1.0000
  H   H40       1.0  0.30871  0.21669  0.18454  1.0000
  Fe  Fe8       1.0  0.41198  0.30933  0.28841  1.0000
  S   S17       1.0  0.14247  0.11509  0.22564  1.0000
  H   H41       1.0  0.23522  0.15868  0.06051  1.0000
  H   H42       1.0  0.13576  0.25779  0.17047  1.0000
  Fe  Fe9       1.0  0.46119  0.37273  0.28258  1.0000
  C   C38       1.0  0.10626  0.36251  0.26626  1.0000
  H   H43       1.0  0.18249  0.33549  0.05680  1.0000
  N   N5        1.0  0.24264  0.34844  0.27561  1.0000
  H   H44       1.0  0.19183  0.34098  0.28854  1.0000
  H   H45       1.0  0.08514  0.13916  0.08503  1.0000
  H   H46       1.0  0.26716  0.22624  0.28470  1.0000
  H   H47       1.0  0.11074  0.47406  0.20991  1.0000
  C   C39       1.0  0.37608  0.23664  0.27009  1.0000
  Fe  Fe10      1.0  0.37960  0.38469  0.27832  1.0000
  C   C40       1.0  0.12078  0.47684  0.25388  1.0000
  H   H48       1.0  0.27749  0.30031  0.26940  1.0000
  H   H49       1.0  0.17531  0.41958  0.05281  1.0000
  C   C41       1.0  0.25674  0.47783  0.08224  1.0000
  H   H50       1.0  0.08862  0.48573  0.18047  1.0000
  H   H51       1.0  0.24788  0.50946  0.05876  1.0000
  H   H52       1.0  0.11306  0.44813  0.25691  1.0000
  S   S18       1.0  0.09023  0.39079  0.28358  1.0000
  C   C42       1.0  0.20086  0.40675  0.05835  1.0000
  H   H53       1.0  0.21903  0.40067  0.28486  1.0000
  H   H54       1.0  0.13232  0.32162  0.28310  1.0000
  H   H55       1.0  0.22323  0.32409  0.25194  1.0000
  H   H56       1.0  0.44385  0.37386  0.20476  1.0000
  H   H57       1.0  0.56962  0.27380  0.29182  1.0000
  C   C43       1.0  0.11156  0.56936  0.08638  1.0000
  S   S19       1.0  0.51418  0.39338  0.27305  1.0000
  H   H58       1.0  0.22384  0.34712  0.09124  1.0000
  H   H59       1.0  0.34205  0.20175  0.28507  1.0000
  H   H60       1.0  0.10971  0.36001  0.22190  1.0000
  S   S20       1.0  0.23206  0.24316  0.24988  1.0000
  H   H61       1.0  0.20911  0.11189  0.20576  1.0000
  S   S21       1.0  0.20065  0.57196  0.06816  1.0000
  C   C44       1.0  0.55110  0.36203  0.27741  1.0000
  H   H62       1.0  0.09672  0.49575  0.25674  1.0000
  H   H63       1.0  0.19304  0.42659  0.09199  1.0000
  S   S22       1.0  0.15403  0.20398  0.24933  1.0000
  C   C45       1.0  0.21211  0.53278  0.09840  1.0000
  H   H64       1.0  0.19503  0.55419  0.10465  1.0000
  H   H65       1.0  0.09966  0.14342  0.25679  1.0000
  H   H66       1.0  0.15067  0.24380  0.19175  1.0000
  C   C46       1.0  0.27899  0.32929  0.27440  1.0000
  Fe  Fe11      1.0  0.20516  0.19931  0.26508  1.0000
  H   H67       1.0  0.40679  0.41506  0.24596  1.0000
  N   N6        1.0  0.13258  0.48028  0.23558  1.0000
  C   C47       1.0  0.21967  0.53519  0.08056  1.0000
  C   C48       1.0  0.24173  0.50754  0.07248  1.0000
  C   C49       1.0  0.22641  0.35184  0.25803  1.0000
  H   H68       1.0  0.24208  0.34731  0.06950  1.0000
  H   H69       1.0  0.35594  0.35010  0.24704  1.0000
  H   H70       1.0  0.40552  0.26887  0.25176  1.0000
  H   H71       1.0  0.14941  0.41788  0.08280  1.0000
  H   H72       1.0  0.12077  0.54357  0.07926  1.0000
  C   C50       1.0  0.47365  0.40789  0.23203  1.0000
  H   H73       1.0  0.16319  0.33375  0.07825  1.0000
  H   H74       1.0  0.09619  0.30358  0.13902  1.0000
  Fe  Fe12      1.0  0.12350  0.20858  0.06950  1.0000
  H   H75       1.0  0.51782  0.31648  0.28371  1.0000
  H   H76       1.0  0.17379  0.45607  0.21860  1.0000
  H   H77       1.0  0.15170  0.52264  0.21866  1.0000
  C   C51       1.0  0.11497  0.35183  0.23525  1.0000
  C   C52       1.0  0.24501  0.13545  0.06910  1.0000
  C   C53       1.0  0.13879  0.23354  0.17942  1.0000
  N   N7        1.0  0.10346  0.21709  0.18260  1.0000
  H   H78       1.0  0.26267  0.40342  0.27468  1.0000
  H   H79       1.0  0.29718  0.34419  0.26560  1.0000
  H   H80       1.0  0.12753  0.16252  0.18803  1.0000
  C   C54       1.0  0.17553  0.40428  0.08729  1.0000
  H   H81       1.0  0.09415  0.09443  0.25629  1.0000
  H   H82       1.0  0.15862  0.21297  0.17342  1.0000
  H   H83       1.0  0.49473  0.39654  0.22281  1.0000
  H   H84       1.0  0.12032  0.19180  0.20685  1.0000
  H   H85       1.0  0.13646  0.58364  0.09032  1.0000
  H   H86       1.0  0.14330  0.36474  0.06215  1.0000
  H   H87       1.0  0.38672  0.44419  0.22936  1.0000
  H   H88       1.0  0.09766  0.56125  0.09854  1.0000
  H   H89       1.0  0.46918  0.38578  0.24177  1.0000
  H   H90       1.0  0.16969  0.38659  0.09873  1.0000
  C   C55       1.0  0.22818  0.36494  0.07967  1.0000
  H   H91       1.0  0.21534  0.39116  0.04767  1.0000
  C   C56       1.0  0.15468  0.09258  0.20605  1.0000
  C   C57       1.0  0.34787  0.21248  0.27228  1.0000
  N   N8        1.0  0.43954  0.41955  0.22296  1.0000
  H   H92       1.0  0.09446  0.44211  0.22554  1.0000
  H   H93       1.0  0.22204  0.12894  0.07782  1.0000
  H   H94       1.0  0.11421  0.57736  0.05175  1.0000
  H   H95       1.0  0.48535  0.43145  0.23922  1.0000
  C   C58       1.0  0.42440  0.38693  0.21433  1.0000
  H   H96       1.0  0.42339  0.46027  0.24247  1.0000
  H   H97       1.0  0.46692  0.43673  0.19984  1.0000
  S   S23       1.0  0.42089  0.34572  0.26533  1.0000
  H   H98       1.0  0.45872  0.47284  0.21580  1.0000
  C   C59       1.0  0.44711  0.44789  0.20973  1.0000
  S   S24       1.0  0.15180  0.16405  0.05327  1.0000
  C   C60       1.0  0.18941  0.09573  0.19905  1.0000
  H   H99       1.0  0.29255  0.32777  0.28735  1.0000
  H   H100      1.0  0.18816  0.57151  0.13562  1.0000
  C   C61       1.0  0.24608  0.38593  0.28317  1.0000
  C   C62       1.0  0.17125  0.56633  0.14678  1.0000
  H   H101      1.0  0.09463  0.09195  0.09125  1.0000
  H   H102      1.0  0.09463  0.50845  0.14996  1.0000
  H   H103      1.0  0.10119  0.46148  0.14229  1.0000
  H   H104      1.0  0.08997  0.25471  0.20377  1.0000
  C   C63       1.0  0.08777  0.20561  0.16580  1.0000
  C   C64       1.0  0.28770  0.11254  0.04719  1.0000
  S   S25       1.0  0.15394  0.25528  0.05845  1.0000
  H   H105      1.0  0.08331  0.22974  0.15686  1.0000
  H   H106      1.0  0.09735  0.43948  0.17227  1.0000
  C   C65       1.0  0.11720  0.14857  0.29062  1.0000
  H   H107      1.0  0.12446  0.17334  0.28295  1.0000
  H   H108      1.0  0.17634  0.10466  0.28364  1.0000
  H   H109      1.0  0.08264  0.17094  0.19655  1.0000
  C   C66       1.0  0.11903  0.58313  0.16480  1.0000
  C   C67       1.0  0.14073  0.58983  0.15030  1.0000
  S   S26       1.0  0.42067  0.41511  0.29351  1.0000
  C   C68       1.0  0.08091  0.36301  0.18092  1.0000
  H   H110      1.0  0.08181  0.39662  0.24615  1.0000
  H   H111      1.0  0.45035  0.28378  0.46680  1.0000
  S   S27       1.0  0.55696  0.57628  0.51276  1.0000
  Fe  Fe13      1.0  0.24666  0.29989  0.39285  1.0000
  S   S28       1.0  0.28128  0.25963  0.37682  1.0000
  S   S29       1.0  0.19134  0.28282  0.40078  1.0000
  Fe  Fe14      1.0  0.30339  0.35761  0.39355  1.0000
  S   S30       1.0  0.34223  0.32260  0.37738  1.0000
  S   S31       1.0  0.32292  0.41284  0.40232  1.0000
  Fe  Fe15      1.0  0.29366  0.30995  0.36130  1.0000
  S   S32       1.0  0.29772  0.31033  0.33205  1.0000
  Fe  Fe16      1.0  0.32634  0.27585  0.39454  1.0000
  S   S33       1.0  0.37083  0.23451  0.40297  1.0000
  S   S34       1.0  0.25568  0.34921  0.37589  1.0000
  S   S35       1.0  0.29062  0.31197  0.41199  1.0000
  H   H112      1.0  0.28620  0.41830  0.37120  1.0000
  C   C69       1.0  0.38962  0.43548  0.41299  1.0000
  H   H113      1.0  0.36273  0.34644  0.41385  1.0000
  N   N9        1.0  0.31356  0.44378  0.35021  1.0000
  C   C70       1.0  0.27192  0.27610  0.32241  1.0000
  C   C71       1.0  0.28194  0.26156  0.30605  1.0000
  C   C72       1.0  0.28206  0.44175  0.36199  1.0000
  C   C73       1.0  0.22722  0.22674  0.30518  1.0000
  C   C74       1.0  0.21812  0.23991  0.32189  1.0000
  C   C75       1.0  0.24039  0.26468  0.33048  1.0000
  H   H114      1.0  0.57084  0.41385  0.31025  1.0000
  H   H115      1.0  0.08411  0.35536  0.44982  1.0000
  H   H116      1.0  0.19336  0.23167  0.32804  1.0000
  H   H117      1.0  0.23261  0.27564  0.34316  1.0000
  C   C76       1.0  0.39289  0.22851  0.46152  1.0000
  C   C77       1.0  0.12106  0.30878  0.39813  1.0000
  C   C78       1.0  0.15738  0.31827  0.39863  1.0000
  C   C79       1.0  0.16582  0.35575  0.39843  1.0000
  C   C80       1.0  0.13783  0.38368  0.39795  1.0000
  H   H118      1.0  0.37996  0.46324  0.40932  1.0000
  H   H119      1.0  0.11449  0.27979  0.39819  1.0000
  H   H120      1.0  0.19382  0.36325  0.39921  1.0000
  H   H121      1.0  0.14436  0.41268  0.39813  1.0000
  C   C81       1.0  0.37871  0.23203  0.42555  1.0000
  H   H122      1.0  0.34063  0.40988  0.33053  1.0000
  C   C82       1.0  0.10146  0.37411  0.39798  1.0000
  H   H123      1.0  0.30434  0.50222  0.34540  1.0000
  C   C83       1.0  0.36031  0.24538  0.45540  1.0000
  C   C84       1.0  0.35327  0.24718  0.43745  1.0000
  C   C85       1.0  0.34668  0.44926  0.36062  1.0000
  H   H124      1.0  0.14287  0.27869  0.43072  1.0000
  H   H125      1.0  0.27809  0.46739  0.37007  1.0000
  H   H126      1.0  0.32792  0.25977  0.43288  1.0000
  H   H127      1.0  0.35463  0.42408  0.36844  1.0000
  H   H128      1.0  0.44557  0.43920  0.32502  1.0000
  C   C86       1.0  0.41810  0.21275  0.44967  1.0000
  C   C87       1.0  0.36703  0.40559  0.41084  1.0000
  C   C88       1.0  0.37982  0.36974  0.41549  1.0000
  C   C89       1.0  0.39455  0.27913  0.33767  1.0000
  H   H129      1.0  0.36081  0.22989  0.31824  1.0000
  H   H130      1.0  0.33069  0.47746  0.32901  1.0000
  H   H131      1.0  0.54929  0.45384  0.33541  1.0000
  H   H132      1.0  0.57647  0.26467  0.44682  1.0000
  C   C90       1.0  0.36010  0.22474  0.33252  1.0000
  H   H133      1.0  0.37015  0.45500  0.35216  1.0000
  H   H134      1.0  0.54812  0.43414  0.35677  1.0000
  N   N10       1.0  0.39227  0.23902  0.34137  1.0000
  H   H135      1.0  0.57876  0.10841  0.49324  1.0000
  H   H136      1.0  0.10637  0.42917  0.34460  1.0000
  H   H137      1.0  0.35818  0.19431  0.33451  1.0000
  H   H138      1.0  0.32487  0.38452  0.34875  1.0000
  H   H139      1.0  0.43201  0.29577  0.49709  1.0000
  H   H140      1.0  0.29303  0.40236  0.33286  1.0000
  H   H141      1.0  0.25651  0.43738  0.35471  1.0000
  C   C91       1.0  0.41097  0.21445  0.43172  1.0000
  H   H142      1.0  0.36336  0.24727  0.36543  1.0000
  H   H143      1.0  0.33452  0.23856  0.33756  1.0000
  H   H144      1.0  0.30709  0.26917  0.30006  1.0000
  H   H145      1.0  0.42725  0.40358  0.37748  1.0000
  H   H146      1.0  0.34295  0.47284  0.36997  1.0000
  C   C92       1.0  0.30741  0.47538  0.33816  1.0000
  S   S36       1.0  0.47983  0.38610  0.43494  1.0000
  H   H147      1.0  0.23095  0.32345  0.30023  1.0000
  H   H148      1.0  0.42878  0.22233  0.32067  1.0000
  H   H149      1.0  0.34058  0.25733  0.46452  1.0000
  H   H150      1.0  0.37017  0.29546  0.34247  1.0000
  C   C93       1.0  0.10044  0.29436  0.46957  1.0000
  H   H151      1.0  0.39646  0.28428  0.32344  1.0000
  H   H152      1.0  0.45020  0.22889  0.34140  1.0000
  H   H153      1.0  0.28250  0.47227  0.33019  1.0000
  C   C94       1.0  0.31810  0.40874  0.34012  1.0000
  C   C95       1.0  0.41473  0.36380  0.42250  1.0000
  H   H154      1.0  0.42431  0.33587  0.42583  1.0000
  H   H155      1.0  0.11440  0.34240  0.43237  1.0000
  C   C96       1.0  0.41600  0.32056  0.49212  1.0000
  H   H156      1.0  0.48828  0.32243  0.48662  1.0000
  S   S37       1.0  0.40251  0.22935  0.48392  1.0000
  S   S38       1.0  0.40884  0.38114  0.34291  1.0000
  C   C97       1.0  0.47168  0.47006  0.34497  1.0000
  H   H157      1.0  0.43056  0.20227  0.42260  1.0000
  H   H158      1.0  0.41201  0.34036  0.50318  1.0000
  C   C98       1.0  0.42483  0.42946  0.41984  1.0000
  C   C99       1.0  0.10923  0.33832  0.44647  1.0000
  C   C100      1.0  0.09317  0.33663  0.39791  1.0000
  H   H159      1.0  0.41854  0.29101  0.34404  1.0000
  C   C101      1.0  0.42550  0.21871  0.33497  1.0000
  C   C102      1.0  0.38888  0.23351  0.36034  1.0000
  H   H160      1.0  0.38816  0.20355  0.36378  1.0000
  Fe  Fe17      1.0  0.41259  0.37255  0.31415  1.0000
  H   H161      1.0  0.47034  0.36731  0.49384  1.0000
  H   H162      1.0  0.42464  0.18833  0.33748  1.0000
  H   H163      1.0  0.38558  0.36463  0.46712  1.0000
  C   C103      1.0  0.44984  0.44208  0.33879  1.0000
  C   C104      1.0  0.43962  0.42205  0.36835  1.0000
  H   H164      1.0  0.09562  0.39788  0.36182  1.0000
  Fe  Fe18      1.0  0.53748  0.47128  0.39294  1.0000
  S   S39       1.0  0.53291  0.40946  0.39407  1.0000
  S   S40       1.0  0.51226  0.50168  0.37024  1.0000
  Fe  Fe19      1.0  0.52193  0.41967  0.42232  1.0000
  C   C105      1.0  0.25944  0.23716  0.29737  1.0000
  S   S41       1.0  0.52198  0.48198  0.42082  1.0000
  C   C106      1.0  0.08422  0.42060  0.35332  1.0000
  H   H165      1.0  0.48583  0.36087  0.47178  1.0000
  N   N11       1.0  0.43449  0.33763  0.47730  1.0000
  H   H166      1.0  0.42656  0.38545  0.46081  1.0000
  C   C107      1.0  0.47135  0.34755  0.48267  1.0000
  H   H167      1.0  0.51209  0.40337  0.32388  1.0000
  H   H168      1.0  0.16354  0.28723  0.45132  1.0000
  C   C108      1.0  0.56308  0.43300  0.34418  1.0000
  Fe  Fe20      1.0  0.52727  0.16687  0.47924  1.0000
  S   S42       1.0  0.47885  0.15390  0.49526  1.0000
  S   S43       1.0  0.54848  0.12540  0.45960  1.0000
  Fe  Fe21      1.0  0.53566  0.24175  0.49622  1.0000
  H   H169      1.0  0.50997  0.38482  0.34553  1.0000
  H   H170      1.0  0.45414  0.32139  0.45188  1.0000
  S   S44       1.0  0.50678  0.22433  0.47207  1.0000
  H   H171      1.0  0.52036  0.54232  0.48391  1.0000
  S   S45       1.0  0.45622  0.33245  0.30456  1.0000
  Fe  Fe22      1.0  0.46070  0.21306  0.49002  1.0000
  H   H172      1.0  0.44205  0.45267  0.42161  1.0000
  C   C109      1.0  0.43461  0.41745  0.35045  1.0000
  C   C110      1.0  0.56259  0.52571  0.46553  1.0000
  S   S46       1.0  0.36756  0.34608  0.30001  1.0000
  C   C111      1.0  0.47844  0.47317  0.36281  1.0000
  C   C112      1.0  0.46148  0.44997  0.37451  1.0000
  H   H173      1.0  0.46580  0.45303  0.38836  1.0000
  H   H174      1.0  0.38886  0.31093  0.48822  1.0000
  H   H175      1.0  0.54399  0.51541  0.45595  1.0000
  H   H176      1.0  0.56733  0.36841  0.36156  1.0000
  H   H177      1.0  0.44294  0.19895  0.45429  1.0000
  N   N12       1.0  0.56389  0.39517  0.33658  1.0000
  H   H178      1.0  0.40983  0.39203  0.48252  1.0000
  H   H179      1.0  0.41172  0.24539  0.36766  1.0000
  Fe  Fe23      1.0  0.50996  0.17750  0.51743  1.0000
  C   C113      1.0  0.52633  0.38422  0.33330  1.0000
  H   H180      1.0  0.12413  0.30420  0.47699  1.0000
  H   H181      1.0  0.57954  0.40279  0.46987  1.0000
  S   S47       1.0  0.56040  0.18484  0.50184  1.0000
  H   H182      1.0  0.41027  0.30509  0.45719  1.0000
  H   H183      1.0  0.52587  0.35568  0.32770  1.0000
  H   H184      1.0  0.57534  0.46178  0.48455  1.0000
  C   C114      1.0  0.43728  0.39363  0.42478  1.0000
  C   C115      1.0  0.43742  0.31086  0.46266  1.0000
  C   C116      1.0  0.41315  0.37142  0.47175  1.0000
  H   H185      1.0  0.48457  0.48820  0.33590  1.0000
  S   S48       1.0  0.48752  0.23616  0.51370  1.0000
  C   C117      1.0  0.54928  0.54087  0.48133  1.0000
  H   H186      1.0  0.09705  0.26475  0.47310  1.0000
  H   H187      1.0  0.57279  0.43873  0.50517  1.0000
  H   H188      1.0  0.13686  0.14628  0.30166  1.0000
  H   H189      1.0  0.13236  0.35006  0.45361  1.0000
  S   S49       1.0  0.56933  0.29210  0.49472  1.0000
  N   N13       1.0  0.10556  0.29857  0.45060  1.0000
  C   C118      1.0  0.13873  0.27688  0.44504  1.0000
  C   C119      1.0  0.57335  0.55485  0.49359  1.0000
  H   H190      1.0  0.08550  0.38231  0.32308  1.0000
  H   H191      1.0  0.46315  0.10457  0.52428  1.0000
  H   H192      1.0  0.54437  0.21924  0.53904  1.0000
  S   S50       1.0  0.51401  0.14825  0.54322  1.0000
  H   H193      1.0  0.13724  0.24684  0.44821  1.0000
  H   H194      1.0  0.25962  0.38437  0.29615  1.0000
  S   S51       1.0  0.58039  0.41181  0.43009  1.0000
  H   H195      1.0  0.58052  0.37569  0.48949  1.0000
  H   H196      1.0  0.08962  0.15459  0.29614  1.0000
  H   H197      1.0  0.56127  0.13669  0.65430  1.0000
  C   C120      1.0  0.53488  0.10302  0.70031  1.0000
  H   H198      1.0  0.49306  0.56541  0.61271  1.0000
  C   C121      1.0  0.56762  0.18452  0.58558  1.0000
  C   C122      1.0  0.55435  0.12729  0.66714  1.0000
  H   H199      1.0  0.53751  0.13651  0.57879  1.0000
  H   H200      1.0  0.54198  0.57450  0.68344  1.0000
  C   C123      1.0  0.55108  0.20933  0.55191  1.0000
  C   C124      1.0  0.53898  0.17523  0.55750  1.0000
  S   S52       1.0  0.52087  0.55198  0.64916  1.0000
  C   C125      1.0  0.54954  0.13800  0.69821  1.0000
  H   H201      1.0  0.55332  0.15560  0.70946  1.0000
  C   C126      1.0  0.55943  0.15011  0.68163  1.0000
  C   C127      1.0  0.54720  0.16274  0.57436  1.0000
  H   H202      1.0  0.49043  0.55167  0.59023  1.0000
  C   C128      1.0  0.57159  0.23093  0.56304  1.0000
  C   C129      1.0  0.50025  0.57342  0.59917  1.0000
  H   H203      1.0  0.57292  0.31749  0.68910  1.0000
  C   C130      1.0  0.55916  0.54134  0.60156  1.0000
  H   H204      1.0  0.55322  0.53231  0.61507  1.0000
  H   H205      1.0  0.55141  0.51881  0.59254  1.0000
  C   C131      1.0  0.57991  0.21859  0.57987  1.0000
  H   H206      1.0  0.57341  0.17515  0.59866  1.0000
  N   N14       1.0  0.53983  0.57718  0.59739  1.0000
  H   H207      1.0  0.57805  0.28846  0.71835  1.0000
  H   H208      1.0  0.53943  0.56725  0.56970  1.0000
  S   S53       1.0  0.57727  0.19417  0.67923  1.0000
  H   H209      1.0  0.52723  0.09384  0.71313  1.0000
  Fe  Fe24      1.0  0.57935  0.53264  0.65217  1.0000
  C   C132      1.0  0.54854  0.58796  0.57936  1.0000
  H   H210      1.0  0.57837  0.59012  0.57764  1.0000
  C   C133      1.0  0.53892  0.09272  0.66917  1.0000
  C   C134      1.0  0.28523  0.15643  0.99243  1.0000
  S   S54       1.0  0.15269  0.51468  0.99736  1.0000
  C   C135      1.0  0.27771  0.18158  0.00610  1.0000
  H   H211      1.0  0.18757  0.51509  0.96224  1.0000
  H   H212      1.0  0.19177  0.43109  0.95477  1.0000
  H   H213      1.0  0.22643  0.52635  0.94984  1.0000
  Fe  Fe25      1.0  0.18518  0.48339  0.01767  1.0000
  S   S55       1.0  0.20426  0.42436  0.01250  1.0000
  Fe  Fe26      1.0  0.12284  0.54079  0.02008  1.0000
  H   H214      1.0  0.15833  0.30152  0.02293  1.0000
  S   S56       1.0  0.22732  0.52560  0.02111  1.0000
  H   H215      1.0  0.24555  0.44642  0.93714  1.0000
  Fe  Fe27      1.0  0.17809  0.21167  0.04041  1.0000
  S   S57       1.0  0.23676  0.21044  0.03301  1.0000
  C   C136      1.0  0.25812  0.45699  0.94926  1.0000
  C   C137      1.0  0.15141  0.33100  0.02198  1.0000
  H   H216      1.0  0.19304  0.15558  0.01675  1.0000
  H   H217      1.0  0.27703  0.47876  0.94544  1.0000
  C   C138      1.0  0.16973  0.39378  0.01655  1.0000
  C   C139      1.0  0.17830  0.35553  0.01757  1.0000
  H   H218      1.0  0.21599  0.11179  0.03955  1.0000
  H   H219      1.0  0.18439  0.45263  0.97568  1.0000
  H   H220      1.0  0.26403  0.46288  0.98422  1.0000
  C   C140      1.0  0.20890  0.50312  0.95330  1.0000
  H   H221      1.0  0.20588  0.34486  0.01524  1.0000
  S   S58       1.0  0.27075  0.09744  0.97151  1.0000
  H   H222      1.0  0.22087  0.41865  0.97293  1.0000
  H   H223      1.0  0.27472  0.43354  0.95514  1.0000
  H   H224      1.0  0.22783  0.49730  0.98680  1.0000
  C   C141      1.0  0.24454  0.18126  0.01493  1.0000
  C   C142      1.0  0.22677  0.12996  0.99670  1.0000
  Fe  Fe28      1.0  0.10877  0.25936  0.03895  1.0000
  C   C143      1.0  0.26007  0.13018  0.98792  1.0000
  C   C144      1.0  0.11581  0.34468  0.02516  1.0000
  C   C145      1.0  0.13411  0.40748  0.01965  1.0000
  N   N15       1.0  0.23021  0.47199  0.96156  1.0000
  S   S59       1.0  0.13574  0.22015  0.01976  1.0000
  C   C146      1.0  0.20576  0.44228  0.96636  1.0000
  C   C147      1.0  0.24817  0.48562  0.97739  1.0000
  H   H225      1.0  0.12822  0.10198  0.97983  1.0000
  H   H226      1.0  0.12729  0.43701  0.01883  1.0000
  C   C148      1.0  0.21879  0.15587  0.01002  1.0000
  H   H227      1.0  0.29766  0.20118  0.00987  1.0000
  Fe  Fe29      1.0  0.19308  0.55838  0.00180  1.0000
  H   H228      1.0  0.26672  0.50827  0.97439  1.0000
  Fe  Fe30      1.0  0.10698  0.17584  0.03399  1.0000
  C   C149      1.0  0.10710  0.38288  0.02386  1.0000
  H   H229      1.0  0.19507  0.49409  0.94124  1.0000
  S   S60       1.0  0.22159  0.58534  0.97958  1.0000
  H   H230      1.0  0.12832  0.11376  0.93146  1.0000
  H   H231      1.0  0.09647  0.18283  0.99649  1.0000
  H   H232      1.0  0.31094  0.15671  0.98563  1.0000
  C   C150      1.0  0.17919  0.09326  0.95525  1.0000
  H   H233      1.0  0.19122  0.09672  0.94210  1.0000
  H   H234      1.0  0.14517  0.57737  0.97313  1.0000
  Fe  Fe31      1.0  0.18971  0.55069  0.04133  1.0000
  H   H235      1.0  0.20699  0.11014  0.99313  1.0000
  S   S61       1.0  0.15106  0.50473  0.04004  1.0000
  H   H236      1.0  0.18053  0.12038  0.96222  1.0000
  H   H237      1.0  0.27884  0.13530  0.03816  1.0000
  C   C151      1.0  0.11847  0.10932  0.94496  1.0000
  H   H238      1.0  0.09782  0.58325  0.99320  1.0000
  H   H239      1.0  0.11802  0.13664  0.95180  1.0000
  H   H240      1.0  0.08985  0.10094  0.94394  1.0000
  S   S62       1.0  0.15995  0.58819  0.02241  1.0000
  S   S63       1.0  0.08244  0.31432  0.03134  1.0000
  C   C152      1.0  0.27092  0.07266  0.07071  1.0000
  C   C153      1.0  0.10667  0.60299  0.05927  1.0000
  C   C154      1.0  0.12234  0.91305  0.07597  1.0000
  H   H241      1.0  0.16502  0.66986  0.17040  1.0000
  S   S64       1.0  0.12962  0.62730  0.13648  1.0000
  H   H242      1.0  0.17146  0.77253  0.16669  1.0000
  S   S65       1.0  0.11042  0.02069  0.07722  1.0000
  H   H243      1.0  0.12725  0.94315  0.07524  1.0000
  H   H244      1.0  0.22624  0.07871  0.17834  1.0000
  H   H245      1.0  0.15823  0.08218  0.26463  1.0000
  S   S66       1.0  0.15336  0.96924  0.11883  1.0000
  S   S67       1.0  0.11840  0.87399  0.12382  1.0000
  N   N16       1.0  0.15620  0.89014  0.07299  1.0000
  H   H246      1.0  0.13777  0.84387  0.08755  1.0000
  Fe  Fe32      1.0  0.10997  0.00345  0.10519  1.0000
  H   H247      1.0  0.14039  0.74843  0.14103  1.0000
  Fe  Fe33      1.0  0.14063  0.00625  0.14180  1.0000
  H   H248      1.0  0.10251  0.06893  0.20272  1.0000
  H   H249      1.0  0.16366  0.70341  0.14280  1.0000
  H   H250      1.0  0.13973  0.68812  0.18891  1.0000
  H   H251      1.0  0.19710  0.72883  0.16832  1.0000
  N   N17       1.0  0.13925  0.72431  0.16660  1.0000
  H   H252      1.0  0.18981  0.92938  0.08554  1.0000
  C   C155      1.0  0.14026  0.68678  0.17444  1.0000
  S   S68       1.0  0.18698  0.03136  0.15581  1.0000
  H   H253      1.0  0.11075  0.90793  0.08907  1.0000
  S   S69       1.0  0.09869  0.96960  0.15295  1.0000
  C   C156      1.0  0.15467  0.00792  0.04932  1.0000
  C   C157      1.0  0.17040  0.89770  0.05542  1.0000
  C   C158      1.0  0.13966  0.72080  0.14742  1.0000
  C   C159      1.0  0.10580  0.74562  0.17213  1.0000
  Fe  Fe34      1.0  0.10811  0.93553  0.12851  1.0000
  H   H254      1.0  0.11931  0.03676  0.17503  1.0000
  C   C160      1.0  0.17394  0.05546  0.17491  1.0000
  S   S70       1.0  0.10121  0.04373  0.12712  1.0000
  H   H255      1.0  0.24905  0.06457  0.07973  1.0000
  C   C161      1.0  0.18356  0.89948  0.08619  1.0000
  H   H256      1.0  0.13214  0.61732  0.06205  1.0000
  H   H257      1.0  0.17200  0.74714  0.18680  1.0000
  H   H258      1.0  0.17523  0.92772  0.05376  1.0000
  C   C162      1.0  0.21761  0.99736  0.06944  1.0000
  C   C163      1.0  0.18422  0.00671  0.07748  1.0000
  C   C164      1.0  0.15275  0.01184  0.06740  1.0000
  N   N18       1.0  0.08753  0.59374  0.07543  1.0000
  H   H259      1.0  0.28047  0.04728  0.06336  1.0000
  H   H260      1.0  0.24197  0.99345  0.07724  1.0000
  H   H261      1.0  0.18300  0.01048  0.09142  1.0000
  H   H262      1.0  0.10219  0.64355  0.08869  1.0000
  C   C165      1.0  0.13890  0.05310  0.18170  1.0000
  H   H263      1.0  0.11206  0.79640  0.11913  1.0000
  C   C166      1.0  0.12942  0.07135  0.19736  1.0000
  H   H264      1.0  0.17381  0.89414  0.09963  1.0000
  H   H265      1.0  0.17326  0.83219  0.07212  1.0000
  C   C167      1.0  0.14838  0.85038  0.07437  1.0000
  H   H266      1.0  0.19663  0.88194  0.05290  1.0000
  C   C168      1.0  0.21957  0.99381  0.05131  1.0000
  H   H267      1.0  0.20955  0.88286  0.08431  1.0000
  C   C169      1.0  0.09054  0.80623  0.12783  1.0000
  H   H268      1.0  0.08925  0.62117  0.05063  1.0000
  C   C170      1.0  0.17140  0.74406  0.17237  1.0000
  H   H269      1.0  0.10129  0.90732  0.06605  1.0000
  H   H270      1.0  0.08088  0.73226  0.16754  1.0000
  H   H271      1.0  0.29404  0.08148  0.07881  1.0000
  C   C171      1.0  0.10878  0.08241  0.29043  1.0000
  H   H272      1.0  0.12761  0.84267  0.06461  1.0000
  C   C172      1.0  0.19912  0.07691  0.18356  1.0000
  H   H273      1.0  0.09536  0.60105  0.16758  1.0000
  H   H274      1.0  0.11668  0.67096  0.17018  1.0000
  H   H275      1.0  0.11511  0.70714  0.14259  1.0000
  H   H276      1.0  0.20481  0.08010  0.05648  1.0000
  H   H277      1.0  0.10464  0.77440  0.16679  1.0000
  H   H278      1.0  0.10973  0.05627  0.28258  1.0000
  H   H279      1.0  0.10394  0.74794  0.18656  1.0000
  C   C173      1.0  0.08758  0.84377  0.13267  1.0000
  C   C174      1.0  0.22739  0.08944  0.04819  1.0000
  H   H280      1.0  0.08083  0.08661  0.29581  1.0000
  H   H281      1.0  0.52218  0.06191  0.54475  1.0000
  H   H282      1.0  0.48798  0.06512  0.49969  1.0000
  C   C175      1.0  0.51926  0.05538  0.53064  1.0000
  H   H283      1.0  0.53845  0.03143  0.52752  1.0000
  H   H284      1.0  0.53166  0.05062  0.45042  1.0000
  H   H285      1.0  0.53646  0.62802  0.48087  1.0000
  H   H286      1.0  0.52902  0.69483  0.45608  1.0000
  C   C176      1.0  0.47145  0.01329  0.53551  1.0000
  C   C177      1.0  0.55480  0.08337  0.47075  1.0000
  C   C178      1.0  0.54415  0.05021  0.46319  1.0000
  H   H287      1.0  0.53527  0.67640  0.48712  1.0000
  C   C179      1.0  0.47857  0.04091  0.50718  1.0000
  C   C180      1.0  0.54856  0.01673  0.47241  1.0000
  C   C181      1.0  0.45670  0.07882  0.53136  1.0000
  H   H288      1.0  0.45009  0.03647  0.50317  1.0000
  H   H289      1.0  0.42782  0.07336  0.52856  1.0000
  N   N19       1.0  0.48146  0.04712  0.52617  1.0000
  H   H290      1.0  0.49550  0.01600  0.50297  1.0000
  H   H291      1.0  0.52822  0.08001  0.52335  1.0000
  C   C182      1.0  0.54731  0.67035  0.45261  1.0000
  C   C183      1.0  0.55342  0.65251  0.48277  1.0000
  H   H292      1.0  0.48981  0.98890  0.53190  1.0000
  H   H293      1.0  0.44314  0.00605  0.53241  1.0000
  H   H294      1.0  0.53934  0.99123  0.46679  1.0000
  H   H295      1.0  0.52993  0.64654  0.44986  1.0000
  C   C184      1.0  0.57047  0.08290  0.48735  1.0000
  H   H296      1.0  0.12779  0.07805  0.30161  1.0000
  H   H297      1.0  0.45915  0.08526  0.54551  1.0000
  C   C185      1.0  0.56493  0.01627  0.48886  1.0000
  S   S71       1.0  0.56915  0.97472  0.50056  1.0000
  C   C186      1.0  0.57668  0.04920  0.49613  1.0000
  H   H298      1.0  0.57224  0.64562  0.49373  1.0000
  H   H299      1.0  0.56151  0.67696  0.44029  1.0000
  N   N20       1.0  0.57349  0.66131  0.46675  1.0000
  S   S72       1.0  0.57862  0.66644  0.53679  1.0000
  H   H300      1.0  0.57915  0.71837  0.47451  1.0000
  H   H301      1.0  0.30342  0.83440  0.68106  1.0000
  Fe  Fe35      1.0  0.26397  0.82664  0.74884  1.0000
  S   S73       1.0  0.23348  0.86514  0.73044  1.0000
  S   S74       1.0  0.30643  0.78375  0.74017  1.0000
  H   H302      1.0  0.55283  0.94132  0.79190  1.0000
  S   S75       1.0  0.20264  0.90956  0.76546  1.0000
  H   H303      1.0  0.35110  0.97202  0.77487  1.0000
  Fe  Fe36      1.0  0.18740  0.86082  0.74923  1.0000
  S   S76       1.0  0.12900  0.85839  0.74156  1.0000
  Fe  Fe37      1.0  0.25132  0.90967  0.74837  1.0000
  S   S77       1.0  0.27350  0.96208  0.73842  1.0000
  S   S78       1.0  0.21572  0.81739  0.76585  1.0000
  S   S79       1.0  0.28488  0.87171  0.76573  1.0000
  H   H304      1.0  0.55639  0.71705  0.71889  1.0000
  C   C187      1.0  0.10307  0.87155  0.75991  1.0000
  H   H305      1.0  0.35129  0.73956  0.69474  1.0000
  S   S80       1.0  0.37723  0.83527  0.66983  1.0000
  C   C188      1.0  0.38019  0.80975  0.70368  1.0000
  C   C189      1.0  0.11977  0.87371  0.77623  1.0000
  C   C190      1.0  0.43980  0.90313  0.69051  1.0000
  C   C191      1.0  0.15794  0.97546  0.69718  1.0000
  H   H306      1.0  0.57894  0.79308  0.56073  1.0000
  H   H307      1.0  0.37764  0.92644  0.67559  1.0000
  H   H308      1.0  0.40293  0.98351  0.74079  1.0000
  H   H309      1.0  0.34308  0.93376  0.78908  1.0000
  H   H310      1.0  0.39642  0.65952  0.67138  1.0000
  H   H311      1.0  0.38115  0.78866  0.72999  1.0000
  C   C192      1.0  0.31948  0.94958  0.73501  1.0000
  C   C193      1.0  0.34596  0.97555  0.73760  1.0000
  H   H312      1.0  0.57465  0.95433  0.66177  1.0000
  H   H313      1.0  0.15844  0.92893  0.73552  1.0000
  H   H314      1.0  0.18783  0.97828  0.69597  1.0000
  C   C194      1.0  0.32995  0.91222  0.73200  1.0000
  H   H315      1.0  0.33798  0.00439  0.74019  1.0000
  H   H316      1.0  0.35508  0.65566  0.69686  1.0000
  H   H317      1.0  0.30974  0.89195  0.72982  1.0000
  C   C195      1.0  0.46376  0.01318  0.79067  1.0000
  H   H318      1.0  0.15441  0.97803  0.73196  1.0000
  C   C196      1.0  0.36420  0.79801  0.71920  1.0000
  C   C197      1.0  0.32635  0.79937  0.72095  1.0000
  C   C198      1.0  0.30453  0.81278  0.70721  1.0000
  C   C199      1.0  0.32048  0.82451  0.69172  1.0000
  H   H319      1.0  0.34922  0.70952  0.67614  1.0000
  C   C200      1.0  0.10988  0.94184  0.71038  1.0000
  H   H320      1.0  0.27529  0.81324  0.70834  1.0000
  H   H321      1.0  0.48491  0.60008  0.59619  1.0000
  C   C201      1.0  0.16587  0.90919  0.70168  1.0000
  H   H322      1.0  0.40965  0.91339  0.65892  1.0000
  C   C202      1.0  0.36817  0.72381  0.68491  1.0000
  H   H323      1.0  0.27127  0.03081  0.78959  1.0000
  N   N21       1.0  0.14971  0.94444  0.70887  1.0000
  N   N22       1.0  0.39445  0.69710  0.69332  1.0000
  H   H324      1.0  0.30877  0.02705  0.77454  1.0000
  C   C203      1.0  0.49852  0.89383  0.79090  1.0000
  S   S81       1.0  0.49329  0.04395  0.78089  1.0000
  H   H325      1.0  0.39381  0.65122  0.71113  1.0000
  C   C204      1.0  0.35832  0.82266  0.68984  1.0000
  C   C205      1.0  0.38285  0.96373  0.73793  1.0000
  C   C206      1.0  0.36673  0.90060  0.73211  1.0000
  H   H326      1.0  0.40934  0.80916  0.70257  1.0000
  C   C207      1.0  0.37472  0.67162  0.70454  1.0000
  H   H327      1.0  0.39607  0.96175  0.66204  1.0000
  H   H328      1.0  0.14691  0.97113  0.68386  1.0000
  H   H329      1.0  0.38216  0.74464  0.67696  1.0000
  H   H330      1.0  0.37461  0.87159  0.73002  1.0000
  H   H331      1.0  0.47343  0.01711  0.54988  1.0000
  C   C208      1.0  0.16524  0.95123  0.72628  1.0000
  H   H332      1.0  0.35905  0.68725  0.71488  1.0000
  H   H333      1.0  0.56959  0.89707  0.78359  1.0000
  C   C209      1.0  0.39326  0.92618  0.73524  1.0000
  H   H334      1.0  0.57128  0.71469  0.56610  1.0000
  C   C210      1.0  0.40270  0.93512  0.66892  1.0000
  H   H335      1.0  0.27062  0.99867  0.77167  1.0000
  H   H336      1.0  0.14597  0.00247  0.70216  1.0000
  C   C211      1.0  0.32953  0.95670  0.78145  1.0000
  Fe  Fe38      1.0  0.48929  0.79368  0.63630  1.0000
  S   S82       1.0  0.53570  0.78548  0.65511  1.0000
  S   S83       1.0  0.49666  0.78804  0.60737  1.0000
  S   S84       1.0  0.47680  0.80829  0.68576  1.0000
  Fe  Fe39      1.0  0.51251  0.83785  0.66747  1.0000
  S   S85       1.0  0.54522  0.88340  0.67815  1.0000
  Fe  Fe40      1.0  0.49509  0.75673  0.67131  1.0000
  S   S86       1.0  0.50896  0.70692  0.68791  1.0000
  S   S87       1.0  0.46949  0.84871  0.64737  1.0000
  S   S88       1.0  0.45010  0.76084  0.65162  1.0000
  H   H337      1.0  0.48916  0.95187  0.68118  1.0000
  C   C212      1.0  0.42023  0.71753  0.70405  1.0000
  Fe  Fe41      1.0  0.43499  0.81521  0.66476  1.0000
  C   C213      1.0  0.42268  0.96815  0.69433  1.0000
  H   H338      1.0  0.43515  0.65520  0.68565  1.0000
  Fe  Fe42      1.0  0.51379  0.01526  0.71525  1.0000
  S   S89       1.0  0.52332  0.95335  0.71547  1.0000
  S   S90       1.0  0.51006  0.03723  0.68800  1.0000
  Fe  Fe43      1.0  0.47954  0.95439  0.73550  1.0000
  Fe  Fe44      1.0  0.56134  0.96411  0.73728  1.0000
  S   S91       1.0  0.46637  0.01558  0.73342  1.0000
  C   C214      1.0  0.56388  0.71858  0.57959  1.0000
  H   H339      1.0  0.43435  0.73834  0.69618  1.0000
  S   S92       1.0  0.43898  0.91018  0.73570  1.0000
  C   C215      1.0  0.50007  0.62609  0.65154  1.0000
  C   C216      1.0  0.28846  0.01091  0.78165  1.0000
  C   C217      1.0  0.41478  0.67542  0.67979  1.0000
  C   C218      1.0  0.51250  0.66441  0.67672  1.0000
  H   H340      1.0  0.41597  0.89543  0.69842  1.0000
  H   H341      1.0  0.10286  0.91851  0.71908  1.0000
  H   H342      1.0  0.09677  0.96776  0.71596  1.0000
  C   C219      1.0  0.53756  0.74634  0.58423  1.0000
  C   C220      1.0  0.52812  0.75193  0.60173  1.0000
  C   C221      1.0  0.54458  0.72929  0.61455  1.0000
  H   H343      1.0  0.52453  0.76358  0.57430  1.0000
  H   H344      1.0  0.53680  0.73277  0.62801  1.0000
  C   C222      1.0  0.57190  0.87558  0.74786  1.0000
  H   H345      1.0  0.53799  0.63555  0.69840  1.0000
  C   C223      1.0  0.42396  0.96170  0.78772  1.0000
  H   H346      1.0  0.44170  0.69843  0.70980  1.0000
  H   H347      1.0  0.44552  0.88028  0.68109  1.0000
  H   H348      1.0  0.39691  0.96226  0.70110  1.0000
  C   C224      1.0  0.52767  0.63310  0.68527  1.0000
  H   H349      1.0  0.57112  0.78236  0.72608  1.0000
  H   H350      1.0  0.32267  0.79321  0.79020  1.0000
  H   H351      1.0  0.44573  0.99107  0.76626  1.0000
  H   H352      1.0  0.16024  0.88518  0.71021  1.0000
  H   H353      1.0  0.44400  0.96994  0.70449  1.0000
  C   C225      1.0  0.51605  0.59492  0.65998  1.0000
  Fe  Fe45      1.0  0.50789  0.01965  0.75465  1.0000
  H   H354      1.0  0.47471  0.92726  0.66238  1.0000
  H   H355      1.0  0.19595  0.91006  0.70044  1.0000
  H   H356      1.0  0.31339  0.94380  0.77106  1.0000
  C   C226      1.0  0.56527  0.84197  0.75619  1.0000
  H   H357      1.0  0.48936  0.62346  0.63850  1.0000
  H   H358      1.0  0.53760  0.63363  0.60679  1.0000
  H   H359      1.0  0.54956  0.89188  0.74217  1.0000
  H   H360      1.0  0.48947  0.92256  0.78714  1.0000
  C   C227      1.0  0.44440  0.98915  0.78022  1.0000
  H   H361      1.0  0.46184  0.97597  0.66517  1.0000
  H   H362      1.0  0.46363  0.90400  0.69942  1.0000
  H   H363      1.0  0.08116  0.80719  0.78556  1.0000
  H   H364      1.0  0.56242  0.00279  0.66487  1.0000
  C   C228      1.0  0.46596  0.94894  0.67208  1.0000
  H   H365      1.0  0.14811  0.86539  0.77778  1.0000
  C   C229      1.0  0.49906  0.66104  0.65976  1.0000
  S   S93       1.0  0.55485  0.02633  0.73618  1.0000
  H   H366      1.0  0.43003  0.69396  0.67121  1.0000
  H   H367      1.0  0.41924  0.99605  0.68816  1.0000
  H   H368      1.0  0.53783  0.83272  0.75705  1.0000
  C   C230      1.0  0.52925  0.08055  0.68575  1.0000
  H   H369      1.0  0.41067  0.94222  0.77937  1.0000
  H   H370      1.0  0.40623  0.73267  0.71496  1.0000
  S   S94       1.0  0.51865  0.95834  0.75745  1.0000
  H   H371      1.0  0.48768  0.68522  0.65302  1.0000
  H   H372      1.0  0.50652  0.87864  0.77873  1.0000
  N   N23       1.0  0.43279  0.93888  0.68144  1.0000
  Fe  Fe46      1.0  0.23392  0.86650  0.78102  1.0000
  H   H373      1.0  0.19544  0.95210  0.72581  1.0000
  C   C231      1.0  0.58048  0.69614  0.59244  1.0000
  C   C232      1.0  0.09965  0.88591  0.79080  1.0000
  H   H374      1.0  0.53441  0.07549  0.65788  1.0000
  H   H375      1.0  0.15469  0.90303  0.68858  1.0000
  C   C233      1.0  0.52996  0.59853  0.67681  1.0000
  H   H376      1.0  0.57800  0.99665  0.69658  1.0000
  C   C234      1.0  0.56008  0.91196  0.79560  1.0000
  H   H377      1.0  0.09714  0.93673  0.69750  1.0000
  H   H378      1.0  0.55570  0.76707  0.69626  1.0000
  H   H379      1.0  0.53555  0.61562  0.57598  1.0000
  H   H380      1.0  0.56278  0.84869  0.57909  1.0000
  H   H381      1.0  0.54562  0.59907  0.62327  1.0000
  N   N24       1.0  0.30645  0.98169  0.79258  1.0000
  C   C235      1.0  0.55152  0.60615  0.60956  1.0000
  H   H382      1.0  0.26120  0.94610  0.79156  1.0000
  C   C236      1.0  0.57102  0.70169  0.60993  1.0000
  Fe  Fe47      1.0  0.28411  0.95835  0.97779  1.0000
  S   S95       1.0  0.24623  0.99549  0.96202  1.0000
  S   S96       1.0  0.31776  0.91182  0.96530  1.0000
  H   H383      1.0  0.51677  0.84144  0.81464  1.0000
  Fe  Fe48      1.0  0.20488  0.98204  0.98199  1.0000
  S   S97       1.0  0.15009  0.96456  0.97391  1.0000
  Fe  Fe49      1.0  0.26101  0.03997  0.98081  1.0000
  H   H384      1.0  0.29868  0.76595  0.80565  1.0000
  S   S98       1.0  0.30305  0.00415  0.99496  1.0000
  C   C237      1.0  0.18862  0.77600  0.82199  1.0000
  H   H385      1.0  0.11288  0.88774  0.80334  1.0000
  Fe  Fe50      1.0  0.11530  0.79279  0.90915  1.0000
  S   S99       1.0  0.09277  0.00294  0.91015  1.0000
  H   H386      1.0  0.45369  0.98075  0.92806  1.0000
  Fe  Fe51      1.0  0.19480  0.76703  0.91168  1.0000
  S   S100      1.0  0.18726  0.71463  0.89638  1.0000
  S   S101      1.0  0.24681  0.78561  0.92329  1.0000
  Fe  Fe52      1.0  0.15267  0.75215  0.87897  1.0000
  S   S102      1.0  0.15340  0.74715  0.84971  1.0000
  Fe  Fe53      1.0  0.13655  0.71092  0.91233  1.0000
  S   S103      1.0  0.11354  0.66148  0.92521  1.0000
  S   S104      1.0  0.16404  0.80483  0.89318  1.0000
  S   S105      1.0  0.14704  0.76010  0.92916  1.0000
  H   H387      1.0  0.10164  0.85360  0.99944  1.0000
  C   C238      1.0  0.36175  0.78711  0.81966  1.0000
  H   H388      1.0  0.49262  0.90329  0.82519  1.0000
  H   H389      1.0  0.53859  0.91521  0.82929  1.0000
  H   H390      1.0  0.19881  0.87249  0.84358  1.0000
  H   H391      1.0  0.23395  0.63297  0.95048  1.0000
  H   H392      1.0  0.13168  0.87131  0.90642  1.0000
  H   H393      1.0  0.14050  0.93888  0.90328  1.0000
  H   H394      1.0  0.43866  0.98106  0.83042  1.0000
  C   C239      1.0  0.14444  0.63769  0.93910  1.0000
  C   C240      1.0  0.30686  0.79455  0.80257  1.0000
  C   C241      1.0  0.12726  0.07593  0.97200  1.0000
  C   C242      1.0  0.33665  0.78847  0.88231  1.0000
  C   C243      1.0  0.30659  0.76684  0.87958  1.0000
  C   C244      1.0  0.27865  0.76659  0.89197  1.0000
  C   C245      1.0  0.28126  0.78687  0.90745  1.0000
  C   C246      1.0  0.31141  0.80848  0.91022  1.0000
  C   C247      1.0  0.33879  0.80980  0.89753  1.0000
  H   H395      1.0  0.30487  0.75018  0.86789  1.0000
  H   H396      1.0  0.25554  0.74990  0.88969  1.0000
  H   H397      1.0  0.31376  0.82408  0.92219  1.0000
  H   H398      1.0  0.55132  0.78801  0.83877  1.0000
  H   H399      1.0  0.19035  0.73457  0.00914  1.0000
  S   S106      1.0  0.43928  0.84558  0.84302  1.0000
  S   S107      1.0  0.24118  0.94115  0.99630  1.0000
  C   C248      1.0  0.56260  0.76510  0.84717  1.0000
  H   H400      1.0  0.23643  0.06569  0.03964  1.0000
  C   C249      1.0  0.08726  0.95532  0.91298  1.0000
  H   H401      1.0  0.56255  0.85468  0.81793  1.0000
  C   C250      1.0  0.34272  0.92549  0.94723  1.0000
  C   C251      1.0  0.35723  0.89839  0.93569  1.0000
  C   C252      1.0  0.37633  0.90892  0.92086  1.0000
  C   C253      1.0  0.38172  0.94652  0.91780  1.0000
  C   C254      1.0  0.36741  0.97360  0.92939  1.0000
  C   C255      1.0  0.34750  0.96313  0.94399  1.0000
  H   H402      1.0  0.38726  0.88789  0.91195  1.0000
  S   S108      1.0  0.23256  0.87380  0.81000  1.0000
  H   H403      1.0  0.37151  0.00273  0.92703  1.0000
  H   H404      1.0  0.33628  0.98416  0.95285  1.0000
  H   H405      1.0  0.10655  0.73874  0.82039  1.0000
  H   H406      1.0  0.16732  0.82353  0.85911  1.0000
  H   H407      1.0  0.18987  0.66426  0.98747  1.0000
  H   H408      1.0  0.35344  0.86925  0.93817  1.0000
  C   C256      1.0  0.13274  0.93891  0.99105  1.0000
  C   C257      1.0  0.12351  0.90219  0.98818  1.0000
  H   H409      1.0  0.55668  0.77340  0.86093  1.0000
  H   H410      1.0  0.31306  0.01940  0.81406  1.0000
  C   C258      1.0  0.20568  0.80407  0.81296  1.0000
  C   C259      1.0  0.17871  0.81759  0.84648  1.0000
  C   C260      1.0  0.17543  0.78256  0.83885  1.0000
  H   H411      1.0  0.21929  0.76004  0.99511  1.0000
  C   C261      1.0  0.27865  0.95994  0.80123  1.0000
  Fe  Fe54      1.0  0.25635  0.99028  0.01213  1.0000
  H   H412      1.0  0.13322  0.98412  0.00950  1.0000
  S   S109      1.0  0.21582  0.03018  0.99937  1.0000
  H   H413      1.0  0.10344  0.94927  0.03293  1.0000
  H   H414      1.0  0.15095  0.88995  0.04511  1.0000
  H   H415      1.0  0.25027  0.94390  0.91525  1.0000
  H   H416      1.0  0.17414  0.90275  0.93882  1.0000
  H   H417      1.0  0.22976  0.69829  0.96743  1.0000
  H   H418      1.0  0.26052  0.97783  0.80969  1.0000
  H   H419      1.0  0.28027  0.82774  0.83158  1.0000
  C   C262      1.0  0.16855  0.68667  0.98500  1.0000
  H   H420      1.0  0.35177  0.01406  0.79978  1.0000
  H   H421      1.0  0.22945  0.71145  0.99920  1.0000
  C   C263      1.0  0.12630  0.95560  0.00731  1.0000
  H   H422      1.0  0.14993  0.68785  0.99644  1.0000
  H   H423      1.0  0.19161  0.66350  0.92910  1.0000
  H   H424      1.0  0.35273  0.86141  0.82328  1.0000
  H   H425      1.0  0.20890  0.89606  0.90355  1.0000
  H   H426      1.0  0.08224  0.72827  0.80083  1.0000
  H   H427      1.0  0.11613  0.82003  0.81269  1.0000
  H   H428      1.0  0.14966  0.04845  0.93078  1.0000
  H   H429      1.0  0.50943  0.94485  0.81600  1.0000
  C   C264      1.0  0.10945  0.93590  0.02054  1.0000
  S   S110      1.0  0.10113  0.74315  0.89348  1.0000
  H   H430      1.0  0.36205  0.82640  0.89974  1.0000
  N   N25       1.0  0.32797  0.81030  0.81697  1.0000
  H   H431      1.0  0.10070  0.80279  0.83312  1.0000
  C   C265      1.0  0.18146  0.64460  0.93865  1.0000
  Fe  Fe55      1.0  0.40295  0.83948  0.86609  1.0000
  C   C266      1.0  0.11012  0.89118  0.90996  1.0000
  C   C267      1.0  0.20759  0.72030  0.96608  1.0000
  S   S111      1.0  0.37148  0.78774  0.86667  1.0000
  C   C268      1.0  0.19724  0.92065  0.93603  1.0000
  H   H432      1.0  0.24796  0.88722  0.95590  1.0000
  H   H433      1.0  0.26773  0.85661  0.93972  1.0000
  C   C269      1.0  0.21974  0.87735  0.91403  1.0000
  C   C270      1.0  0.25889  0.92332  0.92539  1.0000
  H   H434      1.0  0.10301  0.60708  0.95160  1.0000
  H   H435      1.0  0.28345  0.90726  0.92046  1.0000
  C   C271      1.0  0.20539  0.62727  0.95072  1.0000
  H   H436      1.0  0.26765  0.93895  0.93703  1.0000
  H   H437      1.0  0.34200  0.97795  0.81478  1.0000
  C   C272      1.0  0.54026  0.94313  0.92811  1.0000
  H   H438      1.0  0.19879  0.85712  0.91702  1.0000
  H   H439      1.0  0.20323  0.93560  0.94831  1.0000
  H   H440      1.0  0.22164  0.85157  0.94643  1.0000
  C   C273      1.0  0.15502  0.75174  0.97931  1.0000
  C   C274      1.0  0.18799  0.99846  0.04132  1.0000
  C   C275      1.0  0.20691  0.73275  0.99700  1.0000
  H   H441      1.0  0.55436  0.91715  0.93303  1.0000
  C   C276      1.0  0.14124  0.04530  0.94460  1.0000
  S   S112      1.0  0.39806  0.92190  0.81454  1.0000
  C   C277      1.0  0.48520  0.91274  0.92081  1.0000
  N   N26       1.0  0.22950  0.89844  0.92975  1.0000
  C   C278      1.0  0.19605  0.84558  0.83751  1.0000
  S   S113      1.0  0.37437  0.89541  0.86271  1.0000
  H   H442      1.0  0.21676  0.79816  0.80025  1.0000
  H   H443      1.0  0.18902  0.99412  0.02745  1.0000
  H   H444      1.0  0.49530  0.00304  0.93222  1.0000
  H   H445      1.0  0.22043  0.74703  0.96329  1.0000
  C   C279      1.0  0.24217  0.87233  0.94355  1.0000
  H   H446      1.0  0.35580  0.75835  0.82368  1.0000
  H   H447      1.0  0.24374  0.86106  0.90867  1.0000
  N   N27       1.0  0.18454  0.72290  0.98185  1.0000
  H   H448      1.0  0.12888  0.88909  0.97567  1.0000
  H   H449      1.0  0.31235  0.86679  0.81032  1.0000
  H   H450      1.0  0.18622  0.74894  0.81601  1.0000
  H   H451      1.0  0.18774  0.94187  0.92634  1.0000
  C   C280      1.0  0.20947  0.83893  0.82070  1.0000
  H   H452      1.0  0.48670  0.98341  0.91108  1.0000
  H   H453      1.0  0.16007  0.02386  0.95057  1.0000
  H   H454      1.0  0.16590  0.77926  0.97626  1.0000
  H   H455      1.0  0.19724  0.07279  0.96240  1.0000
  H   H456      1.0  0.14321  0.05366  0.97910  1.0000
  H   H457      1.0  0.47439  0.88064  0.79644  1.0000
  Fe  Fe56      1.0  0.41448  0.90332  0.84133  1.0000
  C   C281      1.0  0.11520  0.92941  0.90835  1.0000
  H   H458      1.0  0.55830  0.85541  0.92006  1.0000
  C   C282      1.0  0.09936  0.89943  0.01753  1.0000
  H   H459      1.0  0.13769  0.75509  0.99116  1.0000
  C   C283      1.0  0.13163  0.61262  0.95126  1.0000
  H   H460      1.0  0.54731  0.73994  0.84421  1.0000
  C   C284      1.0  0.51688  0.91530  0.81920  1.0000
  S   S114      1.0  0.40771  0.96007  0.90001  1.0000
  C   C285      1.0  0.32925  0.99913  0.80587  1.0000
  N   N28       1.0  0.52882  0.89411  0.80352  1.0000
  C   C286      1.0  0.15543  0.59582  0.96349  1.0000
  Fe  Fe57      1.0  0.41844  0.91505  0.88017  1.0000
  H   H461      1.0  0.29933  0.78252  0.83722  1.0000
  H   H462      1.0  0.11366  0.03398  0.94449  1.0000
  N   N29       1.0  0.14154  0.08097  0.95421  1.0000
  H   H463      1.0  0.28160  0.81184  0.79999  1.0000
  C   C287      1.0  0.56977  0.86037  0.90738  1.0000
  C   C288      1.0  0.48345  0.97921  0.92536  1.0000
  H   H464      1.0  0.50556  0.91066  0.95439  1.0000
  H   H465      1.0  0.37868  0.79881  0.83014  1.0000
  H   H466      1.0  0.19148  0.71322  0.95439  1.0000
  H   H467      1.0  0.48979  0.91628  0.90659  1.0000
  C   C289      1.0  0.44044  0.98305  0.81641  1.0000
  H   H468      1.0  0.54692  0.94522  0.91400  1.0000
  C   C290      1.0  0.42242  0.95813  0.80580  1.0000
  N   N30       1.0  0.50055  0.94318  0.93100  1.0000
  C   C291      1.0  0.49310  0.93765  0.94970  1.0000
  H   H469      1.0  0.15239  0.67793  0.97358  1.0000
  S   S115      1.0  0.44409  0.85816  0.88546  1.0000
  Fe  Fe58      1.0  0.47805  0.86936  0.86189  1.0000
  S   S116      1.0  0.53764  0.85746  0.85701  1.0000
  H   H470      1.0  0.49749  0.88510  0.92463  1.0000
  S   S117      1.0  0.45618  0.92797  0.85837  1.0000
  C   C292      1.0  0.30616  0.81099  0.83315  1.0000
  C   C293      1.0  0.54851  0.85678  0.89236  1.0000
  C   C294      1.0  0.56368  0.86212  0.87593  1.0000
  C   C295      1.0  0.10744  0.88229  0.00152  1.0000
  H   H471      1.0  0.52067  0.84910  0.89350  1.0000
  H   H472      1.0  0.46330  0.93743  0.95226  1.0000
  H   H473      1.0  0.45532  0.91190  0.92278  1.0000
  H   H474      1.0  0.55259  0.96674  0.93494  1.0000
  H   H475      1.0  0.50416  0.96020  0.95779  1.0000
  C   C296      1.0  0.46111  0.01063  0.80884  1.0000
  H   H476      1.0  0.09845  0.06794  0.97173  1.0000
  H   H477      1.0  0.37857  0.78528  0.80762  1.0000
  H   H478      1.0  0.47577  0.02934  0.81701  1.0000
  H   H479      1.0  0.32095  0.82362  0.84414  1.0000
  C   C297      1.0  0.53970  0.85547  0.80843  1.0000
  H   H480      1.0  0.13674  0.74413  0.96845  1.0000
  H   H481      1.0  0.54860  0.83867  0.79683  1.0000
  C   C298      1.0  0.33722  0.84862  0.81255  1.0000
  H   H482      1.0  0.29135  0.93761  0.80957  1.0000
  C   C299      1.0  0.09620  0.75060  0.80785  1.0000
  C   C300      1.0  0.08265  0.64163  0.99214  1.0000
  C   C301      1.0  0.09149  0.81254  0.82003  1.0000
  H   H483      1.0  0.13028  0.01159  0.04152  1.0000
  S   S118      1.0  0.26179  0.98590  0.04120  1.0000
  H   H484      1.0  0.10015  0.64667  0.98125  1.0000
  H   H485      1.0  0.12034  0.75762  0.80001  1.0000
  H   H486      1.0  0.29749  0.08840  0.03902  1.0000
  C   C302      1.0  0.19220  0.60353  0.96340  1.0000
  H   H487      1.0  0.35418  0.84933  0.80057  1.0000
  C   C303      1.0  0.08116  0.60574  0.99881  1.0000
  Fe  Fe59      1.0  0.70188  0.30445  0.29064  1.0000
  H   H488      1.0  0.91008  0.18321  0.22741  1.0000
  C   C304      1.0  0.61010  0.31319  0.28613  1.0000
  C   C305      1.0  0.08011  0.48370  0.14552  1.0000
  C   C306      1.0  0.61634  0.34902  0.28017  1.0000
  H   H489      1.0  0.90739  0.09928  0.22429  1.0000
  C   C307      1.0  0.86347  0.16848  0.20132  1.0000
  Fe  Fe60      1.0  0.98261  0.47678  0.29393  1.0000
  C   C308      1.0  0.05123  0.34869  0.17226  1.0000
  S   S119      1.0  0.73511  0.31733  0.26703  1.0000
  H   H490      1.0  0.92197  0.14675  0.18222  1.0000
  Fe  Fe61      1.0  0.01758  0.50332  0.26072  1.0000
  S   S120      1.0  0.02386  0.44584  0.24957  1.0000
  C   C309      1.0  0.00678  0.13302  0.17699  1.0000
  Fe  Fe62      1.0  0.96776  0.43933  0.25996  1.0000
  S   S121      1.0  0.92789  0.40628  0.24536  1.0000
  H   H491      1.0  0.97206  0.15915  0.15756  1.0000
  C   C310      1.0  0.58678  0.37342  0.27576  1.0000
  S   S122      1.0  0.95928  0.49867  0.26871  1.0000
  Fe  Fe63      1.0  0.94984  0.25542  0.14616  1.0000
  S   S123      1.0  0.00201  0.25514  0.16102  1.0000
  S   S124      1.0  0.95386  0.24730  0.11734  1.0000
  Fe  Fe64      1.0  0.90446  0.26934  0.17860  1.0000
  S   S125      1.0  0.95343  0.27013  0.19600  1.0000
  S   S126      1.0  0.84677  0.27712  0.18795  1.0000
  Fe  Fe65      1.0  0.97669  0.30454  0.17490  1.0000
  S   S127      1.0  0.00748  0.35531  0.18095  1.0000
  Fe  Fe66      1.0  0.97342  0.22075  0.18018  1.0000
  S   S128      1.0  0.00322  0.17067  0.19169  1.0000
  S   S129      1.0  0.92634  0.30769  0.15858  1.0000
  S   S130      1.0  0.92253  0.21730  0.16435  1.0000
  H   H492      1.0  0.06072  0.54832  0.06347  1.0000
  H   H493      1.0  0.06430  0.25394  0.08266  1.0000
  S   S131      1.0  0.76701  0.42110  0.27377  1.0000
  H   H494      1.0  0.00841  0.49373  0.17335  1.0000
  Fe  Fe67      1.0  0.77983  0.28376  0.28048  1.0000
  S   S132      1.0  0.82037  0.24386  0.26759  1.0000
  H   H495      1.0  0.98233  0.51866  0.22878  1.0000
  C   C311      1.0  0.97928  0.54543  0.20368  1.0000
  C   C312      1.0  0.83984  0.26877  0.21021  1.0000
  C   C313      1.0  0.80526  0.27564  0.21742  1.0000
  C   C314      1.0  0.79922  0.26871  0.23513  1.0000
  C   C315      1.0  0.82767  0.25457  0.24564  1.0000
  C   C316      1.0  0.86223  0.24776  0.23842  1.0000
  C   C317      1.0  0.86836  0.25522  0.22079  1.0000
  H   H496      1.0  0.78303  0.28610  0.20930  1.0000
  H   H497      1.0  0.77230  0.27333  0.24052  1.0000
  H   H498      1.0  0.88434  0.23721  0.24658  1.0000
  H   H499      1.0  0.89504  0.25004  0.21542  1.0000
  C   C318      1.0  0.98739  0.13425  0.16132  1.0000
  H   H500      1.0  0.89407  0.10784  0.18517  1.0000
  H   H501      1.0  0.93760  0.10914  0.19578  1.0000
  H   H502      1.0  0.93062  0.19120  0.20664  1.0000
  H   H503      1.0  0.01088  0.14531  0.10566  1.0000
  H   H504      1.0  0.97094  0.10345  0.13877  1.0000
  C   C319      1.0  0.88346  0.41088  0.25360  1.0000
  C   C320      1.0  0.86855  0.44554  0.25903  1.0000
  C   C321      1.0  0.83207  0.44917  0.26438  1.0000
  C   C322      1.0  0.81079  0.41796  0.26469  1.0000
  C   C323      1.0  0.82571  0.38345  0.25912  1.0000
  C   C324      1.0  0.86188  0.37997  0.25351  1.0000
  H   H505      1.0  0.88489  0.46969  0.25877  1.0000
  H   H506      1.0  0.82059  0.47601  0.26852  1.0000
  H   H507      1.0  0.80941  0.35925  0.25915  1.0000
  H   H508      1.0  0.87325  0.35303  0.24941  1.0000
  C   C325      1.0  0.02493  0.55697  0.22556  1.0000
  C   C326      1.0  0.88386  0.11722  0.21966  1.0000
  S   S133      1.0  0.04360  0.54933  0.24634  1.0000
  C   C327      1.0  0.91292  0.12635  0.19193  1.0000
  C   C328      1.0  0.02010  0.21141  0.12324  1.0000
  C   C329      1.0  0.99937  0.23535  0.11236  1.0000
  C   C330      1.0  0.01524  0.25014  0.09756  1.0000
  H   H509      1.0  0.00768  0.19908  0.13443  1.0000
  H   H510      1.0  0.99947  0.26918  0.08931  1.0000
  H   H511      1.0  0.05173  0.23365  0.19391  1.0000
  H   H512      1.0  0.86388  0.09876  0.21368  1.0000
  H   H513      1.0  0.04567  0.12284  0.06102  1.0000
  N   N31       1.0  0.87735  0.38555  0.19855  1.0000
  C   C331      1.0  0.91256  0.39691  0.19163  1.0000
  C   C332      1.0  0.85971  0.41675  0.20849  1.0000
  C   C333      1.0  0.88374  0.35309  0.21007  1.0000
  C   C334      1.0  0.85340  0.37528  0.18403  1.0000
  H   H514      1.0  0.93133  0.40430  0.20238  1.0000
  H   H515      1.0  0.90901  0.42148  0.18294  1.0000
  H   H516      1.0  0.92666  0.37401  0.18408  1.0000
  H   H517      1.0  0.85236  0.44086  0.19995  1.0000
  H   H518      1.0  0.83453  0.40828  0.21511  1.0000
  H   H519      1.0  0.87807  0.42697  0.21874  1.0000
  H   H520      1.0  0.85808  0.34458  0.21620  1.0000
  H   H521      1.0  0.90311  0.35893  0.22067  1.0000
  H   H522      1.0  0.89565  0.32875  0.20279  1.0000
  H   H523      1.0  0.82704  0.36562  0.18896  1.0000
  H   H524      1.0  0.86595  0.35202  0.17616  1.0000
  H   H525      1.0  0.84754  0.39909  0.17510  1.0000
  H   H526      1.0  0.07389  0.27019  0.18288  1.0000
  H   H527      1.0  0.04319  0.09987  0.19332  1.0000
  H   H528      1.0  0.95527  0.53149  0.19969  1.0000
  S   S134      1.0  0.97415  0.58030  0.17218  1.0000
  H   H529      1.0  0.87129  0.19101  0.19236  1.0000
  N   N32       1.0  0.89551  0.14531  0.20711  1.0000
  H   H530      1.0  0.98453  0.13451  0.08689  1.0000
  H   H531      1.0  0.07672  0.37865  0.19287  1.0000
  H   H532      1.0  0.06110  0.19294  0.16770  1.0000
  H   H533      1.0  0.87071  0.13067  0.23131  1.0000
  H   H534      1.0  0.04093  0.52713  0.16774  1.0000
  H   H535      1.0  0.94694  0.15286  0.21965  1.0000
  C   C335      1.0  0.99440  0.57132  0.19257  1.0000
  S   S135      1.0  0.80163  0.33162  0.29525  1.0000
  C   C336      1.0  0.03615  0.43844  0.15260  1.0000
  N   N33       1.0  0.05483  0.47127  0.15900  1.0000
  C   C337      1.0  0.98703  0.10272  0.15057  1.0000
  H   H536      1.0  0.84352  0.15167  0.19429  1.0000
  H   H537      1.0  0.02149  0.16514  0.08499  1.0000
  C   C338      1.0  0.99458  0.53816  0.22014  1.0000
  H   H538      1.0  0.03380  0.31885  0.14962  1.0000
  S   S136      1.0  0.98713  0.41706  0.28567  1.0000
  Fe  Fe68      1.0  0.04260  0.42922  0.27632  1.0000
  H   H539      1.0  0.01124  0.51014  0.15139  1.0000
  C   C339      1.0  0.05426  0.57440  0.07094  1.0000
  H   H540      1.0  0.64386  0.35793  0.27900  1.0000
  S   S137      1.0  0.64597  0.28258  0.29265  1.0000
  C   C340      1.0  0.03745  0.09869  0.06889  1.0000
  H   H541      1.0  0.84901  0.18224  0.21254  1.0000
  Fe  Fe69      1.0  0.75467  0.36427  0.28335  1.0000
  C   C341      1.0  0.07502  0.11614  0.09300  1.0000
  S   S138      1.0  0.04026  0.48725  0.28689  1.0000
  C   C342      1.0  0.01256  0.13945  0.09143  1.0000
  H   H542      1.0  0.06452  0.12409  0.26960  1.0000
  C   C343      1.0  0.05675  0.32820  0.15690  1.0000
  C   C344      1.0  0.05182  0.24121  0.09369  1.0000
  C   C345      1.0  0.92186  0.16917  0.21562  1.0000
  H   H543      1.0  0.05739  0.45026  0.18517  1.0000
  H   H544      1.0  0.05590  0.41486  0.14951  1.0000
  C   C346      1.0  0.05661  0.20217  0.11926  1.0000
  C   C347      1.0  0.02782  0.10088  0.18130  1.0000
  H   H545      1.0  0.07230  0.18298  0.12745  1.0000
  H   H546      1.0  0.03870  0.56727  0.08279  1.0000
  C   C348      1.0  0.02771  0.50177  0.16302  1.0000
  H   H547      1.0  0.01704  0.42819  0.16255  1.0000
  H   H548      1.0  0.02010  0.44495  0.14062  1.0000
  C   C349      1.0  0.04072  0.58204  0.21428  1.0000
  N   N34       1.0  0.03786  0.10719  0.08775  1.0000
  C   C350      1.0  0.07232  0.21667  0.10433  1.0000
  C   C351      1.0  0.07543  0.46120  0.17495  1.0000
  H   H549      1.0  0.07621  0.12473  0.10693  1.0000
  H   H550      1.0  0.06544  0.49161  0.13330  1.0000
  C   C352      1.0  0.07863  0.24509  0.19116  1.0000
  S   S139      1.0  0.07601  0.21593  0.05137  1.0000
  H   H551      1.0  0.07809  0.48996  0.22592  1.0000
  H   H552      1.0  0.59159  0.40122  0.27127  1.0000
  C   C353      1.0  0.02556  0.58908  0.19777  1.0000
  S   S140      1.0  0.61787  0.50720  0.44245  1.0000
  S   S141      1.0  0.62869  0.36342  0.38911  1.0000
  H   H553      1.0  0.02934  0.46398  0.33950  1.0000
  C   C354      1.0  0.75992  0.49152  0.52152  1.0000
  S   S142      1.0  0.68892  0.13622  0.45773  1.0000
  C   C355      1.0  0.69982  0.54169  0.51893  1.0000
  S   S143      1.0  0.71692  0.35488  0.30565  1.0000
  Fe  Fe70      1.0  0.75819  0.24412  0.44004  1.0000
  H   H554      1.0  0.65131  0.42591  0.51181  1.0000
  H   H555      1.0  0.85643  0.38894  0.31687  1.0000
  C   C356      1.0  0.67593  0.27177  0.52434  1.0000
  C   C357      1.0  0.64615  0.25057  0.52812  1.0000
  C   C358      1.0  0.61331  0.25699  0.51912  1.0000
  C   C359      1.0  0.61029  0.28413  0.50617  1.0000
  C   C360      1.0  0.64038  0.30467  0.50214  1.0000
  C   C361      1.0  0.67302  0.29890  0.51135  1.0000
  H   H556      1.0  0.63874  0.32450  0.49171  1.0000
  H   H557      1.0  0.69608  0.31506  0.50823  1.0000
  C   C362      1.0  0.73157  0.55293  0.52687  1.0000
  H   H558      1.0  0.07644  0.44453  0.36203  1.0000
  H   H559      1.0  0.65284  0.53672  0.47198  1.0000
  C   C363      1.0  0.69823  0.50579  0.51195  1.0000
  C   C364      1.0  0.72825  0.48057  0.51326  1.0000
  C   C365      1.0  0.64340  0.43584  0.47662  1.0000
  H   H560      1.0  0.66365  0.25956  0.47091  1.0000
  H   H561      1.0  0.62061  0.38881  0.51304  1.0000
  S   S144      1.0  0.74247  0.30426  0.44506  1.0000
  H   H562      1.0  0.67658  0.56090  0.51808  1.0000
  C   C366      1.0  0.73762  0.10000  0.50223  1.0000
  H   H563      1.0  0.04802  0.29963  0.44560  1.0000
  C   C367      1.0  0.71258  0.32212  0.42906  1.0000
  C   C368      1.0  0.69309  0.35600  0.43182  1.0000
  C   C369      1.0  0.66806  0.36947  0.41929  1.0000
  C   C370      1.0  0.66235  0.34895  0.40409  1.0000
  C   C371      1.0  0.68284  0.31584  0.40110  1.0000
  H   H564      1.0  0.64817  0.22972  0.53825  1.0000
  H   H565      1.0  0.69700  0.37167  0.44366  1.0000
  H   H566      1.0  0.65350  0.39591  0.42132  1.0000
  H   H567      1.0  0.67935  0.30053  0.38916  1.0000
  S   S145      1.0  0.72581  0.43577  0.50425  1.0000
  H   H568      1.0  0.83803  0.48927  0.30886  1.0000
  C   C372      1.0  0.73169  0.11697  0.48595  1.0000
  C   C373      1.0  0.76167  0.52780  0.52823  1.0000
  C   C374      1.0  0.78895  0.41859  0.32393  1.0000
  H   H569      1.0  0.67356  0.49763  0.50575  1.0000
  C   C375      1.0  0.62517  0.24712  0.34010  1.0000
  H   H570      1.0  0.72345  0.27698  0.41120  1.0000
  H   H571      1.0  0.07046  0.25454  0.44375  1.0000
  H   H572      1.0  0.61608  0.21828  0.34165  1.0000
  H   H573      1.0  0.61855  0.25593  0.32649  1.0000
  H   H574      1.0  0.58306  0.20413  0.46207  1.0000
  C   C376      1.0  0.66747  0.10676  0.48839  1.0000
  S   S146      1.0  0.06659  0.40904  0.39858  1.0000
  H   H575      1.0  0.86514  0.46154  0.33592  1.0000
  C   C377      1.0  0.62388  0.53784  0.47452  1.0000
  H   H576      1.0  0.01421  0.42283  0.36363  1.0000
  H   H577      1.0  0.62918  0.56290  0.49972  1.0000
  C   C378      1.0  0.59186  0.44958  0.49542  1.0000
  C   C379      1.0  0.81322  0.47389  0.31172  1.0000
  H   H578      1.0  0.79952  0.46876  0.29908  1.0000
  C   C380      1.0  0.02364  0.39855  0.35546  1.0000
  N   N35       1.0  0.61788  0.41997  0.48909  1.0000
  C   C381      1.0  0.67236  0.23698  0.36172  1.0000
  H   H579      1.0  0.64190  0.23109  0.42559  1.0000
  C   C382      1.0  0.84775  0.41520  0.31009  1.0000
  C   C383      1.0  0.66423  0.24405  0.45833  1.0000
  H   H580      1.0  0.67970  0.23236  0.31764  1.0000
  H   H581      1.0  0.60872  0.26557  0.34906  1.0000
  H   H582      1.0  0.76568  0.30618  0.38054  1.0000
  H   H583      1.0  0.70163  0.23953  0.36497  1.0000
  C   C384      1.0  0.61067  0.21209  0.46602  1.0000
  H   H584      1.0  0.84679  0.42049  0.34504  1.0000
  C   C385      1.0  0.69662  0.11974  0.47893  1.0000
  S   S147      1.0  0.71659  0.26443  0.53593  1.0000
  C   C386      1.0  0.07370  0.28470  0.44135  1.0000
  H   H585      1.0  0.59018  0.24139  0.52246  1.0000
  H   H586      1.0  0.07574  0.31068  0.47417  1.0000
  H   H587      1.0  0.99954  0.38870  0.34840  1.0000
  C   C387      1.0  0.67523  0.28776  0.34140  1.0000
  H   H588      1.0  0.62709  0.18570  0.46826  1.0000
  C   C388      1.0  0.70776  0.30241  0.41361  1.0000
  H   H589      1.0  0.01574  0.43045  0.32379  1.0000
  C   C389      1.0  0.68513  0.22425  0.33142  1.0000
  H   H590      1.0  0.67774  0.26145  0.44857  1.0000
  N   N36       1.0  0.66447  0.24903  0.34367  1.0000
  H   H591      1.0  0.64555  0.18790  0.43732  1.0000
  H   H592      1.0  0.06034  0.44773  0.32267  1.0000
  H   H593      1.0  0.61254  0.40328  0.32183  1.0000
  H   H594      1.0  0.75436  0.12685  0.47866  1.0000
  N   N37       1.0  0.62729  0.23526  0.45265  1.0000
  H   H595      1.0  0.71492  0.22519  0.33363  1.0000
  H   H596      1.0  0.66916  0.29802  0.32799  1.0000
  C   C390      1.0  0.61057  0.55284  0.49022  1.0000
  H   H597      1.0  0.77305  0.37501  0.43342  1.0000
  H   H598      1.0  0.66104  0.30710  0.35082  1.0000
  H   H599      1.0  0.76570  0.42462  0.43475  1.0000
  Fe  Fe71      1.0  0.73570  0.16573  0.44676  1.0000
  H   H600      1.0  0.60166  0.20750  0.43146  1.0000
  S   S148      1.0  0.72393  0.20556  0.42496  1.0000
  Fe  Fe72      1.0  0.75033  0.31421  0.53361  1.0000
  C   C391      1.0  0.88007  0.21932  0.39278  1.0000
  C   C392      1.0  0.92463  0.26528  0.38829  1.0000
  S   S149      1.0  0.86719  0.16989  0.46232  1.0000
  H   H601      1.0  0.76928  0.43504  0.33222  1.0000
  H   H602      1.0  0.92996  0.29338  0.38319  1.0000
  S   S150      1.0  0.87656  0.32108  0.51292  1.0000
  Fe  Fe73      1.0  0.97621  0.31900  0.41990  1.0000
  S   S151      1.0  0.92057  0.34705  0.41878  1.0000
  S   S152      1.0  0.99055  0.25995  0.42753  1.0000
  Fe  Fe74      1.0  0.01345  0.38665  0.40681  1.0000
  S   S153      1.0  0.96143  0.42135  0.40502  1.0000
  H   H603      1.0  0.76891  0.24644  0.39651  1.0000
  Fe  Fe75      1.0  0.94801  0.39534  0.43056  1.0000
  S   S154      1.0  0.92032  0.42733  0.45221  1.0000
  Fe  Fe76      1.0  0.93872  0.37020  0.39342  1.0000
  S   S155      1.0  0.90661  0.36767  0.36872  1.0000
  S   S156      1.0  0.00256  0.36562  0.43365  1.0000
  S   S157      1.0  0.99174  0.33741  0.39325  1.0000
  H   H604      1.0  0.81154  0.34144  0.45478  1.0000
  H   H605      1.0  0.86711  0.31356  0.39197  1.0000
  H   H606      1.0  0.75208  0.37043  0.46432  1.0000
  H   H607      1.0  0.78112  0.20874  0.52389  1.0000
  N   N38       1.0  0.82944  0.21719  0.50889  1.0000
  C   C393      1.0  0.92025  0.40320  0.35504  1.0000
  C   C394      1.0  0.92460  0.39659  0.33719  1.0000
  C   C395      1.0  0.93675  0.42468  0.32634  1.0000
  C   C396      1.0  0.94449  0.45942  0.33328  1.0000
  C   C397      1.0  0.93926  0.46622  0.35107  1.0000
  C   C398      1.0  0.92710  0.43819  0.36191  1.0000
  H   H608      1.0  0.91896  0.36966  0.33177  1.0000
  C   C399      1.0  0.03901  0.43903  0.33184  1.0000
  H   H609      1.0  0.94468  0.49321  0.35649  1.0000
  H   H610      1.0  0.92227  0.44405  0.37552  1.0000
  C   C400      1.0  0.89144  0.35105  0.49678  1.0000
  C   C401      1.0  0.88276  0.38928  0.49778  1.0000
  C   C402      1.0  0.89323  0.41285  0.48440  1.0000
  C   C403      1.0  0.91155  0.39815  0.46978  1.0000
  C   C404      1.0  0.92076  0.35996  0.46888  1.0000
  C   C405      1.0  0.91093  0.33646  0.48245  1.0000
  H   H611      1.0  0.86833  0.40079  0.50895  1.0000
  H   H612      1.0  0.88668  0.44246  0.48526  1.0000
  H   H613      1.0  0.93518  0.34843  0.45770  1.0000
  H   H614      1.0  0.91773  0.30689  0.48164  1.0000
  S   S158      1.0  0.78553  0.13913  0.43436  1.0000
  C   C406      1.0  0.82382  0.36816  0.45824  1.0000
  C   C407      1.0  0.90160  0.19602  0.45353  1.0000
  C   C408      1.0  0.89451  0.23320  0.44878  1.0000
  C   C409      1.0  0.92199  0.25343  0.44121  1.0000
  C   C410      1.0  0.95634  0.23631  0.43810  1.0000
  C   C411      1.0  0.96348  0.19933  0.44311  1.0000
  C   C412      1.0  0.93627  0.17933  0.45098  1.0000
  H   H615      1.0  0.86810  0.24660  0.45125  1.0000
  H   H616      1.0  0.91657  0.28221  0.43793  1.0000
  H   H617      1.0  0.99003  0.18599  0.44080  1.0000
  H   H618      1.0  0.94185  0.15062  0.45469  1.0000
  H   H619      1.0  0.86508  0.17060  0.50161  1.0000
  H   H620      1.0  0.61627  0.28771  0.43982  1.0000
  H   H621      1.0  0.93935  0.41958  0.31258  1.0000
  H   H622      1.0  0.87876  0.28867  0.36268  1.0000
  H   H623      1.0  0.87043  0.28333  0.41065  1.0000
  H   H624      1.0  0.04050  0.36606  0.32464  1.0000
  H   H625      1.0  0.83493  0.40718  0.29763  1.0000
  H   H626      1.0  0.87021  0.23615  0.49137  1.0000
  H   H627      1.0  0.67785  0.19478  0.33282  1.0000
  C   C413      1.0  0.76601  0.39652  0.46703  1.0000
  H   H628      1.0  0.79687  0.45999  0.45757  1.0000
  C   C414      1.0  0.83968  0.44661  0.33776  1.0000
  S   S159      1.0  0.80958  0.40071  0.53420  1.0000
  Fe  Fe77      1.0  0.75684  0.39289  0.52030  1.0000
  S   S160      1.0  0.77423  0.32305  0.34456  1.0000
  N   N39       1.0  0.79780  0.40026  0.45557  1.0000
  C   C415      1.0  0.79040  0.22493  0.51254  1.0000
  H   H629      1.0  0.87250  0.43010  0.30668  1.0000
  H   H630      1.0  0.78744  0.24700  0.33267  1.0000
  C   C416      1.0  0.77893  0.21296  0.37369  1.0000
  C   C417      1.0  0.77593  0.28049  0.35552  1.0000
  H   H631      1.0  0.65618  0.25411  0.37130  1.0000
  C   C418      1.0  0.77078  0.28024  0.37355  1.0000
  H   H632      1.0  0.79450  0.49247  0.31957  1.0000
  H   H633      1.0  0.89651  0.19791  0.38533  1.0000
  C   C419      1.0  0.62921  0.21460  0.43598  1.0000
  H   H634      1.0  0.84873  0.37055  0.45018  1.0000
  H   H635      1.0  0.59091  0.44228  0.34687  1.0000
  S   S161      1.0  0.76535  0.20614  0.46290  1.0000
  H   H636      1.0  0.74577  0.42031  0.46550  1.0000
  S   S162      1.0  0.72873  0.36946  0.54330  1.0000
  N   N40       1.0  0.82240  0.43860  0.32088  1.0000
  C   C420      1.0  0.77234  0.24650  0.38259  1.0000
  C   C421      1.0  0.78377  0.21308  0.35562  1.0000
  Fe  Fe78      1.0  0.81459  0.18336  0.44865  1.0000
  C   C422      1.0  0.83600  0.17722  0.50487  1.0000
  N   N41       1.0  0.88592  0.25725  0.38635  1.0000
  H   H637      1.0  0.83405  0.27947  0.39537  1.0000
  C   C423      1.0  0.78595  0.40120  0.43718  1.0000
  H   H638      1.0  0.88772  0.21637  0.40678  1.0000
  S   S163      1.0  0.81031  0.22510  0.42712  1.0000
  H   H639      1.0  0.89257  0.24038  0.35957  1.0000
  C   C424      1.0  0.81540  0.43514  0.45993  1.0000
  C   C425      1.0  0.86342  0.28462  0.39656  1.0000
  C   C426      1.0  0.87565  0.26000  0.36777  1.0000
  H   H640      1.0  0.84368  0.21055  0.53594  1.0000
  Fe  Fe79      1.0  0.77672  0.18300  0.41390  1.0000
  H   H641      1.0  0.85107  0.21233  0.39152  1.0000
  S   S164      1.0  0.77334  0.33690  0.50909  1.0000
  H   H642      1.0  0.84686  0.25338  0.36580  1.0000
  H   H643      1.0  0.66606  0.20737  0.36374  1.0000
  H   H644      1.0  0.93313  0.26439  0.40219  1.0000
  H   H645      1.0  0.94260  0.24473  0.38111  1.0000
  H   H646      1.0  0.07583  0.28836  0.42703  1.0000
  H   H647      1.0  0.60612  0.47277  0.50167  1.0000
  H   H648      1.0  0.76484  0.09711  0.50751  1.0000
  H   H649      1.0  0.79514  0.39154  0.33054  1.0000
  C   C427      1.0  0.60506  0.27023  0.45029  1.0000
  C   C428      1.0  0.84044  0.23963  0.49386  1.0000
  H   H650      1.0  0.78450  0.25483  0.51563  1.0000
  H   H651      1.0  0.82336  0.43587  0.47391  1.0000
  C   C429      1.0  0.85098  0.22703  0.52434  1.0000
  H   H652      1.0  0.66078  0.38405  0.49976  1.0000
  Fe  Fe80      1.0  0.82402  0.34261  0.52489  1.0000
  C   C430      1.0  0.59995  0.52451  0.46211  1.0000
  H   H653      1.0  0.88066  0.22230  0.52193  1.0000
  H   H654      1.0  0.70486  0.29007  0.34348  1.0000
  H   H655      1.0  0.78635  0.53637  0.53437  1.0000
  H   H656      1.0  0.77502  0.41247  0.31145  1.0000
  S   S165      1.0  0.78233  0.17121  0.38529  1.0000
  H   H657      1.0  0.78928  0.18713  0.34870  1.0000
  H   H658      1.0  0.66459  0.41473  0.47225  1.0000
  S   S166      1.0  0.96091  0.49471  0.32017  1.0000
  H   H659      1.0  0.81973  0.16878  0.49340  1.0000
  C   C431      1.0  0.78241  0.24691  0.34653  1.0000
  Fe  Fe81      1.0  0.76240  0.31788  0.31605  1.0000
  H   H660      1.0  0.84636  0.25695  0.52779  1.0000
  H   H661      1.0  0.77316  0.21791  0.50122  1.0000
  H   H662      1.0  0.83382  0.26978  0.49600  1.0000
  H   H663      1.0  0.77429  0.39579  0.48096  1.0000
  H   H664      1.0  0.82656  0.23145  0.48172  1.0000
  H   H665      1.0  0.83260  0.36606  0.47207  1.0000
  H   H666      1.0  0.84049  0.43832  0.45208  1.0000
  H   H667      1.0  0.03337  0.37617  0.36454  1.0000
  C   C432      1.0  0.63841  0.40389  0.50406  1.0000
  H   H668      1.0  0.82857  0.15944  0.51601  1.0000
  H   H669      1.0  0.80938  0.40458  0.42826  1.0000
  H   H670      1.0  0.06537  0.32890  0.39796  1.0000
  H   H671      1.0  0.82138  0.46426  0.34624  1.0000
  N   N42       1.0  0.05264  0.40848  0.34327  1.0000
  H   H672      1.0  0.78342  0.47249  0.52236  1.0000
  S   S167      1.0  0.74499  0.26658  0.30263  1.0000
  C   C433      1.0  0.59773  0.39078  0.48021  1.0000
  H   H673      1.0  0.65787  0.45924  0.48248  1.0000
  H   H674      1.0  0.68166  0.21827  0.46032  1.0000
  H   H675      1.0  0.64032  0.11004  0.48315  1.0000
  H   H676      1.0  0.60839  0.22697  0.47872  1.0000
  C   C434      1.0  0.06371  0.37573  0.33248  1.0000
  H   H677      1.0  0.61029  0.37643  0.35177  1.0000
  H   H678      1.0  0.62902  0.44658  0.46481  1.0000
  H   H679      1.0  0.61651  0.36994  0.47373  1.0000
  S   S168      1.0  0.59753  0.46818  0.39752  1.0000
  H   H680      1.0  0.60424  0.28722  0.46241  1.0000
  H   H681      1.0  0.07410  0.35202  0.34065  1.0000
  Fe  Fe82      1.0  0.59147  0.40730  0.40144  1.0000
  C   C435      1.0  0.58199  0.36872  0.34887  1.0000
  Fe  Fe83      1.0  0.58195  0.47335  0.42572  1.0000
  H   H682      1.0  0.58326  0.33989  0.34359  1.0000
  H   H683      1.0  0.58566  0.36639  0.31406  1.0000
  C   C436      1.0  0.58418  0.39470  0.31997  1.0000
  S   S169      1.0  0.80230  0.31498  0.54853  1.0000
  S   S170      1.0  0.78562  0.38889  0.58460  1.0000
  H   H684      1.0  0.69363  0.26615  0.59016  1.0000
  Fe  Fe84      1.0  0.62525  0.22097  0.61849  1.0000
  S   S171      1.0  0.68555  0.21121  0.62019  1.0000
  N   N43       1.0  0.62043  0.28739  0.69906  1.0000
  C   C437      1.0  0.64917  0.12209  0.55668  1.0000
  S   S172      1.0  0.67335  0.18735  0.66066  1.0000
  Fe  Fe85      1.0  0.67987  0.24019  0.64590  1.0000
  S   S173      1.0  0.71952  0.28209  0.65437  1.0000
  Fe  Fe86      1.0  0.67279  0.15931  0.63453  1.0000
  H   H685      1.0  0.60963  0.31126  0.67384  1.0000
  S   S174      1.0  0.62037  0.25384  0.64331  1.0000
  H   H686      1.0  0.72084  0.56585  0.72753  1.0000
  Fe  Fe87      1.0  0.64524  0.51318  0.63021  1.0000
  C   C438      1.0  0.72235  0.56360  0.58056  1.0000
  S   S175      1.0  0.60371  0.47808  0.64245  1.0000
  S   S176      1.0  0.61086  0.53177  0.67710  1.0000
  H   H687      1.0  0.66260  0.36143  0.57711  1.0000
  Fe  Fe88      1.0  0.63964  0.48065  0.66604  1.0000
  S   S177      1.0  0.65596  0.43499  0.68478  1.0000
  C   C439      1.0  0.60018  0.26947  0.71308  1.0000
  H   H688      1.0  0.69387  0.11290  0.66411  1.0000
  H   H689      1.0  0.76536  0.52824  0.70948  1.0000
  S   S178      1.0  0.61839  0.56766  0.63821  1.0000
  C   C440      1.0  0.70205  0.32580  0.66156  1.0000
  C   C441      1.0  0.66876  0.34125  0.65550  1.0000
  C   C442      1.0  0.65526  0.37599  0.66186  1.0000
  C   C443      1.0  0.67460  0.39464  0.67465  1.0000
  C   C444      1.0  0.70773  0.37903  0.68072  1.0000
  C   C445      1.0  0.72172  0.34507  0.67396  1.0000
  H   H690      1.0  0.65344  0.32645  0.64598  1.0000
  H   H691      1.0  0.62939  0.38778  0.65730  1.0000
  H   H692      1.0  0.71820  0.34706  0.61735  1.0000
  C   C446      1.0  0.71260  0.45525  0.61076  1.0000
  C   C447      1.0  0.65473  0.32135  0.60643  1.0000
  S   S179      1.0  0.65830  0.50671  0.60181  1.0000
  Fe  Fe89      1.0  0.78282  0.37250  0.55644  1.0000
  H   H693      1.0  0.58909  0.54348  0.60054  1.0000
  Fe  Fe90      1.0  0.61375  0.19846  0.65595  1.0000
  H   H694      1.0  0.73057  0.53891  0.58858  1.0000
  H   H695      1.0  0.74749  0.33324  0.67864  1.0000
  C   C448      1.0  0.68567  0.36024  0.58648  1.0000
  N   N44       1.0  0.68806  0.32467  0.59602  1.0000
  C   C449      1.0  0.64951  0.26114  0.69256  1.0000
  H   H696      1.0  0.70612  0.54896  0.69705  1.0000
  H   H697      1.0  0.58733  0.24398  0.70823  1.0000
  H   H698      1.0  0.66790  0.29302  0.57449  1.0000
  H   H699      1.0  0.72447  0.53062  0.74403  1.0000
  H   H700      1.0  0.74573  0.32650  0.60029  1.0000
  H   H701      1.0  0.72264  0.29738  0.61522  1.0000
  H   H702      1.0  0.72266  0.39317  0.69068  1.0000
  H   H703      1.0  0.68085  0.54515  0.73541  1.0000
  C   C450      1.0  0.70448  0.46780  0.58000  1.0000
  Fe  Fe91      1.0  0.65209  0.56287  0.66235  1.0000
  H   H704      1.0  0.70451  0.45989  0.62414  1.0000
  H   H705      1.0  0.74282  0.56564  0.56998  1.0000
  C   C451      1.0  0.73353  0.44256  0.57610  1.0000
  C   C452      1.0  0.69174  0.29348  0.58343  1.0000
  S   S180      1.0  0.61254  0.16669  0.63073  1.0000
  C   C453      1.0  0.69400  0.47416  0.59731  1.0000
  C   C454      1.0  0.72002  0.32382  0.60772  1.0000
  H   H706      1.0  0.70093  0.45307  0.71438  1.0000
  C   C455      1.0  0.75197  0.42338  0.58951  1.0000
  H   H707      1.0  0.66938  0.13562  0.54833  1.0000
  H   H708      1.0  0.64676  0.17061  0.58357  1.0000
  H   H709      1.0  0.65269  0.33482  0.69563  1.0000
  H   H710      1.0  0.63014  0.32137  0.59799  1.0000
  C   C456      1.0  0.69453  0.52331  0.70230  1.0000
  H   H711      1.0  0.76264  0.57954  0.60846  1.0000
  H   H712      1.0  0.69031  0.48255  0.56955  1.0000
  H   H713      1.0  0.65090  0.34479  0.61584  1.0000
  H   H714      1.0  0.62383  0.14039  0.55679  1.0000
  H   H715      1.0  0.69621  0.50187  0.69181  1.0000
  H   H716      1.0  0.69739  0.57056  0.61351  1.0000
  S   S181      1.0  0.68347  0.51157  0.65296  1.0000
  H   H717      1.0  0.65570  0.31453  0.71687  1.0000
  H   H718      1.0  0.63823  0.23487  0.68781  1.0000
  C   C457      1.0  0.74169  0.42993  0.60686  1.0000
  H   H719      1.0  0.75632  0.48117  0.70371  1.0000
  N   N45       1.0  0.71374  0.51019  0.71818  1.0000
  H   H720      1.0  0.58248  0.27289  0.67915  1.0000
  H   H721      1.0  0.61018  0.11496  0.58600  1.0000
  H   H722      1.0  0.76803  0.49247  0.72580  1.0000
  C   C458      1.0  0.70988  0.53912  0.73188  1.0000
  H   H723      1.0  0.66522  0.52981  0.70496  1.0000
  H   H724      1.0  0.65573  0.29495  0.61393  1.0000
  H   H725      1.0  0.66811  0.48016  0.72683  1.0000
  C   C459      1.0  0.69780  0.47568  0.72431  1.0000
  H   H726      1.0  0.66968  0.25352  0.70289  1.0000
  H   H727      1.0  0.71646  0.29540  0.57518  1.0000
  H   H728      1.0  0.71093  0.36411  0.57899  1.0000
  H   H729      1.0  0.66456  0.27310  0.68153  1.0000
  S   S182      1.0  0.69926  0.10409  0.62658  1.0000
  H   H730      1.0  0.71091  0.46540  0.73655  1.0000
  H   H731      1.0  0.74174  0.43809  0.56271  1.0000
  C   C460      1.0  0.75263  0.50266  0.71414  1.0000
  H   H732      1.0  0.75581  0.41492  0.61723  1.0000
  H   H733      1.0  0.68200  0.38441  0.59551  1.0000
  C   C461      1.0  0.63679  0.32118  0.70589  1.0000
  C   C462      1.0  0.67155  0.15175  0.58249  1.0000
  C   C463      1.0  0.59526  0.29776  0.68467  1.0000
  H   H734      1.0  0.69186  0.16645  0.57471  1.0000
  H   H735      1.0  0.71818  0.10391  0.56572  1.0000
  H   H736      1.0  0.61839  0.26078  0.72406  1.0000
  H   H737      1.0  0.68283  0.14782  0.59584  1.0000
  N   N46       1.0  0.66335  0.11569  0.57451  1.0000
  H   H738      1.0  0.61567  0.34207  0.71056  1.0000
  H   H739      1.0  0.69599  0.55783  0.57424  1.0000
  S   S183      1.0  0.60612  0.24622  0.59330  1.0000
  H   H740      1.0  0.58097  0.25729  0.55857  1.0000
  H   H741      1.0  0.66403  0.58964  0.59855  1.0000
  C   C464      1.0  0.63590  0.09754  0.58514  1.0000
  H   H742      1.0  0.64295  0.09550  0.55018  1.0000
  H   H743      1.0  0.64578  0.09265  0.59871  1.0000
  Fe  Fe92      1.0  0.00780  0.10603  0.93135  1.0000
  C   C465      1.0  0.03776  0.11349  0.99295  1.0000
  C   C466      1.0  0.02607  0.11979  0.97577  1.0000
  C   C467      1.0  0.06290  0.13653  0.00059  1.0000
  C   C468      1.0  0.04194  0.26049  0.99941  1.0000
  H   H744      1.0  0.00391  0.19828  0.99661  1.0000
  S   S184      1.0  0.02598  0.15741  0.94471  1.0000
  H   H745      1.0  0.07958  0.39353  0.02633  1.0000
  H   H746      1.0  0.97198  0.27151  0.02816  1.0000
  S   S185      1.0  0.06355  0.55566  0.02314  1.0000
  C   C469      1.0  0.99961  0.27492  0.02274  1.0000
  H   H747      1.0  0.00588  0.10262  0.97009  1.0000
  H   H748      1.0  0.97394  0.20887  0.01456  1.0000
  H   H749      1.0  0.00328  0.30528  0.02112  1.0000
  C   C470      1.0  0.00103  0.21435  0.00900  1.0000
  H   H750      1.0  0.02204  0.20261  0.01818  1.0000
  N   N47       1.0  0.00509  0.25454  0.00611  1.0000
  H   H751      1.0  0.06317  0.24974  0.00865  1.0000
  H   H752      1.0  0.04685  0.24622  0.98669  1.0000
  C   C471      1.0  0.03960  0.14909  0.96622  1.0000
  H   H753      1.0  0.01967  0.26499  0.03275  1.0000
  C   C472      1.0  0.97783  0.26845  0.99325  1.0000
  H   H754      1.0  0.04640  0.29063  0.99757  1.0000
  H   H755      1.0  0.98131  0.25363  0.98053  1.0000
  H   H756      1.0  0.98026  0.29871  0.99076  1.0000
  H   H757      1.0  0.94966  0.26441  0.99785  1.0000
  C   C473      1.0  0.06481  0.17194  0.97382  1.0000
  S   S186      1.0  0.07588  0.12958  0.02234  1.0000
  C   C474      1.0  0.07664  0.16546  0.99091  1.0000
  H   H758      1.0  0.07561  0.19437  0.96638  1.0000
  S   S187      1.0  0.95024  0.09374  0.92470  1.0000
  S   S188      1.0  0.02997  0.09248  0.90477  1.0000
  H   H759      1.0  0.03828  0.78955  0.09790  1.0000
  H   H760      1.0  0.04464  0.04961  0.09505  1.0000
  Fe  Fe93      1.0  0.00149  0.64378  0.11710  1.0000
  C   C475      1.0  0.05954  0.85650  0.14377  1.0000
  S   S189      1.0  0.96655  0.66494  0.13922  1.0000
  Fe  Fe94      1.0  0.99932  0.62282  0.15513  1.0000
  S   S190      1.0  0.04430  0.68486  0.12099  1.0000
  H   H761      1.0  0.94659  0.86443  0.08864  1.0000
  S   S191      1.0  0.98530  0.63147  0.08973  1.0000
  S   S192      1.0  0.00487  0.03050  0.14191  1.0000
  H   H762      1.0  0.06321  0.62210  0.09734  1.0000
  C   C476      1.0  0.00818  0.79376  0.09790  1.0000
  C   C477      1.0  0.03710  0.79396  0.14489  1.0000
  H   H763      1.0  0.00430  0.88840  0.09967  1.0000
  S   S193      1.0  0.06550  0.96704  0.11295  1.0000
  H   H764      1.0  0.04287  0.85695  0.10330  1.0000
  C   C478      1.0  0.01264  0.85947  0.10360  1.0000
  H   H765      1.0  0.04470  0.04479  0.17362  1.0000
  S   S194      1.0  0.93645  0.78069  0.05176  1.0000
  C   C479      1.0  0.00878  0.83717  0.07399  1.0000
  H   H766      1.0  0.06788  0.75274  0.13004  1.0000
  C   C480      1.0  0.94863  0.73858  0.06209  1.0000
  C   C481      1.0  0.93742  0.73241  0.07922  1.0000
  C   C482      1.0  0.94922  0.69976  0.08790  1.0000
  C   C483      1.0  0.97083  0.67259  0.07918  1.0000
  C   C484      1.0  0.98139  0.67847  0.06195  1.0000
  H   H767      1.0  0.01248  0.84140  0.15842  1.0000
  H   H768      1.0  0.91990  0.75290  0.08584  1.0000
  H   H769      1.0  0.94079  0.69513  0.10119  1.0000
  H   H770      1.0  0.99734  0.81639  0.06503  1.0000
  C   C485      1.0  0.97077  0.71171  0.05350  1.0000
  H   H771      1.0  0.99807  0.65749  0.05522  1.0000
  H   H772      1.0  0.06434  0.59645  0.21840  1.0000
  H   H773      1.0  0.03765  0.60866  0.18923  1.0000
  N   N48       1.0  0.99654  0.83166  0.09210  1.0000
  S   S195      1.0  0.04167  0.66265  0.16267  1.0000
  S   S196      1.0  0.00455  0.76340  0.15209  1.0000
  C   C486      1.0  0.03433  0.83153  0.14990  1.0000
  H   H774      1.0  0.00000  0.86523  0.06904  1.0000
  C   C487      1.0  0.02867  0.06972  0.17017  1.0000
  H   H775      1.0  0.99842  0.78816  0.11134  1.0000
  Fe  Fe95      1.0  0.06007  0.00456  0.13625  1.0000
  H   H776      1.0  0.99723  0.77213  0.08921  1.0000
  H   H777      1.0  0.03890  0.83417  0.07287  1.0000
  H   H778      1.0  0.94340  0.81574  0.08443  1.0000
  H   H779      1.0  0.94637  0.83196  0.10644  1.0000
  H   H780      1.0  0.05683  0.07496  0.06561  1.0000
  Fe  Fe96      1.0  0.01228  0.70274  0.14459  1.0000
  C   C488      1.0  0.02652  0.07465  0.09772  1.0000
  S   S197      1.0  0.03063  0.59880  0.13241  1.0000
  H   H781      1.0  0.05711  0.88555  0.14754  1.0000
  C   C489      1.0  0.95648  0.83623  0.09296  1.0000
  C   C490      1.0  0.06543  0.78143  0.13395  1.0000
  C   C491      1.0  0.00747  0.07033  0.15503  1.0000
  H   H782      1.0  0.00399  0.85598  0.11736  1.0000
  Fe  Fe97      1.0  0.07016  0.64188  0.13854  1.0000
  H   H783      1.0  0.99830  0.06752  0.09444  1.0000
  H   H784      1.0  0.05930  0.64731  0.07730  1.0000
  H   H785      1.0  0.03561  0.59214  0.06266  1.0000
  H   H786      1.0  0.02743  0.07994  0.11203  1.0000
  C   C492      1.0  0.07770  0.62832  0.08509  1.0000
  H   H787      1.0  0.01004  0.09123  0.06444  1.0000
  Fe  Fe98      1.0  0.62598  0.69009  0.52318  1.0000
  H   H788      1.0  0.69242  0.02601  0.43154  1.0000
  Fe  Fe99      1.0  0.67705  0.62525  0.53357  1.0000
  Fe  Fe100     1.0  0.68054  0.92805  0.53035  1.0000
  C   C493      1.0  0.59596  0.69353  0.47006  1.0000
  C   C494      1.0  0.69770  0.80107  0.52627  1.0000
  H   H789      1.0  0.61646  0.68737  0.48045  1.0000
  S   S198      1.0  0.64347  0.63693  0.50960  1.0000
  H   H790      1.0  0.61730  0.62112  0.47195  1.0000
  Fe  Fe101     1.0  0.68019  0.01264  0.53265  1.0000
  S   S199      1.0  0.67164  0.97311  0.51052  1.0000
  H   H791      1.0  0.70942  0.04784  0.46120  1.0000
  Fe  Fe102     1.0  0.61410  0.97534  0.52020  1.0000
  C   C495      1.0  0.68641  0.83781  0.52235  1.0000
  S   S200      1.0  0.71377  0.87433  0.52824  1.0000
  S   S201      1.0  0.62174  0.01839  0.54102  1.0000
  C   C496      1.0  0.63882  0.04764  0.45350  1.0000
  H   H792      1.0  0.62848  0.05709  0.46642  1.0000
  H   H793      1.0  0.71512  0.99980  0.46763  1.0000
  H   H794      1.0  0.60517  0.82179  0.50328  1.0000
  C   C497      1.0  0.64195  0.77923  0.51387  1.0000
  C   C498      1.0  0.67540  0.77180  0.52210  1.0000
  H   H795      1.0  0.77537  0.91756  0.53894  1.0000
  C   C499      1.0  0.65301  0.84523  0.51409  1.0000
  C   C500      1.0  0.63092  0.81595  0.50976  1.0000
  H   H796      1.0  0.65484  0.99647  0.42892  1.0000
  H   H797      1.0  0.64445  0.87346  0.51070  1.0000
  H   H798      1.0  0.61479  0.04185  0.44533  1.0000
  H   H799      1.0  0.62072  0.97650  0.45512  1.0000
  S   S202      1.0  0.71676  0.06043  0.53058  1.0000
  H   H800      1.0  0.68579  0.03137  0.47981  1.0000
  H   H801      1.0  0.72368  0.79518  0.53251  1.0000
  N   N49       1.0  0.66401  0.01460  0.45518  1.0000
  H   H802      1.0  0.66267  0.95838  0.46464  1.0000
  C   C501      1.0  0.69499  0.02375  0.46641  1.0000
  C   C502      1.0  0.70864  0.08513  0.51123  1.0000
  H   H803      1.0  0.68452  0.74347  0.52489  1.0000
  H   H804      1.0  0.61105  0.70148  0.45821  1.0000
  Fe  Fe103     1.0  0.59852  0.61236  0.52484  1.0000
  S   S203      1.0  0.62230  0.92697  0.53821  1.0000
  C   C503      1.0  0.64459  0.98387  0.46309  1.0000
  C   C504      1.0  0.67758  0.00329  0.43775  1.0000
  H   H805      1.0  0.69662  0.97832  0.43849  1.0000
  H   H806      1.0  0.58120  0.60395  0.45899  1.0000
  H   H807      1.0  0.63407  0.99170  0.47626  1.0000
  S   S204      1.0  0.61340  0.74321  0.50868  1.0000
  H   H808      1.0  0.65094  0.07806  0.51145  1.0000
  H   H809      1.0  0.79333  0.87044  0.53823  1.0000
  H   H810      1.0  0.58965  0.04898  0.50874  1.0000
  C   C505      1.0  0.67348  0.08891  0.50440  1.0000
  H   H811      1.0  0.65232  0.07149  0.44755  1.0000
  C   C506      1.0  0.59723  0.62881  0.46157  1.0000
  S   S205      1.0  0.73315  0.59845  0.53503  1.0000
  C   C507      1.0  0.79680  0.89805  0.54446  1.0000
  H   H812      1.0  0.82362  0.90792  0.54038  1.0000
  S   S206      1.0  0.66442  0.68126  0.54558  1.0000
  H   H813      1.0  0.61285  0.63434  0.44953  1.0000
  H   H814      1.0  0.72218  0.96582  0.76339  1.0000
  S   S207      1.0  0.70412  0.81306  0.68614  1.0000
  H   H815      1.0  0.78823  0.94439  0.76450  1.0000
  C   C508      1.0  0.60895  0.86976  0.69575  1.0000
  C   C509      1.0  0.71189  0.06028  0.67498  1.0000
  H   H816      1.0  0.58537  0.73722  0.68323  1.0000
  H   H817      1.0  0.60317  0.82126  0.54591  1.0000
  Fe  Fe104     1.0  0.68020  0.67656  0.76807  1.0000
  C   C510      1.0  0.72493  0.95459  0.60102  1.0000
  S   S208      1.0  0.67205  0.73134  0.75466  1.0000
  S   S209      1.0  0.61515  0.93252  0.73918  1.0000
  C   C511      1.0  0.70370  0.08490  0.66125  1.0000
  H   H818      1.0  0.61395  0.79920  0.71945  1.0000
  C   C512      1.0  0.64215  0.61018  0.72166  1.0000
  C   C513      1.0  0.62972  0.83178  0.76154  1.0000
  C   C514      1.0  0.63623  0.86565  0.75350  1.0000
  C   C515      1.0  0.60726  0.88803  0.74705  1.0000
  C   C516      1.0  0.60008  0.97617  0.69262  1.0000
  C   C517      1.0  0.69599  0.64602  0.72230  1.0000
  H   H819      1.0  0.65228  0.81496  0.76663  1.0000
  H   H820      1.0  0.66358  0.87488  0.75269  1.0000
  S   S210      1.0  0.73130  0.69144  0.78183  1.0000
  C   C518      1.0  0.60002  0.77376  0.72333  1.0000
  C   C519      1.0  0.58559  0.71094  0.71576  1.0000
  C   C520      1.0  0.66274  0.91567  0.60798  1.0000
  H   H821      1.0  0.59198  0.84279  0.65413  1.0000
  C   C521      1.0  0.60574  0.80492  0.55818  1.0000
  C   C522      1.0  0.59414  0.82046  0.76336  1.0000
  H   H822      1.0  0.77414  0.89867  0.77014  1.0000
  C   C523      1.0  0.60639  0.84562  0.66630  1.0000
  C   C524      1.0  0.69089  0.59440  0.60464  1.0000
  H   H823      1.0  0.79712  0.93264  0.58564  1.0000
  C   C525      1.0  0.65279  0.84345  0.56885  1.0000
  C   C526      1.0  0.64414  0.85360  0.69763  1.0000
  C   C527      1.0  0.66025  0.83318  0.68389  1.0000
  C   C528      1.0  0.64161  0.82959  0.66815  1.0000
  H   H824      1.0  0.70826  0.06955  0.68832  1.0000
  C   C529      1.0  0.64438  0.60783  0.70349  1.0000
  H   H825      1.0  0.65867  0.85682  0.70976  1.0000
  H   H826      1.0  0.65432  0.81430  0.65743  1.0000
  C   C530      1.0  0.69661  0.90291  0.61467  1.0000
  C   C531      1.0  0.69872  0.64281  0.70408  1.0000
  H   H827      1.0  0.72510  0.02744  0.62713  1.0000
  H   H828      1.0  0.68909  0.99263  0.58683  1.0000
  S   S211      1.0  0.66969  0.62369  0.75381  1.0000
  H   H829      1.0  0.85035  0.88034  0.56741  1.0000
  C   C532      1.0  0.75810  0.88175  0.56833  1.0000
  H   H830      1.0  0.59584  0.98878  0.64880  1.0000
  C   C533      1.0  0.78448  0.74107  0.71680  1.0000
  Fe  Fe105     1.0  0.73997  0.85586  0.67582  1.0000
  C   C534      1.0  0.70865  0.07332  0.64396  1.0000
  C   C535      1.0  0.72452  0.02371  0.67148  1.0000
  H   H831      1.0  0.62933  0.07003  0.57960  1.0000
  C   C536      1.0  0.58997  0.86547  0.68014  1.0000
  Fe  Fe106     1.0  0.71932  0.74838  0.77060  1.0000
  C   C537      1.0  0.70973  0.62999  0.58001  1.0000
  H   H832      1.0  0.77667  0.60607  0.59009  1.0000
  C   C538      1.0  0.58986  0.85919  0.57574  1.0000
  N   N50       1.0  0.61456  0.98515  0.67529  1.0000
  H   H833      1.0  0.59789  0.87775  0.58658  1.0000
  H   H834      1.0  0.82117  0.86839  0.58505  1.0000
  S   S212      1.0  0.76856  0.88990  0.69524  1.0000
  Fe  Fe107     1.0  0.63626  0.96937  0.55813  1.0000
  H   H835      1.0  0.63982  0.78103  0.58710  1.0000
  H   H836      1.0  0.72120  0.65455  0.69733  1.0000
  H   H837      1.0  0.78434  0.74113  0.78879  1.0000
  H   H838      1.0  0.75393  0.85430  0.56211  1.0000
  N   N51       1.0  0.60304  0.74466  0.70968  1.0000
  S   S213      1.0  0.58578  0.77977  0.77479  1.0000
  H   H839      1.0  0.70665  0.65633  0.58762  1.0000
  C   C539      1.0  0.62040  0.80546  0.58888  1.0000
  H   H840      1.0  0.69873  0.87773  0.62235  1.0000
  S   S214      1.0  0.73309  0.99259  0.68875  1.0000
  H   H841      1.0  0.66671  0.95870  0.68093  1.0000
  H   H842      1.0  0.73890  0.98372  0.65132  1.0000
  H   H843      1.0  0.77447  0.95295  0.56703  1.0000
  H   H844      1.0  0.63969  0.03085  0.66288  1.0000
  C   C540      1.0  0.82298  0.87048  0.57057  1.0000
  H   H845      1.0  0.62050  0.59699  0.72844  1.0000
  C   C541      1.0  0.77964  0.91746  0.75906  1.0000
  H   H846      1.0  0.78411  0.74073  0.73130  1.0000
  Fe  Fe108     1.0  0.75447  0.93803  0.67790  1.0000
  C   C542      1.0  0.66031  0.94714  0.59727  1.0000
  N   N52       1.0  0.61721  0.82825  0.57291  1.0000
  H   H847      1.0  0.75338  0.62907  0.60806  1.0000
  C   C543      1.0  0.72129  0.03668  0.64046  1.0000
  C   C544      1.0  0.66846  0.62840  0.73112  1.0000
  C   C545      1.0  0.72789  0.92186  0.61078  1.0000
  H   H848      1.0  0.82312  0.94568  0.56721  1.0000
  H   H849      1.0  0.63880  0.90037  0.61055  1.0000
  H   H850      1.0  0.73536  0.90103  0.56406  1.0000
  H   H851      1.0  0.61215  0.76387  0.73581  1.0000
  S   S215      1.0  0.69538  0.96724  0.55144  1.0000
  H   H852      1.0  0.70883  0.91955  0.76828  1.0000
  C   C546      1.0  0.80864  0.76873  0.69094  1.0000
  C   C547      1.0  0.06587  0.88069  0.75829  1.0000
  S   S216      1.0  0.62017  0.95857  0.58574  1.0000
  Fe  Fe109     1.0  0.63886  0.74766  0.77806  1.0000
  H   H853      1.0  0.59374  0.79455  0.59264  1.0000
  S   S217      1.0  0.61228  0.66029  0.58685  1.0000
  C   C548      1.0  0.58559  0.98265  0.66207  1.0000
  H   H854      1.0  0.65595  0.76019  0.70147  1.0000
  H   H855      1.0  0.63570  0.92940  0.67018  1.0000
  N   N53       1.0  0.74766  0.92269  0.74750  1.0000
  H   H856      1.0  0.62388  0.59393  0.69632  1.0000
  H   H857      1.0  0.73199  0.86619  0.75046  1.0000
  C   C549      1.0  0.79726  0.93346  0.57117  1.0000
  C   C550      1.0  0.69119  0.96728  0.59435  1.0000
  N   N54       1.0  0.79378  0.89594  0.56363  1.0000
  S   S218      1.0  0.72043  0.90496  0.66008  1.0000
  C   C551      1.0  0.72912  0.01189  0.65419  1.0000
  H   H858      1.0  0.60528  0.04429  0.67860  1.0000
  C   C552      1.0  0.83788  0.75814  0.79491  1.0000
  C   C553      1.0  0.73862  0.88632  0.74008  1.0000
  H   H859      1.0  0.80349  0.90477  0.75192  1.0000
  C   C554      1.0  0.71629  0.93842  0.75754  1.0000
  H   H860      1.0  0.71644  0.66006  0.72959  1.0000
  C   C555      1.0  0.67364  0.62246  0.69474  1.0000
  H   H861      1.0  0.78089  0.77462  0.68547  1.0000
  S   S219      1.0  0.68140  0.61214  0.67262  1.0000
  H   H862      1.0  0.70843  0.08642  0.58708  1.0000
  H   H863      1.0  0.84603  0.76420  0.73146  1.0000
  H   H864      1.0  0.81880  0.74109  0.68595  1.0000
  H   H865      1.0  0.76268  0.97635  0.73834  1.0000
  H   H866      1.0  0.82660  0.78994  0.68557  1.0000
  H   H867      1.0  0.05279  0.87908  0.74570  1.0000
  H   H868      1.0  0.69182  0.94284  0.74909  1.0000
  H   H869      1.0  0.03915  0.82300  0.79560  1.0000
  S   S220      1.0  0.63358  0.59618  0.54768  1.0000
  H   H870      1.0  0.75586  0.74631  0.71236  1.0000
  Fe  Fe110     1.0  0.61864  0.65304  0.55808  1.0000
  C   C556      1.0  0.04551  0.89212  0.77298  1.0000
  S   S221      1.0  0.86751  0.85824  0.69148  1.0000
  Fe  Fe111     1.0  0.90723  0.91603  0.78462  1.0000
  S   S222      1.0  0.95008  0.86952  0.78201  1.0000
  S   S223      1.0  0.87665  0.94529  0.76288  1.0000
  H   H871      1.0  0.71487  0.88913  0.73109  1.0000
  H   H872      1.0  0.01688  0.89948  0.77163  1.0000
  H   H873      1.0  0.82120  0.84190  0.56514  1.0000
  C   C557      1.0  0.79399  0.80684  0.71604  1.0000
  H   H874      1.0  0.65740  0.96506  0.65817  1.0000
  H   H875      1.0  0.76547  0.81265  0.71163  1.0000
  H   H876      1.0  0.85726  0.73536  0.71282  1.0000
  H   H877      1.0  0.68344  0.62621  0.57332  1.0000
  Fe  Fe112     1.0  0.77245  0.89490  0.64543  1.0000
  H   H878      1.0  0.62566  0.78119  0.55566  1.0000
  H   H879      1.0  0.76189  0.87357  0.73263  1.0000
  H   H880      1.0  0.79381  0.71279  0.71229  1.0000
  H   H881      1.0  0.81086  0.82916  0.71102  1.0000
  H   H882      1.0  0.59619  0.88490  0.70652  1.0000
  H   H883      1.0  0.69168  0.06379  0.56798  1.0000
  C   C558      1.0  0.75606  0.94848  0.73326  1.0000
  N   N55       1.0  0.80817  0.76983  0.71018  1.0000
  S   S224      1.0  0.78878  0.84200  0.65937  1.0000
  H   H884      1.0  0.64902  0.02610  0.68575  1.0000
  H   H885      1.0  0.79440  0.80915  0.73042  1.0000
  C   C559      1.0  0.80531  0.75959  0.78542  1.0000
  C   C560      1.0  0.79997  0.78506  0.77182  1.0000
  C   C561      1.0  0.82710  0.80957  0.76789  1.0000
  C   C562      1.0  0.85932  0.80868  0.77761  1.0000
  H   H886      1.0  0.77986  0.93787  0.72551  1.0000
  H   H887      1.0  0.68741  0.62000  0.61278  1.0000
  H   H888      1.0  0.82316  0.82962  0.75752  1.0000
  H   H889      1.0  0.88001  0.82795  0.77463  1.0000
  Fe  Fe113     1.0  0.81675  0.87947  0.67792  1.0000
  H   H890      1.0  0.73275  0.95269  0.72408  1.0000
  C   C563      1.0  0.87145  0.88278  0.71113  1.0000
  C   C564      1.0  0.89016  0.86630  0.72522  1.0000
  C   C565      1.0  0.89189  0.88527  0.74119  1.0000
  C   C566      1.0  0.87566  0.92107  0.74298  1.0000
  C   C567      1.0  0.85718  0.93758  0.72883  1.0000
  C   C568      1.0  0.85473  0.91833  0.71299  1.0000
  H   H891      1.0  0.90305  0.83878  0.72386  1.0000
  H   H892      1.0  0.90579  0.87215  0.75206  1.0000
  H   H893      1.0  0.84476  0.96536  0.73011  1.0000
  H   H894      1.0  0.84050  0.93135  0.70211  1.0000
  C   C569      1.0  0.84550  0.76306  0.71694  1.0000
  S   S225      1.0  0.75970  0.78645  0.75958  1.0000
  H   H895      1.0  0.86386  0.78454  0.71214  1.0000
  S   S226      1.0  0.77106  0.90302  0.61662  1.0000
  S   S227      1.0  0.80571  0.93138  0.66228  1.0000
  H   H896      1.0  0.75546  0.87823  0.58263  1.0000
  C   C570      1.0  0.62769  0.02329  0.67561  1.0000
  H   H897      1.0  0.74868  0.97029  0.59863  1.0000
  C   C571      1.0  0.64489  0.95838  0.67091  1.0000
  C   C572      1.0  0.69691  0.09141  0.57380  1.0000
  S   S228      1.0  0.68517  0.77000  0.79281  1.0000
  H   H898      1.0  0.65632  0.72384  0.71742  1.0000
  H   H899      1.0  0.67413  0.82085  0.56683  1.0000
  H   H900      1.0  0.73056  0.63354  0.56972  1.0000
  H   H901      1.0  0.58376  0.68436  0.61992  1.0000
  H   H902      1.0  0.66197  0.86193  0.57948  1.0000
  H   H903      1.0  0.58639  0.87686  0.56394  1.0000
  H   H904      1.0  0.58878  0.94808  0.69270  1.0000
  H   H905      1.0  0.58129  0.60950  0.60874  1.0000
  C   C573      1.0  0.64172  0.73528  0.70580  1.0000
  C   C574      1.0  0.06240  0.89457  0.78925  1.0000
  C   C575      1.0  0.05835  0.79838  0.79384  1.0000
  H   H906      1.0  0.62153  0.97638  0.70285  1.0000
  H   H907      1.0  0.04366  0.77719  0.78639  1.0000
  H   H908      1.0  0.59909  0.69932  0.72768  1.0000
  H   H909      1.0  0.64474  0.71396  0.69526  1.0000
  C   C576      1.0  0.58471  0.75871  0.69372  1.0000
  H   H910      1.0  0.59779  0.78356  0.68860  1.0000
  H   H911      1.0  0.65148  0.86023  0.55671  1.0000
  H   H912      1.0  0.62991  0.82202  0.60014  1.0000
  C   C577      1.0  0.86477  0.78291  0.79109  1.0000
  S   S229      1.0  0.64356  0.69172  0.79058  1.0000
  C   C578      1.0  0.75463  0.60345  0.59987  1.0000
  H   H913      1.0  0.58679  0.68868  0.70561  1.0000
  N   N56       1.0  0.71940  0.59785  0.59128  1.0000
  H   H914      1.0  0.02139  0.79802  0.82401  1.0000
  C   C579      1.0  0.60023  0.87052  0.87453  1.0000
  S   S230      1.0  0.72454  0.82940  0.91121  1.0000
  Fe  Fe114     1.0  0.69386  0.71220  0.80318  1.0000
  H   H915      1.0  0.02439  0.75197  0.81484  1.0000
  Fe  Fe115     1.0  0.69113  0.88030  0.91931  1.0000
  S   S231      1.0  0.63139  0.87717  0.92499  1.0000
  H   H916      1.0  0.82225  0.75865  0.85608  1.0000
  C   C580      1.0  0.72897  0.78767  0.86539  1.0000
  S   S232      1.0  0.71192  0.91678  0.89835  1.0000
  C   C581      1.0  0.71858  0.75360  0.85849  1.0000
  S   S233      1.0  0.93772  0.94774  0.80476  1.0000
  C   C582      1.0  0.60608  0.86976  0.90602  1.0000
  C   C583      1.0  0.05881  0.59894  0.01297  1.0000
  C   C584      1.0  0.62144  0.87411  0.88955  1.0000
  H   H917      1.0  0.85658  0.94803  0.97766  1.0000
  H   H918      1.0  0.64956  0.88060  0.88833  1.0000
  S   S234      1.0  0.70539  0.70542  0.83177  1.0000
  H   H919      1.0  0.75915  0.82681  0.82821  1.0000
  H   H920      1.0  0.63828  0.74439  0.82312  1.0000
  H   H921      1.0  0.65104  0.78809  0.84651  1.0000
  C   C585      1.0  0.61538  0.72637  0.85500  1.0000
  H   H922      1.0  0.00330  0.02298  0.84726  1.0000
  S   S235      1.0  0.87388  0.88711  0.80425  1.0000
  C   C586      1.0  0.74326  0.81438  0.85450  1.0000
  H   H923      1.0  0.06987  0.93195  0.96218  1.0000
  C   C587      1.0  0.73776  0.77238  0.82988  1.0000
  H   H924      1.0  0.02281  0.95481  0.88269  1.0000
  H   H925      1.0  0.01912  0.62242  0.03094  1.0000
  S   S236      1.0  0.73132  0.89825  0.93923  1.0000
  C   C588      1.0  0.74778  0.80653  0.83674  1.0000
  H   H926      1.0  0.72589  0.79310  0.87912  1.0000
  H   H927      1.0  0.70722  0.73321  0.86696  1.0000
  H   H928      1.0  0.83292  0.01939  0.87157  1.0000
  C   C589      1.0  0.72225  0.74623  0.84064  1.0000
  H   H929      1.0  0.74250  0.76616  0.81629  1.0000
  H   H930      1.0  0.80374  0.89407  0.96208  1.0000
  Fe  Fe116     1.0  0.74807  0.86710  0.89142  1.0000
  S   S237      1.0  0.75773  0.85680  0.86283  1.0000
  H   H931      1.0  0.02253  0.68689  0.01940  1.0000
  Fe  Fe117     1.0  0.97994  0.82292  0.99385  1.0000
  S   S238      1.0  0.04045  0.81572  0.99383  1.0000
  S   S239      1.0  0.95644  0.85167  0.97022  1.0000
  C   C590      1.0  0.04315  0.95405  0.87196  1.0000
  Fe  Fe118     1.0  0.03812  0.83549  0.02143  1.0000
  H   H932      1.0  0.00616  0.79807  0.93894  1.0000
  Fe  Fe119     1.0  0.03196  0.75962  0.00489  1.0000
  H   H933      1.0  0.79762  0.95402  0.88985  1.0000
  S   S240      1.0  0.97120  0.76466  0.00256  1.0000
  C   C591      1.0  0.99665  0.93222  0.95916  1.0000
  C   C592      1.0  0.83396  0.78080  0.86422  1.0000
  Fe  Fe120     1.0  0.76712  0.85058  0.92920  1.0000
  S   S241      1.0  0.79718  0.81354  0.94859  1.0000
  C   C593      1.0  0.05948  0.75047  0.94982  1.0000
  H   H934      1.0  0.04434  0.98013  0.82944  1.0000
  S   S242      1.0  0.79392  0.88351  0.90857  1.0000
  Fe  Fe121     1.0  0.97375  0.07457  0.89906  1.0000
  S   S243      1.0  0.98595  0.01566  0.90730  1.0000
  N   N57       1.0  0.07158  0.78373  0.81078  1.0000
  C   C594      1.0  0.05435  0.94302  0.91919  1.0000
  S   S244      1.0  0.02242  0.04974  0.94241  1.0000
  H   H935      1.0  0.98344  0.96132  0.83820  1.0000
  Fe  Fe122     1.0  0.04011  0.03514  0.91533  1.0000
  C   C595      1.0  0.84194  0.81731  0.83826  1.0000
  Fe  Fe123     1.0  0.96662  0.03591  0.93343  1.0000
  S   S245      1.0  0.93175  0.99890  0.94903  1.0000
  H   H936      1.0  0.80281  0.97085  0.99451  1.0000
  H   H937      1.0  0.05906  0.76068  0.96347  1.0000
  H   H938      1.0  0.07420  0.83847  0.82195  1.0000
  C   C596      1.0  0.80308  0.01997  0.87384  1.0000
  C   C597      1.0  0.81320  0.87646  0.99588  1.0000
  C   C598      1.0  0.79412  0.98324  0.84791  1.0000
  Fe  Fe124     1.0  0.97750  0.89872  0.80392  1.0000
  H   H939      1.0  0.83294  0.95083  0.87415  1.0000
  C   C599      1.0  0.81732  0.99080  0.92713  1.0000
  C   C600      1.0  0.83511  0.02413  0.92570  1.0000
  C   C601      1.0  0.87079  0.02642  0.93188  1.0000
  C   C602      1.0  0.88837  0.99566  0.93988  1.0000
  C   C603      1.0  0.87067  0.96225  0.94117  1.0000
  C   C604      1.0  0.83536  0.95965  0.93458  1.0000
  H   H940      1.0  0.03760  0.93142  0.99881  1.0000
  H   H941      1.0  0.88420  0.05237  0.93093  1.0000
  H   H942      1.0  0.88445  0.93833  0.94712  1.0000
  H   H943      1.0  0.82194  0.93374  0.93553  1.0000
  H   H944      1.0  0.01379  0.99421  0.99135  1.0000
  H   H945      1.0  0.76464  0.90968  0.97442  1.0000
  H   H946      1.0  0.84822  0.85312  0.86859  1.0000
  H   H947      1.0  0.04939  0.76202  0.83431  1.0000
  H   H948      1.0  0.79411  0.94303  0.96545  1.0000
  C   C605      1.0  0.91375  0.83804  0.96321  1.0000
  C   C606      1.0  0.89738  0.85559  0.94874  1.0000
  C   C607      1.0  0.86180  0.84779  0.94389  1.0000
  C   C608      1.0  0.84290  0.82156  0.95319  1.0000
  C   C609      1.0  0.86004  0.80268  0.96712  1.0000
  C   C610      1.0  0.89520  0.81129  0.97229  1.0000
  H   H949      1.0  0.91184  0.87604  0.94157  1.0000
  H   H950      1.0  0.84901  0.86233  0.93309  1.0000
  H   H951      1.0  0.84558  0.78223  0.97430  1.0000
  H   H952      1.0  0.90759  0.79761  0.98347  1.0000
  C   C611      1.0  0.80141  0.94251  0.00020  1.0000
  H   H953      1.0  0.73433  0.96306  0.86508  1.0000
  H   H954      1.0  0.86133  0.83204  0.83003  1.0000
  H   H955      1.0  0.03788  0.02652  0.86368  1.0000
  H   H956      1.0  0.88356  0.75492  0.84066  1.0000
  C   C612      1.0  0.91439  0.01933  0.87928  1.0000
  C   C613      1.0  0.92513  0.04465  0.86675  1.0000
  H   H957      1.0  0.91575  0.02631  0.89297  1.0000
  H   H958      1.0  0.92926  0.05603  0.83933  1.0000
  H   H959      1.0  0.02307  0.89545  0.92473  1.0000
  C   C614      1.0  0.03858  0.66420  0.01354  1.0000
  C   C615      1.0  0.90215  0.98472  0.87416  1.0000
  C   C616      1.0  0.92136  0.03629  0.84906  1.0000
  H   H960      1.0  0.61845  0.79769  0.86348  1.0000
  C   C617      1.0  0.02431  0.73022  0.92542  1.0000
  C   C618      1.0  0.04028  0.77344  0.82147  1.0000
  H   H961      1.0  0.61215  0.87470  0.86186  1.0000
  N   N58       1.0  0.81552  0.91360  0.98789  1.0000
  H   H962      1.0  0.81909  0.83753  0.84140  1.0000
  H   H963      1.0  0.84714  0.76733  0.87577  1.0000
  C   C619      1.0  0.99637  0.94910  0.85013  1.0000
  N   N59       1.0  0.85979  0.80250  0.85420  1.0000
  C   C620      1.0  0.85381  0.92017  0.98366  1.0000
  H   H964      1.0  0.91189  0.79379  0.84189  1.0000
  H   H965      1.0  0.74099  0.99128  0.88406  1.0000
  Fe  Fe125     1.0  0.75535  0.92987  0.91741  1.0000
  C   C621      1.0  0.79356  0.91525  0.97177  1.0000
  H   H966      1.0  0.97095  0.97620  0.98493  1.0000
  N   N60       1.0  0.02759  0.97044  0.85580  1.0000
  C   C622      1.0  0.87168  0.83383  0.86497  1.0000
  H   H967      1.0  0.86507  0.89909  0.97425  1.0000
  N   N61       1.0  0.78688  0.98623  0.86682  1.0000
  H   H968      1.0  0.87141  0.91850  0.99544  1.0000
  C   C623      1.0  0.89164  0.77812  0.84927  1.0000
  H   H969      1.0  0.78309  0.95749  0.84233  1.0000
  S   S246      1.0  0.95037  0.86734  0.82490  1.0000
  H   H970      1.0  0.90556  0.76582  0.86090  1.0000
  H   H971      1.0  0.84179  0.73847  0.80545  1.0000
  C   C624      1.0  0.06232  0.67103  0.99982  1.0000
  H   H972      1.0  0.78181  0.00753  0.84074  1.0000
  H   H973      1.0  0.60224  0.70034  0.85123  1.0000
  C   C625      1.0  0.80304  0.95300  0.87567  1.0000
  H   H974      1.0  0.02999  0.68470  0.95338  1.0000
  H   H975      1.0  0.89135  0.85065  0.85781  1.0000
  H   H976      1.0  0.99501  0.95102  0.94772  1.0000
  H   H977      1.0  0.79879  0.02258  0.88817  1.0000
  C   C626      1.0  0.05402  0.95720  0.96687  1.0000
  C   C627      1.0  0.01061  0.70943  0.95446  1.0000
  H   H978      1.0  0.90575  0.99559  0.83025  1.0000
  H   H979      1.0  0.82271  0.85405  0.98671  1.0000
  H   H980      1.0  0.03287  0.96284  0.92291  1.0000
  H   H981      1.0  0.04392  0.70604  0.92320  1.0000
  H   H982      1.0  0.00487  0.91971  0.84700  1.0000
  C   C628      1.0  0.02230  0.92032  0.98759  1.0000
  H   H983      1.0  0.05176  0.97683  0.95574  1.0000
  H   H984      1.0  0.96819  0.92784  0.96322  1.0000
  C   C629      1.0  0.99874  0.98200  0.98032  1.0000
  S   S247      1.0  0.90390  0.78392  0.80401  1.0000
  C   C630      1.0  0.01525  0.00953  0.85913  1.0000
  H   H985      1.0  0.83101  0.79475  0.83012  1.0000
  H   H986      1.0  0.03321  0.75358  0.91722  1.0000
  S   S248      1.0  0.06908  0.83150  0.91764  1.0000
  N   N62       1.0  0.01793  0.94796  0.97348  1.0000
  C   C631      1.0  0.74723  0.98852  0.86989  1.0000
  H   H987      1.0  0.00866  0.71684  0.96854  1.0000
  H   H988      1.0  0.99541  0.00364  0.97009  1.0000
  H   H989      1.0  0.00874  0.90483  0.95476  1.0000
  C   C632      1.0  0.99730  0.77355  0.94638  1.0000
  H   H990      1.0  0.88488  0.82391  0.87724  1.0000
  H   H991      1.0  0.89504  0.96481  0.88397  1.0000
  H   H992      1.0  0.79107  0.04568  0.86769  1.0000
  C   C633      1.0  0.04899  0.90491  0.92043  1.0000
  S   S249      1.0  0.88662  0.93150  0.85029  1.0000
  C   C634      1.0  0.89994  0.97568  0.85647  1.0000
  N   N63       1.0  0.60203  0.75826  0.84428  1.0000
  C   C635      1.0  0.90870  0.00182  0.84392  1.0000
  H   H993      1.0  0.99729  0.72233  0.92059  1.0000
  H   H994      1.0  0.59935  0.77342  0.81715  1.0000
  H   H995      1.0  0.96937  0.76766  0.94200  1.0000
  H   H996      1.0  0.97916  0.71622  0.04022  1.0000
  S   S250      1.0  0.07528  0.87611  0.03351  1.0000
  C   C636      1.0  0.03661  0.62787  0.02005  1.0000
  H   H997      1.0  0.07018  0.77295  0.94173  1.0000
  H   H998      1.0  0.99541  0.78208  0.96031  1.0000
  S   S251      1.0  0.97808  0.84831  0.02054  1.0000
  H   H999      1.0  0.73388  0.01298  0.86325  1.0000
  H   H1000     1.0  0.07020  0.97058  0.97714  1.0000
  N   N64       1.0  0.02286  0.74090  0.94402  1.0000
  H   H1001     1.0  0.82382  0.98201  0.84518  1.0000
  H   H1002     1.0  0.06611  0.94007  0.83943  1.0000
  H   H1003     1.0  0.99546  0.91188  0.99244  1.0000
  H   H1004     1.0  0.83018  0.87363  0.00784  1.0000
  H   H1005     1.0  0.05269  0.92448  0.87002  1.0000
  H   H1006     1.0  0.79214  0.92691  0.87043  1.0000
  Fe  Fe126     1.0  0.97416  0.78945  0.02948  1.0000
  H   H1007     1.0  0.99394  0.01142  0.86936  1.0000
  H   H1008     1.0  0.77247  0.93848  0.00357  1.0000
  C   C637      1.0  0.07687  0.87894  0.91589  1.0000
  H   H1009     1.0  0.07911  0.98576  0.84562  1.0000
  H   H1010     1.0  0.78472  0.87072  0.99941  1.0000
  Fe  Fe127     1.0  0.90820  0.91404  0.82413  1.0000
  H   H1011     1.0  0.81731  0.94196  0.01254  1.0000
  C   C638      1.0  0.62140  0.79167  0.84930  1.0000
  H   H1012     1.0  0.82127  0.04831  0.91994  1.0000
  S   S252      1.0  0.03436  0.77862  0.03266  1.0000
  H   H1013     1.0  0.81088  0.79887  0.86917  1.0000
  C   C639      1.0  0.05557  0.96912  0.84200  1.0000
  H   H1014     1.0  0.64519  0.72097  0.85345  1.0000
  S   S253      1.0  0.77231  0.98865  0.91986  1.0000
  H   H1015     1.0  0.97500  0.94885  0.86038  1.0000
  H   H1016     1.0  0.03740  0.89465  0.98296  1.0000
  S   S254      1.0  0.06895  0.71613  0.99254  1.0000
  H   H1017     1.0  0.98338  0.70087  0.95024  1.0000
  Fe  Fe128     1.0  0.91892  0.84310  0.80323  1.0000
  H   H1018     1.0  0.61073  0.81672  0.84214  1.0000
  S   S255      1.0  0.94732  0.08444  0.87306  1.0000
  S   S256      1.0  0.03704  0.90514  0.80806  1.0000
  H   H1019     1.0  0.61013  0.73154  0.86910  1.0000
  H   H1020     1.0  0.07909  0.72590  0.94903  1.0000
  H   H1021     1.0  0.06677  0.96955  0.87659  1.0000
  H   H1022     1.0  0.59465  0.72480  0.82136  1.0000
  C   C640      1.0  0.60878  0.74988  0.82567  1.0000
  H   H1023     1.0  0.58350  0.91234  0.80474  1.0000
  H   H1024     1.0  0.02690  0.09115  0.00042  1.0000
