data_image0
_chemical_formula_structural       NSCNH2SH3CHC2FeS2FeS2H2SC6H6CNHCHC3H4FeSHCSCHSCFeC2HCHC2H3FeH2CH2SCHFeHCH4CHCNC3H3CHC2H6CH5C2H6FeH2CNSCH3SH2SFeC2HCHC2H4CH2FeCSH2NHCHSHSHCH2CH3CSH2C2HCH2CNH2CHCFeSH2SH2CH2SC2H2SFeSH3C3H4Fe2H3FeC2H2CS2HCH2CHC2NC2H4CHCHCHC2H4SHC3HSHS2CH2CHSHC2FeSC5HC2H2C3H3C2SCH3C2FeHC2HSNS2CHFe3H2FeH3C3SH4CS2H2C2H5CSCNCHC2HFeSH5CH2FeCHNC2H3CHC2HSH8CNSCHCNH3CH2SCH5SCHNC2HC3H3CHNFeSFeS2H2FeCS3H3CHSHC7H4SCS2C3H2NHCHCH2SCHFeH3NC3HCSH5FeH2C2H3CFeH3CH2FeH8SH4SCHFeHCSCH2CH4FeS2HNCFeSHSH2C2FeS3C3H2C6H2SH2CH2SHC2SHC3H3NSFeNH3SCH5C2H4NH2CH2CSH8FeSCFeH2CSCSC2H2C2FeH2CHFeHC2NHCHCH2CH2CSFeH6CHCFe2CHCSCH3FeH2CSH3CSH2CFeHC2SHSHC2H3NCNH2CHC2H3SCSCHSFeCH5SCH4CHC2NC4H3CH2SHCHCHCHSH3FeHCHSCSC2H5CH4NHC3SHCH2CSH4SCNHFeH2C2SCH2CHFeHCH4CH2NHCH4C4SHSH3FeHCHC2H3CH4SCS2CH2CH3SCHFeH2CH2CH2SH5C2FeSC2H4SCHFeHCS2HFeCFeCH3S2FeHSH2SHFeHCHCSHCH3CH2CH2SCHSCNCHFeS2FeS2H2C6SH2FeCHFeCH4CHC6H2FeH2CH3C3HSHSH3C2HC3H2SFeHFeH3SHSH3NHNHC4HC2SCHCSH7CH2CH2CSH3C3FeCH2SHNC2HCH2FeCH3FeCHC2H2CFeS2FeCSCHSC6H4C2HSH3NC2HSH2FeH2CH2SCHCSHCSC3SH2CHNSH3FeS2NCH3CH2FeH2CH3CH2CSC2H4NH4CHC3H6NCH3C2H2SH2CH5C3H4CH3NC2FeH3FeC2HSC2HCHC2HCH2SH2NH6CHCH3CSH3SHNC2HCS2CH3FeH3CNCSH2CHFeHCSH2CH2SH2FeCSCFeSH2CHC4HCHCH3C2HC3HCHSH2SC2HCSFeCH2FeCHSC2HCSNHCH2FeSHSCHCHFeC2HSFeHCH4SHNCHFeHC2H7CHC2HSCSCH2SFeHSHSFeHCHCH2SCHCHCH4CHCSHC3H2CSHSNH3C4H2CHSH3C2SCNCHFeSFeS2HSCHCH3S2CHSHCHCH2FeHFeC2H4FeC2H2C2HCH2CSCH2SH3FeNC2SNHCHCH2SHC3H2C2HSHFeS2H2CH4CH4CHCH4C2HSHCFeHCHFeH2FeSCSNHC2HFeCSH2FeSCSCSH3C4FeCH2FeH2CSCFeHC6HC2HCFeHCH10CHNH2SFeHFeCHC2HNSCSH3SH2S2H2CHNH2CSH2CHCHS2CSCHCSHS2HCH2CHC2H13C2SHNS2NH2CSH2CHSH5FeC2H2NHCHSC2H3CHSH2NCHC2HFeCHC2SH2FeH3CSCSHC3HSHCSC3HFeH3NCS2CHFeHFeHCH2CHFeH2SH5FeCHSCFeCHC3HCSHCHS2H2CHC3H2FeNCSHSHC5H5FeHCH13CH2CHSHFeC2SFeC2HCH3FeHCH2C3HSC3HC2SH2FeCH3CNS3HCH3FeSFeSH2SCH2FeHCSCH5SH5C2HCHCSHCHCNCSCH2NHCHNCH2CHC3HCH2CH4CFeH3CHCH2SH4C2SH4CHCH4CH2CHSCHFeHCH2FeS2H2SC8H4NHS2HSHC7FeH3SC2HC2H2CH2CHSCHSHSH3FeSFeC2HSC2NCHCH3FeH2CHFeHC2HCNH2CH2
_chemical_formula_sum              "N64 S256 C640 H1024 Fe128"
_cell_length_a       43.2263
_cell_length_b       35.2544
_cell_length_c       36.6173
_cell_angle_alpha    89.7086
_cell_angle_beta     90.0758
_cell_angle_gamma    89.887

_space_group_name_H-M_alt    "P 1"
_space_group_IT_number       1

loop_
  _space_group_symop_operation_xyz
  'x, y, z'

loop_
  _atom_site_type_symbol
  _atom_site_label
  _atom_site_symmetry_multiplicity
  _atom_site_fract_x
  _atom_site_fract_y
  _atom_site_fract_z
  _atom_site_occupancy
  N   N1        1.0  0.18994  0.64591  0.59569  1.0000
  S   S1        1.0  0.32330  0.30736  0.23603  1.0000
  C   C1        1.0  0.13983  0.33258  0.44629  1.0000
  N   N2        1.0  0.11342  0.43008  0.15499  1.0000
  H   H1        1.0  0.16064  0.36275  0.40129  1.0000
  H   H2        1.0  0.13881  0.64082  0.19600  1.0000
  S   S2        1.0  0.15401  0.25326  0.52947  1.0000
  H   H3        1.0  0.25659  0.24418  0.43510  1.0000
  H   H4        1.0  0.21385  0.31131  0.43670  1.0000
  H   H5        1.0  0.22425  0.24911  0.46551  1.0000
  C   C2        1.0  0.18656  0.65540  0.55653  1.0000
  H   H6        1.0  0.21741  0.21140  0.37108  1.0000
  C   C3        1.0  0.29903  0.20051  0.53732  1.0000
  C   C4        1.0  0.11174  0.40574  0.18792  1.0000
  Fe  Fe1       1.0  0.11929  0.30869  0.23436  1.0000
  S   S3        1.0  0.16563  0.31536  0.20810  1.0000
  S   S4        1.0  0.10058  0.34703  0.27781  1.0000
  Fe  Fe2       1.0  0.18138  0.25474  0.58117  1.0000
  S   S5        1.0  0.21821  0.21105  0.59101  1.0000
  S   S6        1.0  0.18897  0.31770  0.57990  1.0000
  H   H7        1.0  0.18024  0.63003  0.54021  1.0000
  H   H8        1.0  0.20974  0.25681  0.35033  1.0000
  S   S7        1.0  0.27242  0.30957  0.32537  1.0000
  C   C5        1.0  0.24176  0.30885  0.29401  1.0000
  C   C6        1.0  0.21397  0.32748  0.30192  1.0000
  C   C7        1.0  0.19010  0.32857  0.27593  1.0000
  C   C8        1.0  0.19421  0.31147  0.24186  1.0000
  C   C9        1.0  0.22167  0.29204  0.23434  1.0000
  C   C10       1.0  0.24527  0.29043  0.26055  1.0000
  H   H9        1.0  0.21119  0.34195  0.32767  1.0000
  H   H10       1.0  0.16896  0.34370  0.28187  1.0000
  H   H11       1.0  0.22467  0.27800  0.20835  1.0000
  H   H12       1.0  0.26610  0.27464  0.25496  1.0000
  H   H13       1.0  0.17236  0.26264  0.44181  1.0000
  H   H14       1.0  0.17226  0.39505  0.60423  1.0000
  C   C11       1.0  0.16032  0.63090  0.60974  1.0000
  N   N3        1.0  0.21330  0.25767  0.40891  1.0000
  H   H15       1.0  0.19403  0.46003  0.60045  1.0000
  C   C12       1.0  0.29970  0.23341  0.51584  1.0000
  H   H16       1.0  0.22768  0.35648  0.17228  1.0000
  C   C13       1.0  0.24870  0.21857  0.56057  1.0000
  C   C14       1.0  0.24886  0.25066  0.53797  1.0000
  C   C15       1.0  0.27440  0.25811  0.51560  1.0000
  H   H17       1.0  0.24427  0.30513  0.40372  1.0000
  H   H18       1.0  0.24489  0.37023  0.21485  1.0000
  H   H19       1.0  0.22962  0.27019  0.53822  1.0000
  H   H20       1.0  0.27494  0.28364  0.49909  1.0000
  Fe  Fe3       1.0  0.15720  0.31670  0.53129  1.0000
  S   S8        1.0  0.16638  0.34844  0.47901  1.0000
  H   H21       1.0  0.10080  0.64039  0.17684  1.0000
  C   C16       1.0  0.11674  0.30714  0.45675  1.0000
  S   S9        1.0  0.11354  0.32485  0.56363  1.0000
  C   C17       1.0  0.22235  0.24227  0.37299  1.0000
  H   H22       1.0  0.12048  0.37659  0.18237  1.0000
  S   S10       1.0  0.14000  0.25735  0.61760  1.0000
  C   C18       1.0  0.21952  0.29888  0.40961  1.0000
  Fe  Fe4       1.0  0.14504  0.32043  0.61227  1.0000
  C   C19       1.0  0.12322  0.32684  0.38305  1.0000
  C   C20       1.0  0.14282  0.34294  0.40945  1.0000
  H   H23       1.0  0.29130  0.41105  0.21555  1.0000
  C   C21       1.0  0.27349  0.19305  0.55970  1.0000
  H   H24       1.0  0.22784  0.20748  0.43796  1.0000
  C   C22       1.0  0.23134  0.23873  0.43809  1.0000
  C   C23       1.0  0.25005  0.36335  0.18582  1.0000
  H   H25       1.0  0.08487  0.38071  0.62962  1.0000
  H   H26       1.0  0.16558  0.26461  0.39348  1.0000
  H   H27       1.0  0.12596  0.33419  0.35456  1.0000
  Fe  Fe5       1.0  0.11282  0.26117  0.56557  1.0000
  H   H28       1.0  0.12341  0.59789  0.17708  1.0000
  H   H29       1.0  0.26434  0.33700  0.18592  1.0000
  C   C24       1.0  0.17046  0.41381  0.62738  1.0000
  H   H30       1.0  0.11410  0.29930  0.48504  1.0000
  H   H31       1.0  0.30837  0.42657  0.17327  1.0000
  S   S11       1.0  0.10610  0.25474  0.26300  1.0000
  C   C25       1.0  0.17997  0.25092  0.41508  1.0000
  H   H32       1.0  0.23711  0.62731  0.59011  1.0000
  Fe  Fe6       1.0  0.31650  0.29568  0.29589  1.0000
  H   H33       1.0  0.28612  0.21996  0.22459  1.0000
  C   C26       1.0  0.29546  0.40299  0.18662  1.0000
  H   H34       1.0  0.16190  0.62414  0.63937  1.0000
  H   H35       1.0  0.17440  0.22014  0.41520  1.0000
  H   H36       1.0  0.21747  0.60902  0.62960  1.0000
  H   H37       1.0  0.31097  0.37777  0.18694  1.0000
  C   C27       1.0  0.31241  0.17972  0.19327  1.0000
  H   H38       1.0  0.11519  0.48117  0.18689  1.0000
  C   C28       1.0  0.18256  0.45071  0.62517  1.0000
  N   N4        1.0  0.26623  0.39488  0.16721  1.0000
  C   C29       1.0  0.08142  0.45521  0.63041  1.0000
  C   C30       1.0  0.10201  0.46852  0.16388  1.0000
  C   C31       1.0  0.28576  0.19297  0.21078  1.0000
  H   H39       1.0  0.18435  0.63982  0.15638  1.0000
  H   H40       1.0  0.24752  0.24631  0.36779  1.0000
  H   H41       1.0  0.20545  0.31426  0.38883  1.0000
  C   C32       1.0  0.09725  0.29116  0.43059  1.0000
  H   H42       1.0  0.10931  0.18403  0.21215  1.0000
  C   C33       1.0  0.24646  0.42914  0.16722  1.0000
  C   C34       1.0  0.12459  0.62919  0.17336  1.0000
  H   H43       1.0  0.07979  0.27094  0.43896  1.0000
  H   H44       1.0  0.12580  0.41735  0.21074  1.0000
  H   H45       1.0  0.08098  0.48395  0.64287  1.0000
  H   H46       1.0  0.15342  0.60442  0.59550  1.0000
  H   H47       1.0  0.14125  0.65193  0.60640  1.0000
  H   H48       1.0  0.28235  0.20891  0.63341  1.0000
  C   C35       1.0  0.10063  0.30062  0.39375  1.0000
  H   H49       1.0  0.14851  0.19779  0.20242  1.0000
  H   H50       1.0  0.24042  0.43787  0.19549  1.0000
  H   H51       1.0  0.20865  0.59030  0.58559  1.0000
  H   H52       1.0  0.23744  0.18250  0.22183  1.0000
  H   H53       1.0  0.08751  0.40310  0.19786  1.0000
  C   C36       1.0  0.21441  0.61691  0.60036  1.0000
  C   C37       1.0  0.13078  0.17550  0.19747  1.0000
  H   H54       1.0  0.20840  0.66729  0.54517  1.0000
  H   H55       1.0  0.25832  0.45360  0.15386  1.0000
  H   H56       1.0  0.31819  0.18078  0.53664  1.0000
  H   H57       1.0  0.22455  0.42442  0.15195  1.0000
  H   H58       1.0  0.10559  0.44447  0.63260  1.0000
  H   H59       1.0  0.16099  0.44566  0.16325  1.0000
  Fe  Fe7       1.0  0.08330  0.29323  0.30329  1.0000
  H   H60       1.0  0.09268  0.21710  0.15502  1.0000
  H   H61       1.0  0.22639  0.47944  0.72711  1.0000
  C   C38       1.0  0.28423  0.48587  0.75446  1.0000
  N   N5        1.0  0.26785  0.19555  0.68805  1.0000
  S   S12       1.0  0.26863  0.45249  0.03607  1.0000
  C   C39       1.0  0.24612  0.22795  0.68960  1.0000
  H   H62       1.0  0.29596  0.21456  0.73285  1.0000
  H   H63       1.0  0.23683  0.45216  0.68790  1.0000
  H   H64       1.0  0.30588  0.22939  0.66834  1.0000
  S   S13       1.0  0.28330  0.54524  0.03419  1.0000
  H   H65       1.0  0.28872  0.35889  0.12792  1.0000
  H   H66       1.0  0.23516  0.23337  0.66252  1.0000
  S   S14       1.0  0.27422  0.50207  0.93854  1.0000
  Fe  Fe8       1.0  0.26641  0.50182  0.07449  1.0000
  C   C40       1.0  0.16974  0.62647  0.13485  1.0000
  C   C41       1.0  0.14584  0.43233  0.14235  1.0000
  H   H67       1.0  0.11735  0.59038  0.11222  1.0000
  C   C42       1.0  0.16453  0.46338  0.68641  1.0000
  H   H68       1.0  0.16175  0.48237  0.70916  1.0000
  C   C43       1.0  0.17944  0.47561  0.65462  1.0000
  C   C44       1.0  0.19294  0.51551  0.07780  1.0000
  H   H69       1.0  0.17669  0.50482  0.98756  1.0000
  H   H70       1.0  0.14238  0.41677  0.71404  1.0000
  H   H71       1.0  0.09023  0.41019  0.69112  1.0000
  H   H72       1.0  0.16323  0.59193  0.91299  1.0000
  C   C45       1.0  0.29781  0.47322  0.91162  1.0000
  H   H73       1.0  0.15533  0.40363  0.13638  1.0000
  H   H74       1.0  0.28485  0.40749  0.11415  1.0000
  Fe  Fe9       1.0  0.28839  0.49526  0.99711  1.0000
  C   C46       1.0  0.15335  0.42621  0.68906  1.0000
  S   S15       1.0  0.31312  0.49128  0.09876  1.0000
  H   H75       1.0  0.24337  0.43317  0.73286  1.0000
  H   H76       1.0  0.22703  0.22252  0.70934  1.0000
  N   N6        1.0  0.27525  0.47692  0.71649  1.0000
  H   H77       1.0  0.10121  0.38409  0.11930  1.0000
  C   C47       1.0  0.13277  0.17559  0.02640  1.0000
  H   H78       1.0  0.15806  0.53166  0.85455  1.0000
  S   S16       1.0  0.19500  0.52151  0.65207  1.0000
  H   H79       1.0  0.25804  0.25450  0.69783  1.0000
  S   S17       1.0  0.13931  0.35619  0.66257  1.0000
  H   H80       1.0  0.12839  0.62710  0.08065  1.0000
  C   C48       1.0  0.30510  0.48434  0.87593  1.0000
  H   H81       1.0  0.08583  0.64873  0.69549  1.0000
  H   H82       1.0  0.23078  0.56701  0.92611  1.0000
  C   C49       1.0  0.15595  0.40147  0.65944  1.0000
  H   H83       1.0  0.22071  0.50437  0.03022  1.0000
  H   H84       1.0  0.17578  0.57736  0.84877  1.0000
  H   H85       1.0  0.28379  0.46019  0.77229  1.0000
  C   C50       1.0  0.16320  0.52391  0.09047  1.0000
  S   S18       1.0  0.10154  0.53807  0.80005  1.0000
  H   H86       1.0  0.10414  0.48811  0.14012  1.0000
  H   H87       1.0  0.13222  0.22959  0.14568  1.0000
  C   C51       1.0  0.19803  0.50577  0.90561  1.0000
  C   C52       1.0  0.27477  0.51215  0.69441  1.0000
  H   H88       1.0  0.25843  0.53342  0.70595  1.0000
  C   C53       1.0  0.18017  0.54755  0.85758  1.0000
  H   H89       1.0  0.20731  0.50345  0.93391  1.0000
  H   H90       1.0  0.14694  0.54560  0.92034  1.0000
  C   C54       1.0  0.29794  0.45011  0.70082  1.0000
  N   N7        1.0  0.19205  0.54574  0.89542  1.0000
  H   H91       1.0  0.18014  0.63363  0.10792  1.0000
  H   H92       1.0  0.17149  0.59519  0.13852  1.0000
  C   C55       1.0  0.19783  0.50987  0.04048  1.0000
  H   H93       1.0  0.29508  0.50990  0.86463  1.0000
  C   C56       1.0  0.16891  0.56211  0.92056  1.0000
  Fe  Fe10      1.0  0.31725  0.44580  0.05637  1.0000
  S   S19       1.0  0.22388  0.51112  0.10846  1.0000
  H   H94       1.0  0.29384  0.56968  0.83671  1.0000
  H   H95       1.0  0.26848  0.50739  0.76669  1.0000
  S   S20       1.0  0.13017  0.57946  0.70181  1.0000
  H   H96       1.0  0.11569  0.53337  0.07534  1.0000
  H   H97       1.0  0.31016  0.59993  0.70582  1.0000
  C   C57       1.0  0.17295  0.51080  0.01607  1.0000
  H   H98       1.0  0.26408  0.18484  0.74570  1.0000
  H   H99       1.0  0.15935  0.52862  0.11926  1.0000
  S   S21       1.0  0.23784  0.60220  0.80839  1.0000
  C   C58       1.0  0.29236  0.20367  0.66099  1.0000
  C   C59       1.0  0.13842  0.52603  0.06575  1.0000
  H   H100      1.0  0.30463  0.43106  0.95369  1.0000
  H   H101      1.0  0.29810  0.52548  0.69325  1.0000
  S   S22       1.0  0.15301  0.62518  0.77623  1.0000
  Fe  Fe11      1.0  0.19940  0.59846  0.76734  1.0000
  S   S23       1.0  0.20128  0.61312  0.70790  1.0000
  H   H102      1.0  0.17660  0.48841  0.90421  1.0000
  H   H103      1.0  0.09439  0.63238  0.10836  1.0000
  H   H104      1.0  0.19718  0.53545  0.83803  1.0000
  C   C60       1.0  0.30660  0.59297  0.73433  1.0000
  C   C61       1.0  0.27868  0.60265  0.75126  1.0000
  C   C62       1.0  0.22120  0.56750  0.89787  1.0000
  H   H105      1.0  0.11625  0.18419  0.93548  1.0000
  H   H106      1.0  0.14780  0.44955  0.11685  1.0000
  H   H107      1.0  0.26116  0.61769  0.73601  1.0000
  H   H108      1.0  0.21783  0.59763  0.88952  1.0000
  Fe  Fe12      1.0  0.13448  0.56767  0.76209  1.0000
  Fe  Fe13      1.0  0.17861  0.55712  0.69884  1.0000
  H   H109      1.0  0.17750  0.56216  0.94924  1.0000
  H   H110      1.0  0.21565  0.49267  0.88741  1.0000
  H   H111      1.0  0.25171  0.37701  0.11369  1.0000
  Fe  Fe14      1.0  0.15296  0.63479  0.71549  1.0000
  C   C63       1.0  0.27379  0.59356  0.78797  1.0000
  C   C64       1.0  0.29734  0.57591  0.80808  1.0000
  H   H112      1.0  0.26717  0.50660  0.66586  1.0000
  H   H113      1.0  0.23934  0.55544  0.87968  1.0000
  C   C65       1.0  0.24413  0.45960  0.71616  1.0000
  S   S24       1.0  0.11232  0.51890  0.99766  1.0000
  S   S25       1.0  0.18108  0.54021  0.75765  1.0000
  H   H114      1.0  0.29182  0.44254  0.67223  1.0000
  C   C66       1.0  0.14321  0.51872  0.02862  1.0000
  H   H115      1.0  0.30813  0.49747  0.75565  1.0000
  H   H116      1.0  0.12711  0.20531  0.02296  1.0000
  C   C67       1.0  0.08306  0.66926  0.67368  1.0000
  H   H117      1.0  0.29918  0.42333  0.71702  1.0000
  C   C68       1.0  0.27311  0.38405  0.12913  1.0000
  C   C69       1.0  0.28203  0.18958  0.72439  1.0000
  N   N8        1.0  0.13730  0.63963  0.13724  1.0000
  C   C70       1.0  0.11864  0.62162  0.10828  1.0000
  C   C71       1.0  0.31055  0.43999  0.92626  1.0000
  H   H118      1.0  0.32165  0.46253  0.70038  1.0000
  H   H119      1.0  0.10980  0.20435  0.11223  1.0000
  H   H120      1.0  0.09532  0.43060  0.10015  1.0000
  H   H121      1.0  0.17840  0.18097  0.00296  1.0000
  C   C72       1.0  0.11450  0.20705  0.14202  1.0000
  H   H122      1.0  0.17272  0.17855  0.14381  1.0000
  C   C73       1.0  0.09401  0.41362  0.12582  1.0000
  H   H123      1.0  0.30892  0.17958  0.65872  1.0000
  C   C74       1.0  0.09121  0.18498  0.94256  1.0000
  H   H124      1.0  0.08938  0.18782  0.97273  1.0000
  C   C75       1.0  0.32649  0.46334  0.85555  1.0000
  C   C76       1.0  0.32500  0.56527  0.79091  1.0000
  H   H125      1.0  0.08107  0.21119  0.93040  1.0000
  H   H126      1.0  0.21698  0.81785  0.45037  1.0000
  H   H127      1.0  0.15716  0.75281  0.41145  1.0000
  H   H128      1.0  0.10766  0.82752  0.25451  1.0000
  S   S26       1.0  0.22797  0.78315  0.19751  1.0000
  H   H129      1.0  0.28191  0.86984  0.38020  1.0000
  C   C77       1.0  0.11138  0.78620  0.53654  1.0000
  C   C78       1.0  0.30237  0.83375  0.42135  1.0000
  C   C79       1.0  0.18187  0.88868  0.15352  1.0000
  H   H130      1.0  0.24082  0.73683  0.39295  1.0000
  S   S27       1.0  0.20082  0.75408  0.54758  1.0000
  H   H131      1.0  0.22570  0.79985  0.37006  1.0000
  S   S28       1.0  0.29314  0.73869  0.33866  1.0000
  S   S29       1.0  0.08116  0.84964  0.51141  1.0000
  C   C80       1.0  0.28485  0.12328  0.17465  1.0000
  H   H132      1.0  0.22601  0.77167  0.46856  1.0000
  H   H133      1.0  0.10720  0.11394  0.16484  1.0000
  C   C81       1.0  0.25831  0.17175  0.20930  1.0000
  H   H134      1.0  0.18705  0.78375  0.36168  1.0000
  S   S30       1.0  0.30939  0.77045  0.15667  1.0000
  H   H135      1.0  0.27652  0.94920  0.49522  1.0000
  C   C82       1.0  0.12085  0.82694  0.62113  1.0000
  C   C83       1.0  0.09617  0.73595  0.25654  1.0000
  Fe  Fe15      1.0  0.21922  0.73444  0.23545  1.0000
  S   S31       1.0  0.21983  0.76988  0.28606  1.0000
  C   C84       1.0  0.11392  0.82186  0.51993  1.0000
  C   C85       1.0  0.10182  0.74542  0.29301  1.0000
  C   C86       1.0  0.29853  0.77611  0.36916  1.0000
  C   C87       1.0  0.14849  0.71164  0.25112  1.0000
  C   C88       1.0  0.29052  0.84174  0.38656  1.0000
  H   H136      1.0  0.16293  0.79405  0.43928  1.0000
  C   C89       1.0  0.22494  0.78887  0.44298  1.0000
  C   C90       1.0  0.16965  0.81484  0.51849  1.0000
  H   H137      1.0  0.17392  0.74824  0.45631  1.0000
  H   H138      1.0  0.26887  0.96226  0.54201  1.0000
  C   C91       1.0  0.13812  0.76505  0.54454  1.0000
  C   C92       1.0  0.16736  0.77975  0.53612  1.0000
  C   C93       1.0  0.32208  0.89596  0.18151  1.0000
  H   H139      1.0  0.08695  0.88063  0.21723  1.0000
  H   H140      1.0  0.14497  0.86331  0.49721  1.0000
  H   H141      1.0  0.13609  0.73767  0.55776  1.0000
  C   C94       1.0  0.20255  0.79602  0.38285  1.0000
  C   C95       1.0  0.11948  0.71901  0.23560  1.0000
  S   S32       1.0  0.28550  0.77455  0.51877  1.0000
  C   C96       1.0  0.15357  0.71942  0.28808  1.0000
  H   H142      1.0  0.27315  0.16782  0.57662  1.0000
  H   H143      1.0  0.20251  0.71991  0.38407  1.0000
  H   H144      1.0  0.19184  0.82576  0.51068  1.0000
  C   C97       1.0  0.17323  0.76633  0.43127  1.0000
  C   C98       1.0  0.28853  0.81284  0.36045  1.0000
  Fe  Fe16      1.0  0.27813  0.76969  0.20584  1.0000
  H   H145      1.0  0.08879  0.77505  0.54317  1.0000
  C   C99       1.0  0.21722  0.73397  0.40497  1.0000
  C   C100      1.0  0.19843  0.68049  0.61605  1.0000
  H   H146      1.0  0.11530  0.71297  0.20712  1.0000
  S   S33       1.0  0.29980  0.86762  0.45594  1.0000
  N   N9        1.0  0.20446  0.77129  0.41552  1.0000
  S   S34       1.0  0.26902  0.71722  0.23895  1.0000
  S   S35       1.0  0.28334  0.80855  0.25389  1.0000
  C   C101      1.0  0.13030  0.73646  0.30901  1.0000
  H   H147      1.0  0.32324  0.79133  0.45606  1.0000
  Fe  Fe17      1.0  0.23220  0.81752  0.24856  1.0000
  Fe  Fe18      1.0  0.24362  0.79048  0.55122  1.0000
  Fe  Fe19      1.0  0.31135  0.78625  0.57064  1.0000
  H   H148      1.0  0.12883  0.83691  0.29545  1.0000
  H   H149      1.0  0.24894  0.79155  0.43254  1.0000
  Fe  Fe20      1.0  0.27044  0.75703  0.28657  1.0000
  H   H150      1.0  0.19360  0.82471  0.38976  1.0000
  H   H151      1.0  0.21923  0.71459  0.42894  1.0000
  H   H152      1.0  0.27854  0.81879  0.33397  1.0000
  C   C102      1.0  0.10408  0.71886  0.63520  1.0000
  C   C103      1.0  0.18370  0.92796  0.14889  1.0000
  C   C104      1.0  0.14302  0.83587  0.51039  1.0000
  S   S36       1.0  0.26900  0.79772  0.60435  1.0000
  H   H153      1.0  0.13453  0.74321  0.33734  1.0000
  H   H154      1.0  0.08766  0.93874  0.61981  1.0000
  H   H155      1.0  0.29840  0.02208  0.53305  1.0000
  H   H156      1.0  0.26806  0.91109  0.21626  1.0000
  C   C105      1.0  0.19621  0.93476  0.21309  1.0000
  S   S37       1.0  0.22313  0.11218  0.18500  1.0000
  S   S38       1.0  0.21083  0.87495  0.25753  1.0000
  H   H157      1.0  0.18731  0.84205  0.19088  1.0000
  H   H158      1.0  0.12226  0.94207  0.28836  1.0000
  C   C106      1.0  0.12363  0.84811  0.26764  1.0000
  C   C107      1.0  0.18863  0.87235  0.18752  1.0000
  H   H159      1.0  0.15391  0.91484  0.27096  1.0000
  H   H160      1.0  0.28676  0.91786  0.53177  1.0000
  H   H161      1.0  0.31954  0.87846  0.20674  1.0000
  H   H162      1.0  0.20225  0.95266  0.23594  1.0000
  H   H163      1.0  0.18016  0.70270  0.61362  1.0000
  C   C108      1.0  0.19721  0.89525  0.21683  1.0000
  S   S39       1.0  0.27115  0.91371  0.61433  1.0000
  C   C109      1.0  0.25778  0.13720  0.19058  1.0000
  N   N10       1.0  0.29173  0.90473  0.16495  1.0000
  C   C110      1.0  0.27525  0.86907  0.15667  1.0000
  H   H164      1.0  0.25092  0.93580  0.17832  1.0000
  C   C111      1.0  0.27327  0.92736  0.19081  1.0000
  C   C112      1.0  0.31338  0.79739  0.42954  1.0000
  H   H165      1.0  0.19035  0.98166  0.17563  1.0000
  Fe  Fe21      1.0  0.27568  0.85805  0.58588  1.0000
  S   S40       1.0  0.24641  0.85201  0.53612  1.0000
  H   H166      1.0  0.09229  0.92863  0.23143  1.0000
  H   H167      1.0  0.14562  0.84785  0.25184  1.0000
  H   H168      1.0  0.20156  0.67447  0.64569  1.0000
  H   H169      1.0  0.13808  0.90326  0.31467  1.0000
  H   H170      1.0  0.17555  0.71235  0.30048  1.0000
  C   C113      1.0  0.18970  0.95116  0.17896  1.0000
  H   H171      1.0  0.16828  0.67728  0.55218  1.0000
  H   H172      1.0  0.31553  0.11825  0.62601  1.0000
  Fe  Fe22      1.0  0.29071  0.83703  0.50854  1.0000
  C   C114      1.0  0.31204  0.14468  0.17567  1.0000
  H   H173      1.0  0.31937  0.74024  0.41016  1.0000
  N   N11       1.0  0.10999  0.88661  0.26900  1.0000
  C   C115      1.0  0.10038  0.14180  0.15287  1.0000
  C   C116      1.0  0.28582  0.94821  0.52359  1.0000
  H   H174      1.0  0.27146  0.85182  0.18179  1.0000
  H   H175      1.0  0.12357  0.73563  0.62628  1.0000
  H   H176      1.0  0.28537  0.95393  0.19872  1.0000
  C   C117      1.0  0.31139  0.76856  0.40350  1.0000
  H   H177      1.0  0.14397  0.82460  0.60794  1.0000
  C   C118      1.0  0.13198  0.91288  0.28658  1.0000
  C   C119      1.0  0.10324  0.89999  0.23146  1.0000
  H   H178      1.0  0.28487  0.09595  0.16153  1.0000
  S   S41       1.0  0.17915  0.69609  0.22368  1.0000
  H   H179      1.0  0.12466  0.90170  0.21464  1.0000
  H   H180      1.0  0.22031  0.69316  0.60564  1.0000
  H   H181      1.0  0.10845  0.79984  0.61646  1.0000
  H   H182      1.0  0.10768  0.84946  0.60626  1.0000
  H   H183      1.0  0.15037  0.69583  0.15368  1.0000
  H   H184      1.0  0.13945  0.14877  0.21021  1.0000
  H   H185      1.0  0.30604  0.00923  0.48647  1.0000
  H   H186      1.0  0.31218  0.97760  0.58337  1.0000
  C   C120      1.0  0.31458  0.00619  0.51504  1.0000
  N   N12       1.0  0.31673  0.96586  0.52602  1.0000
  S   S42       1.0  0.32048  0.84725  0.55727  1.0000
  C   C121      1.0  0.32817  0.96319  0.56404  1.0000
  H   H187      1.0  0.08520  0.87525  0.31882  1.0000
  C   C122      1.0  0.08107  0.88563  0.29048  1.0000
  N   N13       1.0  0.12483  0.17056  0.15801  1.0000
  H   H188      1.0  0.16175  0.13020  0.15093  1.0000
  H   H189      1.0  0.07826  0.15071  0.16596  1.0000
  H   H190      1.0  0.24291  0.98711  0.76039  1.0000
  C   C123      1.0  0.10784  0.69243  0.66349  1.0000
  H   H191      1.0  0.12976  0.77736  0.67774  1.0000
  H   H192      1.0  0.13476  0.99073  0.95785  1.0000
  S   S43       1.0  0.10449  0.00778  0.86824  1.0000
  C   C124      1.0  0.22660  0.96236  0.69344  1.0000
  H   H193      1.0  0.29762  0.16433  0.72452  1.0000
  H   H194      1.0  0.07986  0.80951  0.67410  1.0000
  H   H195      1.0  0.20604  0.94431  0.69905  1.0000
  H   H196      1.0  0.27255  0.10594  0.93112  1.0000
  H   H197      1.0  0.29998  0.97350  0.65389  1.0000
  S   S44       1.0  0.14369  0.68971  0.68588  1.0000
  C   C125      1.0  0.24897  0.02509  0.69745  1.0000
  H   H198      1.0  0.10264  0.09357  0.06015  1.0000
  N   N14       1.0  0.30433  0.10213  0.97625  1.0000
  C   C126      1.0  0.29123  0.91337  0.65571  1.0000
  C   C127      1.0  0.14166  0.80529  0.67899  1.0000
  H   H199      1.0  0.14022  0.88070  0.69443  1.0000
  C   C128      1.0  0.22109  0.99871  0.74860  1.0000
  C   C129      1.0  0.30786  0.88094  0.71092  1.0000
  C   C130      1.0  0.28988  0.06692  0.99003  1.0000
  H   H200      1.0  0.07920  0.97620  0.00739  1.0000
  H   H201      1.0  0.17650  0.87075  0.13046  1.0000
  H   H202      1.0  0.16323  0.87147  0.65441  1.0000
  C   C131      1.0  0.11117  0.15073  0.04185  1.0000
  H   H203      1.0  0.11569  0.02547  0.98556  1.0000
  N   N15       1.0  0.22257  0.00095  0.70832  1.0000
  Fe  Fe23      1.0  0.21988  0.07026  0.05607  1.0000
  S   S45       1.0  0.20561  0.10631  0.00858  1.0000
  Fe  Fe24      1.0  0.14267  0.08034  0.75960  1.0000
  S   S46       1.0  0.18644  0.11241  0.74935  1.0000
  S   S47       1.0  0.14425  0.01855  0.77373  1.0000
  H   H204      1.0  0.18969  0.04667  0.70460  1.0000
  H   H205      1.0  0.15043  0.00541  0.05743  1.0000
  Fe  Fe25      1.0  0.10754  0.01237  0.73100  1.0000
  C   C132      1.0  0.19360  0.01758  0.69386  1.0000
  S   S48       1.0  0.30407  0.02082  0.77672  1.0000
  S   S49       1.0  0.28666  0.06680  0.86620  1.0000
  S   S50       1.0  0.10683  0.09507  0.80129  1.0000
  H   H206      1.0  0.20202  0.97987  0.75784  1.0000
  H   H207      1.0  0.11205  0.69225  0.13511  1.0000
  H   H208      1.0  0.32485  0.07440  0.93005  1.0000
  C   C133      1.0  0.09221  0.83709  0.67681  1.0000
  H   H209      1.0  0.15516  0.93154  0.98659  1.0000
  S   S51       1.0  0.10910  0.07332  0.71367  1.0000
  H   H210      1.0  0.30969  0.85522  0.72707  1.0000
  C   C134      1.0  0.13917  0.87226  0.66519  1.0000
  C   C135      1.0  0.21333  0.10327  0.78403  1.0000
  C   C136      1.0  0.20413  0.08839  0.81786  1.0000
  C   C137      1.0  0.22651  0.07906  0.84436  1.0000
  C   C138      1.0  0.25795  0.08416  0.83664  1.0000
  C   C139      1.0  0.26684  0.09975  0.80309  1.0000
  C   C140      1.0  0.24463  0.10904  0.77680  1.0000
  H   H211      1.0  0.17988  0.08355  0.82343  1.0000
  H   H212      1.0  0.21954  0.06654  0.87010  1.0000
  H   H213      1.0  0.29099  0.10382  0.79691  1.0000
  H   H214      1.0  0.25189  0.11916  0.75033  1.0000
  S   S52       1.0  0.18157  0.94731  0.10499  1.0000
  C   C141      1.0  0.13616  0.68130  0.13260  1.0000
  S   S53       1.0  0.23689  0.01065  0.05149  1.0000
  S   S54       1.0  0.11100  0.96774  0.68748  1.0000
  C   C142      1.0  0.16893  0.12349  0.01962  1.0000
  C   C143      1.0  0.14748  0.09897  0.03557  1.0000
  C   C144      1.0  0.11874  0.11257  0.04696  1.0000
  H   H215      1.0  0.26894  0.07329  0.00651  1.0000
  H   H216      1.0  0.27132  0.01295  0.70701  1.0000
  N   N16       1.0  0.12348  0.83538  0.66053  1.0000
  H   H217      1.0  0.15316  0.06944  0.03907  1.0000
  C   C145      1.0  0.15355  0.15792  0.13979  1.0000
  H   H218      1.0  0.12246  0.97162  0.07238  1.0000
  C   C146      1.0  0.29456  0.87986  0.67596  1.0000
  H   H219      1.0  0.09854  0.94071  0.98048  1.0000
  H   H220      1.0  0.24702  0.05407  0.70931  1.0000
  S   S55       1.0  0.18881  0.05864  0.10378  1.0000
  C   C147      1.0  0.09868  0.95547  0.00725  1.0000
  H   H221      1.0  0.17660  0.95911  0.01919  1.0000
  Fe  Fe26      1.0  0.20949  0.00052  0.10236  1.0000
  H   H222      1.0  0.29440  0.13297  0.02542  1.0000
  H   H223      1.0  0.24030  0.16431  0.64963  1.0000
  H   H224      1.0  0.11508  0.11455  0.93450  1.0000
  N   N17       1.0  0.12860  0.97438  0.01415  1.0000
  C   C148      1.0  0.12778  0.99259  0.05038  1.0000
  C   C149      1.0  0.16158  0.16183  0.01480  1.0000
  C   C150      1.0  0.13420  0.00345  0.98565  1.0000
  H   H225      1.0  0.15015  0.92369  0.03489  1.0000
  C   C151      1.0  0.30235  0.94757  0.66958  1.0000
  S   S56       1.0  0.25971  0.08995  0.08968  1.0000
  H   H226      1.0  0.25053  0.02823  0.66728  1.0000
  H   H227      1.0  0.29195  0.14945  0.94178  1.0000
  H   H228      1.0  0.25210  0.87472  0.14437  1.0000
  H   H229      1.0  0.19395  0.01960  0.66354  1.0000
  H   H230      1.0  0.26124  0.13226  0.97053  1.0000
  Fe  Fe27      1.0  0.23015  0.07329  0.13750  1.0000
  H   H231      1.0  0.17312  0.00019  0.70149  1.0000
  H   H232      1.0  0.15669  0.01817  0.99002  1.0000
  C   C152      1.0  0.09074  0.11649  0.94427  1.0000
  C   C153      1.0  0.28159  0.12346  0.95396  1.0000
  H   H233      1.0  0.09317  0.84419  0.70638  1.0000
  H   H234      1.0  0.10974  0.01509  0.05172  1.0000
  H   H235      1.0  0.09535  0.13732  0.12341  1.0000
  C   C154      1.0  0.31426  0.12569  0.00739  1.0000
  Fe  Fe28      1.0  0.27432  0.02890  0.08986  1.0000
  H   H236      1.0  0.28246  0.04830  0.96714  1.0000
  H   H237      1.0  0.21728  0.02716  0.76088  1.0000
  H   H238      1.0  0.09138  0.11666  0.97462  1.0000
  C   C155      1.0  0.15372  0.94589  0.01352  1.0000
  H   H239      1.0  0.26640  0.13581  0.67638  1.0000
  H   H240      1.0  0.24689  0.94780  0.70596  1.0000
  Fe  Fe29      1.0  0.10521  0.03224  0.81149  1.0000
  H   H241      1.0  0.15010  0.15441  0.10987  1.0000
  H   H242      1.0  0.31047  0.91067  0.11077  1.0000
  H   H243      1.0  0.27379  0.93349  0.11742  1.0000
  H   H244      1.0  0.14521  0.81171  0.70843  1.0000
  H   H245      1.0  0.09348  0.93399  0.02881  1.0000
  H   H246      1.0  0.32496  0.15272  0.99802  1.0000
  H   H247      1.0  0.32400  0.97516  0.71487  1.0000
  H   H248      1.0  0.28598  0.85333  0.66531  1.0000
  S   S57       1.0  0.32068  0.08711  0.69815  1.0000
  H   H249      1.0  0.16486  0.80167  0.66627  1.0000
  H   H250      1.0  0.23017  0.96295  0.66332  1.0000
  H   H251      1.0  0.14512  0.69013  0.10540  1.0000
  H   H252      1.0  0.32737  0.67706  0.10440  1.0000
  S   S58       1.0  0.24838  0.01369  0.14081  1.0000
  C   C156      1.0  0.25086  0.16101  0.67722  1.0000
  H   H253      1.0  0.09937  0.14891  0.87856  1.0000
  Fe  Fe30      1.0  0.32308  0.04680  0.82746  1.0000
  H   H254      1.0  0.32381  0.08167  0.11150  1.0000
  C   C157      1.0  0.31587  0.94854  0.70426  1.0000
  S   S59       1.0  0.32224  0.00737  0.07838  1.0000
  C   C158      1.0  0.31815  0.91539  0.72526  1.0000
  H   H255      1.0  0.30610  0.05036  0.00762  1.0000
  H   H256      1.0  0.23168  0.15452  0.69658  1.0000
  C   C159      1.0  0.29628  0.92664  0.13085  1.0000
  H   H257      1.0  0.30822  0.95401  0.13622  1.0000
  H   H258      1.0  0.28858  0.85109  0.13731  1.0000
  H   H259      1.0  0.07869  0.09011  0.93573  1.0000
  H   H260      1.0  0.12674  0.89533  0.65039  1.0000
  Fe  Fe31      1.0  0.44228  0.24751  0.53480  1.0000
  S   S60       1.0  0.48238  0.27255  0.50399  1.0000
  S   S61       1.0  0.41520  0.20099  0.50812  1.0000
  H   H261      1.0  0.51001  0.63853  0.17957  1.0000
  N   N18       1.0  0.55753  0.64365  0.16326  1.0000
  C   C160      1.0  0.40431  0.27616  0.43913  1.0000
  Fe  Fe32      1.0  0.56106  0.25313  0.26017  1.0000
  S   S62       1.0  0.44474  0.21855  0.58956  1.0000
  H   H262      1.0  0.46638  0.37010  0.63750  1.0000
  S   S63       1.0  0.40093  0.28321  0.54848  1.0000
  H   H263      1.0  0.52400  0.22464  0.46480  1.0000
  H   H264      1.0  0.46391  0.21602  0.39269  1.0000
  C   C161      1.0  0.37580  0.41794  0.16505  1.0000
  C   C162      1.0  0.50326  0.38672  0.16647  1.0000
  Fe  Fe33      1.0  0.38100  0.26492  0.30617  1.0000
  S   S64       1.0  0.39369  0.27410  0.24770  1.0000
  S   S65       1.0  0.41582  0.23629  0.34212  1.0000
  S   S66       1.0  0.34627  0.20679  0.19235  1.0000
  C   C163      1.0  0.53571  0.46410  0.26745  1.0000
  C   C164      1.0  0.54389  0.49555  0.24615  1.0000
  C   C165      1.0  0.40485  0.33011  0.39842  1.0000
  H   H265      1.0  0.42552  0.34204  0.41235  1.0000
  H   H266      1.0  0.52002  0.46763  0.29020  1.0000
  C   C166      1.0  0.49648  0.21323  0.26580  1.0000
  C   C167      1.0  0.48463  0.24991  0.26943  1.0000
  C   C168      1.0  0.45989  0.25682  0.29302  1.0000
  C   C169      1.0  0.44687  0.22703  0.31299  1.0000
  C   C170      1.0  0.56779  0.42377  0.22980  1.0000
  C   C171      1.0  0.45818  0.19006  0.30881  1.0000
  H   H267      1.0  0.49495  0.27323  0.25449  1.0000
  H   H268      1.0  0.45111  0.28541  0.29608  1.0000
  S   S67       1.0  0.57141  0.53073  0.18865  1.0000
  H   H269      1.0  0.53435  0.27596  0.39798  1.0000
  H   H270      1.0  0.34391  0.31518  0.39248  1.0000
  C   C172      1.0  0.48293  0.18310  0.28493  1.0000
  H   H271      1.0  0.54753  0.21416  0.36820  1.0000
  H   H272      1.0  0.56986  0.60816  0.20900  1.0000
  S   S68       1.0  0.53037  0.20646  0.24067  1.0000
  H   H273      1.0  0.39151  0.35415  0.38635  1.0000
  C   C173      1.0  0.51108  0.28971  0.53361  1.0000
  C   C174      1.0  0.53969  0.30151  0.51963  1.0000
  S   S69       1.0  0.33275  0.24487  0.49082  1.0000
  H   H274      1.0  0.50882  0.46023  0.18419  1.0000
  C   C175      1.0  0.52919  0.30313  0.59494  1.0000
  C   C176      1.0  0.50577  0.29106  0.57123  1.0000
  C   C177      1.0  0.55790  0.31445  0.58107  1.0000
  H   H275      1.0  0.45573  0.38314  0.21312  1.0000
  H   H276      1.0  0.52488  0.30400  0.62402  1.0000
  H   H277      1.0  0.48352  0.28314  0.58212  1.0000
  N   N19       1.0  0.51159  0.22280  0.40792  1.0000
  S   S70       1.0  0.53639  0.38966  0.28654  1.0000
  Fe  Fe34      1.0  0.37392  0.23418  0.52654  1.0000
  N   N20       1.0  0.38566  0.30770  0.42396  1.0000
  H   H278      1.0  0.52161  0.39129  0.18730  1.0000
  H   H279      1.0  0.39471  0.34405  0.46978  1.0000
  H   H280      1.0  0.49456  0.35725  0.17010  1.0000
  S   S71       1.0  0.54601  0.28542  0.30949  1.0000
  C   C178      1.0  0.37019  0.34968  0.16534  1.0000
  H   H281      1.0  0.50925  0.21472  0.34986  1.0000
  H   H282      1.0  0.53460  0.52325  0.25258  1.0000
  H   H283      1.0  0.50243  0.27847  0.42905  1.0000
  H   H284      1.0  0.47961  0.17748  0.41893  1.0000
  H   H285      1.0  0.56743  0.38459  0.40725  1.0000
  C   C179      1.0  0.56307  0.31402  0.54337  1.0000
  C   C180      1.0  0.51087  0.26452  0.40375  1.0000
  H   H286      1.0  0.41292  0.25717  0.41723  1.0000
  H   H287      1.0  0.57106  0.21187  0.58096  1.0000
  H   H288      1.0  0.36582  0.27319  0.38168  1.0000
  H   H289      1.0  0.47967  0.21474  0.18947  1.0000
  N   N21       1.0  0.47802  0.41476  0.17019  1.0000
  H   H290      1.0  0.44802  0.24752  0.18557  1.0000
  H   H291      1.0  0.43734  0.31233  0.62020  1.0000
  C   C181      1.0  0.53219  0.21228  0.43863  1.0000
  H   H292      1.0  0.54190  0.38322  0.63473  1.0000
  H   H293      1.0  0.38203  0.44393  0.17881  1.0000
  C   C182      1.0  0.54767  0.42825  0.25940  1.0000
  S   S72       1.0  0.38916  0.38233  0.22915  1.0000
  H   H294      1.0  0.49546  0.27336  0.38083  1.0000
  H   H295      1.0  0.42464  0.28666  0.45479  1.0000
  H   H296      1.0  0.55545  0.65431  0.22105  1.0000
  H   H297      1.0  0.39031  0.25833  0.45789  1.0000
  H   H298      1.0  0.36076  0.35637  0.44363  1.0000
  H   H299      1.0  0.54387  0.30071  0.49053  1.0000
  H   H300      1.0  0.39691  0.64809  0.15732  1.0000
  H   H301      1.0  0.47192  0.47523  0.16663  1.0000
  Fe  Fe35      1.0  0.36948  0.32951  0.25347  1.0000
  S   S73       1.0  0.36095  0.32301  0.31338  1.0000
  C   C183      1.0  0.35861  0.29224  0.40427  1.0000
  Fe  Fe36      1.0  0.40091  0.25047  0.60117  1.0000
  H   H302      1.0  0.41323  0.31233  0.37536  1.0000
  H   H303      1.0  0.55616  0.22277  0.43413  1.0000
  C   C184      1.0  0.52324  0.20560  0.37384  1.0000
  S   S74       1.0  0.37000  0.20490  0.58051  1.0000
  C   C185      1.0  0.43229  0.32639  0.64569  1.0000
  S   S75       1.0  0.33588  0.23670  0.29424  1.0000
  C   C186      1.0  0.52683  0.62554  0.16033  1.0000
  C   C187      1.0  0.37817  0.38324  0.18329  1.0000
  H   H304      1.0  0.48232  0.41855  0.22868  1.0000
  H   H305      1.0  0.36029  0.31614  0.47374  1.0000
  C   C188      1.0  0.45993  0.22348  0.17182  1.0000
  C   C189      1.0  0.49037  0.45334  0.16413  1.0000
  Fe  Fe37      1.0  0.56410  0.33631  0.27999  1.0000
  H   H306      1.0  0.34361  0.27514  0.42259  1.0000
  H   H307      1.0  0.56563  0.37606  0.35889  1.0000
  C   C190      1.0  0.37493  0.33224  0.45405  1.0000
  H   H308      1.0  0.37234  0.32264  0.17919  1.0000
  Fe  Fe38      1.0  0.34684  0.25064  0.23602  1.0000
  H   H309      1.0  0.41231  0.20237  0.21424  1.0000
  C   C191      1.0  0.57513  0.45514  0.20759  1.0000
  C   C192      1.0  0.42522  0.17902  0.20078  1.0000
  N   N22       1.0  0.43852  0.19154  0.16556  1.0000
  H   H310      1.0  0.54169  0.22026  0.63728  1.0000
  C   C193      1.0  0.46475  0.41212  0.20731  1.0000
  H   H311      1.0  0.44504  0.43215  0.21081  1.0000
  C   C194      1.0  0.56322  0.49107  0.21591  1.0000
  H   H312      1.0  0.57308  0.48063  0.36448  1.0000
  H   H313      1.0  0.47046  0.22150  0.44086  1.0000
  C   C195      1.0  0.48000  0.20884  0.41543  1.0000
  H   H314      1.0  0.52820  0.59464  0.16668  1.0000
  H   H315      1.0  0.52270  0.17409  0.37514  1.0000
  C   C196      1.0  0.56960  0.63857  0.20074  1.0000
  S   S76       1.0  0.57521  0.30483  0.22851  1.0000
  Fe  Fe39      1.0  0.41358  0.17533  0.56412  1.0000
  H   H316      1.0  0.51138  0.41672  0.64306  1.0000
  H   H317      1.0  0.55153  0.45178  0.39613  1.0000
  H   H318      1.0  0.57725  0.39610  0.22363  1.0000
  H   H319      1.0  0.53350  0.18098  0.44228  1.0000
  H   H320      1.0  0.40068  0.22884  0.15196  1.0000
  H   H321      1.0  0.54984  0.44218  0.34803  1.0000
  C   C197      1.0  0.56643  0.45239  0.64276  1.0000
  H   H322      1.0  0.54791  0.46857  0.62838  1.0000
  C   C198      1.0  0.56548  0.45112  0.37061  1.0000
  Fe  Fe40      1.0  0.39480  0.44657  0.81010  1.0000
  Fe  Fe41      1.0  0.57092  0.51812  0.12881  1.0000
  C   C199      1.0  0.45461  0.48882  0.06149  1.0000
  H   H323      1.0  0.36259  0.44604  0.11556  1.0000
  C   C200      1.0  0.53810  0.45185  0.69958  1.0000
  S   S77       1.0  0.48568  0.45688  0.05949  1.0000
  C   C201      1.0  0.35514  0.38607  0.11174  1.0000
  H   H324      1.0  0.42137  0.44501  0.07342  1.0000
  H   H325      1.0  0.44029  0.22681  0.67266  1.0000
  H   H326      1.0  0.50073  0.61072  0.89856  1.0000
  Fe  Fe42      1.0  0.43658  0.45024  0.74451  1.0000
  H   H327      1.0  0.38474  0.31981  0.71942  1.0000
  H   H328      1.0  0.42235  0.21194  0.11333  1.0000
  C   C202      1.0  0.40062  0.65075  0.12736  1.0000
  S   S78       1.0  0.39706  0.50914  0.82040  1.0000
  H   H329      1.0  0.49824  0.65866  0.88130  1.0000
  H   H330      1.0  0.52778  0.43424  0.72177  1.0000
  H   H331      1.0  0.45298  0.48938  0.90543  1.0000
  C   C203      1.0  0.39336  0.18005  0.69334  1.0000
  S   S79       1.0  0.56810  0.61470  0.02737  1.0000
  H   H332      1.0  0.43561  0.42927  0.14276  1.0000
  H   H333      1.0  0.40111  0.51819  0.91623  1.0000
  C   C204      1.0  0.44186  0.37780  0.68820  1.0000
  Fe  Fe43      1.0  0.53074  0.48630  0.06891  1.0000
  H   H334      1.0  0.38003  0.63594  0.77985  1.0000
  C   C205      1.0  0.44879  0.35903  0.65556  1.0000
  C   C206      1.0  0.42788  0.48305  0.97285  1.0000
  S   S80       1.0  0.38489  0.45201  0.75022  1.0000
  H   H335      1.0  0.43795  0.51158  0.96763  1.0000
  S   S81       1.0  0.36974  0.40716  0.84780  1.0000
  H   H336      1.0  0.44600  0.46553  0.98660  1.0000
  C   C207      1.0  0.44312  0.46126  0.91305  1.0000
  C   C208      1.0  0.40386  0.53864  0.06302  1.0000
  H   H337      1.0  0.40856  0.48673  0.99260  1.0000
  H   H338      1.0  0.37707  0.48910  0.07486  1.0000
  H   H339      1.0  0.55416  0.61538  0.80357  1.0000
  N   N23       1.0  0.41700  0.46514  0.93881  1.0000
  C   C209      1.0  0.40187  0.62300  0.79034  1.0000
  N   N24       1.0  0.42645  0.17766  0.70340  1.0000
  H   H340      1.0  0.50435  0.47481  0.79711  1.0000
  H   H341      1.0  0.51434  0.38866  0.13906  1.0000
  C   C210      1.0  0.40259  0.33070  0.70156  1.0000
  H   H342      1.0  0.34255  0.55049  0.80633  1.0000
  C   C211      1.0  0.39983  0.49994  0.06960  1.0000
  C   C212      1.0  0.55379  0.47539  0.80277  1.0000
  H   H343      1.0  0.56629  0.25904  0.65000  1.0000
  H   H344      1.0  0.38471  0.47685  0.89573  1.0000
  H   H345      1.0  0.52109  0.38221  0.67721  1.0000
  S   S82       1.0  0.46145  0.41961  0.69964  1.0000
  C   C213      1.0  0.45716  0.61678  0.78303  1.0000
  S   S83       1.0  0.38764  0.27234  0.65635  1.0000
  C   C214      1.0  0.41900  0.36335  0.71136  1.0000
  H   H346      1.0  0.55448  0.47214  0.71247  1.0000
  S   S84       1.0  0.44601  0.43942  0.80386  1.0000
  Fe  Fe44      1.0  0.44751  0.50278  0.80854  1.0000
  C   C215      1.0  0.55711  0.61729  0.92889  1.0000
  H   H347      1.0  0.57055  0.62856  0.10853  1.0000
  H   H348      1.0  0.41398  0.37724  0.73693  1.0000
  H   H349      1.0  0.38386  0.42906  0.96573  1.0000
  H   H350      1.0  0.45495  0.58540  0.78308  1.0000
  H   H351      1.0  0.50477  0.63577  0.96302  1.0000
  S   S85       1.0  0.56314  0.50331  0.02403  1.0000
  C   C216      1.0  0.42502  0.47503  0.06881  1.0000
  H   H352      1.0  0.42179  0.40878  0.96102  1.0000
  H   H353      1.0  0.34379  0.63013  0.10488  1.0000
  H   H354      1.0  0.46420  0.64206  0.07307  1.0000
  H   H355      1.0  0.50050  0.45633  0.13636  1.0000
  C   C217      1.0  0.36439  0.41925  0.12931  1.0000
  H   H356      1.0  0.43563  0.44724  0.88730  1.0000
  C   C218      1.0  0.42444  0.62504  0.73008  1.0000
  C   C219      1.0  0.40898  0.31249  0.66856  1.0000
  N   N25       1.0  0.53584  0.64855  0.91877  1.0000
  C   C220      1.0  0.39264  0.48901  0.92202  1.0000
  C   C221      1.0  0.34584  0.65905  0.11678  1.0000
  C   C222      1.0  0.33101  0.41820  0.90538  1.0000
  C   C223      1.0  0.52383  0.48885  0.80945  1.0000
  H   H357      1.0  0.37195  0.49135  0.93997  1.0000
  H   H358      1.0  0.46528  0.21506  0.71018  1.0000
  H   H359      1.0  0.39675  0.41235  0.92204  1.0000
  C   C224      1.0  0.40431  0.42719  0.94730  1.0000
  H   H360      1.0  0.46213  0.44381  0.92498  1.0000
  H   H361      1.0  0.52737  0.62739  0.86474  1.0000
  S   S86       1.0  0.33703  0.38820  0.06889  1.0000
  H   H362      1.0  0.39606  0.18106  0.13664  1.0000
  C   C225      1.0  0.53109  0.40133  0.65601  1.0000
  H   H363      1.0  0.40022  0.62166  0.11558  1.0000
  C   C226      1.0  0.33970  0.43048  0.87049  1.0000
  H   H364      1.0  0.41794  0.18193  0.76113  1.0000
  C   C227      1.0  0.51926  0.52003  0.83228  1.0000
  H   H365      1.0  0.56089  0.21982  0.68084  1.0000
  S   S87       1.0  0.56723  0.46015  0.10469  1.0000
  H   H366      1.0  0.50512  0.59982  0.04886  1.0000
  H   H367      1.0  0.57080  0.60752  0.90495  1.0000
  H   H368      1.0  0.43671  0.58246  0.04982  1.0000
  Fe  Fe45      1.0  0.39158  0.51417  0.75974  1.0000
  H   H369      1.0  0.40430  0.63070  0.81962  1.0000
  C   C228      1.0  0.53865  0.64446  0.04311  1.0000
  H   H370      1.0  0.39890  0.59170  0.78899  1.0000
  S   S88       1.0  0.53134  0.54237  0.09714  1.0000
  C   C229      1.0  0.44069  0.21568  0.70113  1.0000
  S   S89       1.0  0.48162  0.53577  0.84208  1.0000
  C   C230      1.0  0.45885  0.52760  0.05461  1.0000
  C   C231      1.0  0.48645  0.65366  0.06553  1.0000
  H   H371      1.0  0.33304  0.47279  0.82851  1.0000
  H   H372      1.0  0.55718  0.45074  0.78577  1.0000
  H   H373      1.0  0.42815  0.23661  0.71837  1.0000
  H   H374      1.0  0.46339  0.40585  0.11468  1.0000
  H   H375      1.0  0.48142  0.53808  0.04723  1.0000
  C   C232      1.0  0.54485  0.53840  0.84757  1.0000
  H   H376      1.0  0.51879  0.46854  0.68726  1.0000
  H   H377      1.0  0.47782  0.62397  0.76626  1.0000
  H   H378      1.0  0.34094  0.39256  0.91684  1.0000
  H   H379      1.0  0.54141  0.56230  0.86532  1.0000
  N   N26       1.0  0.42893  0.63547  0.76879  1.0000
  H   H380      1.0  0.54436  0.59243  0.94011  1.0000
  C   C233      1.0  0.43350  0.55263  0.05569  1.0000
  C   C234      1.0  0.51455  0.63575  0.88970  1.0000
  C   C235      1.0  0.35873  0.35110  0.12950  1.0000
  S   S90       1.0  0.37128  0.56841  0.06171  1.0000
  H   H381      1.0  0.35181  0.32523  0.11597  1.0000
  C   C236      1.0  0.56362  0.22768  0.65152  1.0000
  H   H382      1.0  0.39037  0.18981  0.66458  1.0000
  H   H383      1.0  0.38174  0.64930  0.05755  1.0000
  C   C237      1.0  0.50971  0.62967  0.05230  1.0000
  S   S91       1.0  0.36236  0.55745  0.73052  1.0000
  H   H384      1.0  0.42426  0.66246  0.12306  1.0000
  H   H385      1.0  0.46229  0.62543  0.81158  1.0000
  H   H386      1.0  0.40269  0.63746  0.71878  1.0000
  H   H387      1.0  0.42271  0.59375  0.72681  1.0000
  S   S92       1.0  0.44248  0.51314  0.74849  1.0000
  C   C238      1.0  0.41339  0.20398  0.14080  1.0000
  N   N27       1.0  0.55365  0.42800  0.67199  1.0000
  H   H388      1.0  0.38074  0.20051  0.71096  1.0000
  Fe  Fe46      1.0  0.56654  0.55782  0.05492  1.0000
  H   H389      1.0  0.44399  0.63498  0.71280  1.0000
  H   H390      1.0  0.46973  0.23420  0.14565  1.0000
  C   C239      1.0  0.32943  0.57331  0.75382  1.0000
  C   C240      1.0  0.56834  0.63989  0.80950  1.0000
  S   S93       1.0  0.33738  0.48321  0.01301  1.0000
  C   C241      1.0  0.51774  0.66009  0.95105  1.0000
  H   H391      1.0  0.57018  0.38814  0.71213  1.0000
  H   H392      1.0  0.34077  0.65675  0.14651  1.0000
  C   C242      1.0  0.45373  0.40685  0.14281  1.0000
  H   H393      1.0  0.51721  0.62855  0.13227  1.0000
  Fe  Fe47      1.0  0.33068  0.52940  0.05412  1.0000
  H   H394      1.0  0.57394  0.62641  0.95015  1.0000
  C   C243      1.0  0.57494  0.52574  0.83990  1.0000
  H   H395      1.0  0.53313  0.67124  0.97280  1.0000
  H   H396      1.0  0.56993  0.67262  0.88319  1.0000
  H   H397      1.0  0.44206  0.37926  0.14821  1.0000
  H   H398      1.0  0.33751  0.02046  0.51670  1.0000
  C   C244      1.0  0.36554  0.76194  0.62990  1.0000
  H   H399      1.0  0.40841  0.15546  0.19693  1.0000
  H   H400      1.0  0.57759  0.69860  0.15512  1.0000
  N   N28       1.0  0.46030  0.81726  0.60021  1.0000
  H   H401      1.0  0.35432  0.12743  0.57708  1.0000
  C   C245      1.0  0.35269  0.80587  0.19930  1.0000
  H   H402      1.0  0.42932  0.79568  0.55929  1.0000
  H   H403      1.0  0.50765  0.82992  0.58678  1.0000
  H   H404      1.0  0.33486  0.92217  0.18896  1.0000
  H   H405      1.0  0.44779  0.16691  0.32391  1.0000
  C   C246      1.0  0.43504  0.83370  0.62229  1.0000
  C   C247      1.0  0.55464  0.68452  0.15487  1.0000
  C   C248      1.0  0.33876  0.10735  0.62955  1.0000
  C   C249      1.0  0.45014  0.81418  0.56178  1.0000
  S   S94       1.0  0.54876  0.76912  0.23325  1.0000
  H   H406      1.0  0.44399  0.84241  0.55012  1.0000
  S   S95       1.0  0.47279  0.77896  0.17653  1.0000
  H   H407      1.0  0.46864  0.80168  0.54441  1.0000
  H   H408      1.0  0.39958  0.71728  0.63109  1.0000
  H   H409      1.0  0.36183  0.95832  0.50222  1.0000
  Fe  Fe48      1.0  0.52277  0.79278  0.18506  1.0000
  H   H410      1.0  0.33442  0.80928  0.63642  1.0000
  C   C250      1.0  0.35395  0.79398  0.64767  1.0000
  H   H411      1.0  0.33000  0.93312  0.57330  1.0000
  C   C251      1.0  0.46813  0.77911  0.61438  1.0000
  C   C252      1.0  0.39872  0.07865  0.63790  1.0000
  H   H412      1.0  0.48308  0.87087  0.59165  1.0000
  H   H413      1.0  0.41352  0.81668  0.61981  1.0000
  H   H414      1.0  0.42934  0.86310  0.61341  1.0000
  C   C253      1.0  0.48786  0.84192  0.60247  1.0000
  H   H415      1.0  0.33281  0.13403  0.16290  1.0000
  H   H416      1.0  0.37383  0.71311  0.15616  1.0000
  H   H417      1.0  0.49596  0.84487  0.63122  1.0000
  H   H418      1.0  0.48785  0.76634  0.59918  1.0000
  S   S96       1.0  0.42679  0.87271  0.18132  1.0000
  C   C254      1.0  0.34310  0.79689  0.16392  1.0000
  S   S97       1.0  0.51657  0.85507  0.17580  1.0000
  S   S98       1.0  0.42010  0.11343  0.57624  1.0000
  C   C255      1.0  0.36074  0.11275  0.60195  1.0000
  H   H419      1.0  0.44816  0.75939  0.61226  1.0000
  H   H420      1.0  0.33000  0.94665  0.47255  1.0000
  C   C256      1.0  0.37837  0.82940  0.20469  1.0000
  H   H421      1.0  0.42205  0.06801  0.64138  1.0000
  H   H422      1.0  0.38554  0.83665  0.23211  1.0000
  H   H423      1.0  0.34060  0.79441  0.22259  1.0000
  S   S99       1.0  0.34998  0.74772  0.58806  1.0000
  C   C257      1.0  0.39102  0.09962  0.60670  1.0000
  H   H424      1.0  0.34031  0.91519  0.50890  1.0000
  Fe  Fe49      1.0  0.46780  0.84020  0.16153  1.0000
  H   H425      1.0  0.53966  0.69939  0.17501  1.0000
  H   H426      1.0  0.35137  0.97645  0.56707  1.0000
  C   C258      1.0  0.33826  0.94576  0.50140  1.0000
  H   H427      1.0  0.56544  0.15674  0.62372  1.0000
  H   H428      1.0  0.57421  0.81373  0.30261  1.0000
  C   C259      1.0  0.39083  0.74228  0.64469  1.0000
  H   H429      1.0  0.49221  0.15472  0.28226  1.0000
  H   H430      1.0  0.44349  0.16926  0.22010  1.0000
  S   S100      1.0  0.54601  0.78754  0.64324  1.0000
  H   H431      1.0  0.47517  0.78029  0.64354  1.0000
  H   H432      1.0  0.47486  0.14972  0.16665  1.0000
  H   H433      1.0  0.44388  0.94755  0.16178  1.0000
  H   H434      1.0  0.44287  0.99758  0.15242  1.0000
  H   H435      1.0  0.33687  0.87988  0.16226  1.0000
  C   C260      1.0  0.39511  0.84286  0.17469  1.0000
  C   C261      1.0  0.54329  0.14636  0.89657  1.0000
  Fe  Fe50      1.0  0.48562  0.77140  0.11785  1.0000
  S   S101      1.0  0.55034  0.77775  0.75242  1.0000
  C   C262      1.0  0.37838  0.71365  0.12624  1.0000
  C   C263      1.0  0.55578  0.67640  0.80689  1.0000
  H   H436      1.0  0.33173  0.11063  0.02444  1.0000
  H   H437      1.0  0.43459  0.98756  0.05190  1.0000
  H   H438      1.0  0.39290  0.98976  0.11933  1.0000
  H   H439      1.0  0.36132  0.13444  0.10575  1.0000
  S   S102      1.0  0.49671  0.83403  0.71826  1.0000
  C   C264      1.0  0.40172  0.96195  0.10942  1.0000
  H   H440      1.0  0.39415  0.93970  0.12919  1.0000
  Fe  Fe51      1.0  0.46246  0.79083  0.73706  1.0000
  H   H441      1.0  0.53889  0.01033  0.94081  1.0000
  C   C265      1.0  0.38262  0.67779  0.07051  1.0000
  S   S103      1.0  0.48246  0.78436  0.79306  1.0000
  S   S104      1.0  0.46416  0.72138  0.08974  1.0000
  H   H442      1.0  0.52511  0.73749  0.06166  1.0000
  Fe  Fe52      1.0  0.51909  0.82372  0.77256  1.0000
  C   C266      1.0  0.52086  0.70740  0.05946  1.0000
  Fe  Fe53      1.0  0.51130  0.73896  0.76773  1.0000
  C   C267      1.0  0.38643  0.83248  0.13931  1.0000
  H   H443      1.0  0.41875  0.13427  0.74397  1.0000
  H   H444      1.0  0.34289  0.11825  0.94249  1.0000
  H   H445      1.0  0.45414  0.16004  0.74934  1.0000
  S   S105      1.0  0.48812  0.74179  0.71297  1.0000
  S   S106      1.0  0.47659  0.83189  0.10191  1.0000
  Fe  Fe54      1.0  0.52488  0.78447  0.69940  1.0000
  H   H446      1.0  0.43728  0.91930  0.06392  1.0000
  S   S107      1.0  0.51684  0.68251  0.79529  1.0000
  H   H447      1.0  0.35287  0.80301  0.10647  1.0000
  H   H448      1.0  0.56755  0.13561  0.94691  1.0000
  S   S108      1.0  0.53640  0.77981  0.12739  1.0000
  H   H449      1.0  0.46780  0.15150  0.68276  1.0000
  Fe  Fe55      1.0  0.33897  0.05618  0.74750  1.0000
  H   H450      1.0  0.43859  0.16021  0.64892  1.0000
  C   C268      1.0  0.42942  0.16288  0.74112  1.0000
  H   H451      1.0  0.45298  0.68709  0.75638  1.0000
  C   C269      1.0  0.54759  0.01803  0.91309  1.0000
  S   S109      1.0  0.41245  0.80602  0.73254  1.0000
  H   H452      1.0  0.35921  0.83170  0.69338  1.0000
  C   C270      1.0  0.33153  0.09239  0.95369  1.0000
  H   H453      1.0  0.45429  0.96214  0.78797  1.0000
  H   H454      1.0  0.40147  0.72693  0.12196  1.0000
  H   H455      1.0  0.56635  0.69502  0.03856  1.0000
  C   C271      1.0  0.54558  0.95018  0.05831  1.0000
  H   H456      1.0  0.56698  0.94236  0.82072  1.0000
  H   H457      1.0  0.54448  0.68930  0.12736  1.0000
  C   C272      1.0  0.40513  0.75532  0.67665  1.0000
  H   H458      1.0  0.49703  0.97436  0.91147  1.0000
  H   H459      1.0  0.47596  0.96976  0.13935  1.0000
  S   S110      1.0  0.52549  0.11831  0.70176  1.0000
  C   C273      1.0  0.36015  0.80995  0.13391  1.0000
  H   H460      1.0  0.51052  0.07786  0.90013  1.0000
  S   S111      1.0  0.53512  0.87261  0.80630  1.0000
  C   C274      1.0  0.37696  0.07398  0.66589  1.0000
  N   N29       1.0  0.42864  0.90981  0.78881  1.0000
  C   C275      1.0  0.45024  0.96966  0.14135  1.0000
  H   H461      1.0  0.52508  0.12269  0.77963  1.0000
  Fe  Fe56      1.0  0.46105  0.12107  0.03718  1.0000
  S   S112      1.0  0.41878  0.14073  0.06694  1.0000
  S   S113      1.0  0.45899  0.09713  0.98079  1.0000
  Fe  Fe57      1.0  0.38884  0.03731  0.80272  1.0000
  S   S114      1.0  0.37575  0.01121  0.74929  1.0000
  S   S115      1.0  0.43799  0.04558  0.82027  1.0000
  H   H462      1.0  0.41570  0.96602  0.80525  1.0000
  H   H463      1.0  0.43765  0.02066  0.08893  1.0000
  C   C276      1.0  0.50013  0.09938  0.73421  1.0000
  C   C277      1.0  0.50562  0.10560  0.77127  1.0000
  C   C278      1.0  0.48579  0.09008  0.79753  1.0000
  C   C279      1.0  0.46071  0.06770  0.78682  1.0000
  C   C280      1.0  0.45494  0.06186  0.74966  1.0000
  C   C281      1.0  0.47474  0.07761  0.72334  1.0000
  S   S116      1.0  0.50193  0.15832  0.02600  1.0000
  H   H464      1.0  0.48998  0.09546  0.82617  1.0000
  H   H465      1.0  0.43589  0.04428  0.74115  1.0000
  Fe  Fe58      1.0  0.52985  0.10804  0.04453  1.0000
  C   C282      1.0  0.51478  0.89716  0.03757  1.0000
  H   H466      1.0  0.55270  0.01017  0.84113  1.0000
  Fe  Fe59      1.0  0.52632  0.84142  0.11721  1.0000
  C   C283      1.0  0.45674  0.88601  0.78777  1.0000
  H   H467      1.0  0.47202  0.92356  0.09048  1.0000
  H   H468      1.0  0.41172  0.69225  0.76035  1.0000
  H   H469      1.0  0.47094  0.07199  0.69466  1.0000
  H   H470      1.0  0.38371  0.06001  0.69084  1.0000
  C   C284      1.0  0.34891  0.04455  0.07555  1.0000
  H   H471      1.0  0.56413  0.73599  0.81492  1.0000
  C   C285      1.0  0.36535  0.10813  0.09143  1.0000
  C   C286      1.0  0.39188  0.10380  0.07002  1.0000
  C   C287      1.0  0.39685  0.06984  0.05132  1.0000
  C   C288      1.0  0.37536  0.04028  0.05402  1.0000
  C   C289      1.0  0.39380  0.78768  0.69408  1.0000
  C   C290      1.0  0.53865  0.91141  0.05935  1.0000
  H   H472      1.0  0.41722  0.06632  0.03465  1.0000
  H   H473      1.0  0.37905  0.01429  0.03903  1.0000
  Fe  Fe60      1.0  0.50264  0.12981  0.97141  1.0000
  H   H474      1.0  0.51600  0.03015  0.82885  1.0000
  H   H475      1.0  0.45151  0.85760  0.77635  1.0000
  C   C291      1.0  0.44242  0.15188  0.67793  1.0000
  H   H476      1.0  0.41029  0.88716  0.73884  1.0000
  H   H477      1.0  0.39007  0.95625  0.08287  1.0000
  H   H478      1.0  0.47995  0.05213  0.87872  1.0000
  C   C292      1.0  0.53446  0.03039  0.85004  1.0000
  C   C293      1.0  0.49767  0.92170  0.01500  1.0000
  C   C294      1.0  0.40501  0.89098  0.81171  1.0000
  H   H479      1.0  0.48632  0.98441  0.86505  1.0000
  S   S117      1.0  0.48882  0.07325  0.06080  1.0000
  H   H480      1.0  0.50970  0.86713  0.03787  1.0000
  S   S118      1.0  0.56971  0.11646  0.08304  1.0000
  H   H481      1.0  0.38422  0.90924  0.81512  1.0000
  H   H482      1.0  0.57426  0.04825  0.03938  1.0000
  H   H483      1.0  0.46569  0.16799  0.12199  1.0000
  C   C295      1.0  0.34713  0.08895  0.66202  1.0000
  C   C296      1.0  0.44497  0.99213  0.07939  1.0000
  H   H484      1.0  0.43851  0.90157  0.10997  1.0000
  C   C297      1.0  0.54518  0.14610  0.85845  1.0000
  C   C298      1.0  0.49959  0.04943  0.89815  1.0000
  C   C299      1.0  0.43634  0.94719  0.80440  1.0000
  H   H485      1.0  0.39516  0.93230  0.75111  1.0000
  H   H486      1.0  0.47051  0.99269  0.07567  1.0000
  S   S119      1.0  0.35779  0.00045  0.83686  1.0000
  Fe  Fe61      1.0  0.49019  0.05204  0.00327  1.0000
  H   H487      1.0  0.47514  0.89913  0.77065  1.0000
  Fe  Fe62      1.0  0.34185  0.97834  0.78280  1.0000
  H   H488      1.0  0.36077  0.73272  0.11371  1.0000
  H   H489      1.0  0.53286  0.00485  0.03633  1.0000
  H   H490      1.0  0.56495  0.99627  0.90515  1.0000
  S   S120      1.0  0.48115  0.99140  0.98858  1.0000
  H   H491      1.0  0.52226  0.96045  0.87478  1.0000
  S   S121      1.0  0.55907  0.88126  0.08896  1.0000
  H   H492      1.0  0.42471  0.74020  0.68784  1.0000
  H   H493      1.0  0.41400  0.88437  0.83948  1.0000
  H   H494      1.0  0.43542  0.68609  0.80046  1.0000
  N   N30       1.0  0.52200  0.02024  0.88637  1.0000
  H   H495      1.0  0.43375  0.92895  0.73325  1.0000
  N   N31       1.0  0.43577  0.96219  0.10550  1.0000
  H   H496      1.0  0.46668  0.88156  0.81553  1.0000
  C   C300      1.0  0.56792  0.88810  0.74423  1.0000
  C   C301      1.0  0.50626  0.98313  0.88430  1.0000
  C   C302      1.0  0.44632  0.92502  0.09183  1.0000
  C   C303      1.0  0.56026  0.89984  0.77953  1.0000
  H   H497      1.0  0.47919  0.91062  0.99821  1.0000
  C   C304      1.0  0.50408  0.96058  0.01472  1.0000
  C   C305      1.0  0.41656  0.91485  0.75131  1.0000
  S   S122      1.0  0.53392  0.08228  0.98879  1.0000
  C   C306      1.0  0.52802  0.97482  0.03635  1.0000
  H   H498      1.0  0.56400  0.96133  0.07515  1.0000
  C   C307      1.0  0.57188  0.13236  0.84127  1.0000
  S   S123      1.0  0.35545  0.08589  0.79789  1.0000
  H   H499      1.0  0.39959  0.84246  0.11608  1.0000
  H   H500      1.0  0.44514  0.94447  0.83284  1.0000
  H   H501      1.0  0.48959  0.04250  0.92534  1.0000
  H   H502      1.0  0.43395  0.12241  0.68108  1.0000
  H   H503      1.0  0.39703  0.86391  0.79918  1.0000
  H   H504      1.0  0.54486  0.05926  0.85004  1.0000
  H   H505      1.0  0.50085  0.68290  0.94419  1.0000
  C   C308      1.0  0.36797  0.80666  0.67989  1.0000
  H   H506      1.0  0.57312  0.13175  0.81184  1.0000
  H   H507      1.0  0.38181  0.15196  0.69582  1.0000
  C   C309      1.0  0.49227  0.69240  0.06988  1.0000
  H   H508      1.0  0.43998  0.13516  0.14366  1.0000
  H   H509      1.0  0.52574  0.15584  0.84226  1.0000
  C   C310      1.0  0.54408  0.68342  0.04612  1.0000
  S   S124      1.0  0.33274  0.91753  0.76982  1.0000
  H   H510      1.0  0.34916  0.07643  0.96984  1.0000
  H   H511      1.0  0.53906  0.70438  0.89484  1.0000
  H   H512      1.0  0.55902  0.86177  0.73365  1.0000
  C   C311      1.0  0.43230  0.67707  0.77161  1.0000
  C   C312      1.0  0.34393  0.07843  0.09435  1.0000
  C   C313      1.0  0.56849  0.13406  0.91749  1.0000
  Fe  Fe63      1.0  0.57281  0.10112  0.72011  1.0000
  C   C314      1.0  0.55413  0.68120  0.90552  1.0000
  H   H513      1.0  0.55977  0.04576  0.91531  1.0000
  H   H514      1.0  0.36510  0.69604  0.05667  1.0000
  S   S125      1.0  0.50862  0.15955  0.91767  1.0000
  H   H515      1.0  0.40584  0.69001  0.06466  1.0000
  N   N32       1.0  0.37687  0.67529  0.11024  1.0000
  C   C315      1.0  0.57244  0.93363  0.79321  1.0000
  C   C316      1.0  0.57410  0.70791  0.81499  1.0000
  H   H516      1.0  0.56897  0.69313  0.92752  1.0000
  C   C317      1.0  0.45557  0.15968  0.14883  1.0000
  H   H517      1.0  0.44120  0.83458  0.65184  1.0000
  H   H518      1.0  0.67939  0.35611  0.39145  1.0000
  Fe  Fe64      1.0  0.64490  0.44338  0.58353  1.0000
  C   C318      1.0  0.64556  0.31142  0.39048  1.0000
  H   H519      1.0  0.78511  0.30054  0.42551  1.0000
  H   H520      1.0  0.61213  0.20310  0.58249  1.0000
  H   H521      1.0  0.59040  0.45170  0.18445  1.0000
  Fe  Fe65      1.0  0.62531  0.36182  0.58608  1.0000
  C   C319      1.0  0.75014  0.34939  0.49404  1.0000
  H   H522      1.0  0.59843  0.28741  0.46123  1.0000
  C   C320      1.0  0.61638  0.30203  0.44619  1.0000
  C   C321      1.0  0.66550  0.19726  0.19929  1.0000
  H   H523      1.0  0.61915  0.45450  0.33365  1.0000
  H   H524      1.0  0.81458  0.35890  0.44155  1.0000
  C   C322      1.0  0.66194  0.34099  0.40685  1.0000
  Fe  Fe66      1.0  0.62129  0.29477  0.25560  1.0000
  S   S126      1.0  0.66586  0.29746  0.22480  1.0000
  S   S127      1.0  0.61139  0.33113  0.30426  1.0000
  Fe  Fe67      1.0  0.69329  0.38197  0.59378  1.0000
  C   C323      1.0  0.75343  0.36559  0.42999  1.0000
  S   S128      1.0  0.68982  0.43148  0.55563  1.0000
  C   C324      1.0  0.75263  0.42223  0.17869  1.0000
  H   H525      1.0  0.59977  0.43581  0.43143  1.0000
  S   S129      1.0  0.78258  0.30755  0.32858  1.0000
  C   C325      1.0  0.74958  0.30376  0.30074  1.0000
  C   C326      1.0  0.71981  0.30208  0.31570  1.0000
  C   C327      1.0  0.69389  0.29910  0.29258  1.0000
  C   C328      1.0  0.69774  0.29802  0.25463  1.0000
  C   C329      1.0  0.72747  0.29870  0.23998  1.0000
  C   C330      1.0  0.75322  0.30217  0.26291  1.0000
  H   H526      1.0  0.71679  0.30289  0.34501  1.0000
  H   H527      1.0  0.67105  0.29741  0.30409  1.0000
  H   H528      1.0  0.73058  0.29670  0.21081  1.0000
  H   H529      1.0  0.77601  0.30358  0.25136  1.0000
  C   C331      1.0  0.75650  0.18720  0.15347  1.0000
  C   C332      1.0  0.61027  0.42560  0.33996  1.0000
  H   H530      1.0  0.81232  0.34625  0.48902  1.0000
  S   S130      1.0  0.65122  0.39805  0.62574  1.0000
  H   H531      1.0  0.59597  0.41651  0.31627  1.0000
  H   H532      1.0  0.71765  0.37189  0.21446  1.0000
  H   H533      1.0  0.76857  0.63311  0.19191  1.0000
  N   N33       1.0  0.59217  0.42509  0.37420  1.0000
  C   C333      1.0  0.77170  0.40990  0.57456  1.0000
  C   C334      1.0  0.79850  0.42014  0.55531  1.0000
  H   H534      1.0  0.74730  0.37976  0.50159  1.0000
  S   S131      1.0  0.61600  0.40857  0.54574  1.0000
  H   H535      1.0  0.75266  0.42961  0.57601  1.0000
  H   H536      1.0  0.63990  0.20637  0.64177  1.0000
  Fe  Fe68      1.0  0.66179  0.39195  0.52158  1.0000
  H   H537      1.0  0.62765  0.33955  0.49041  1.0000
  H   H538      1.0  0.77152  0.35222  0.19825  1.0000
  C   C335      1.0  0.63285  0.33152  0.46266  1.0000
  H   H539      1.0  0.70384  0.34689  0.17504  1.0000
  H   H540      1.0  0.64219  0.25598  0.16085  1.0000
  S   S132      1.0  0.59887  0.25979  0.38771  1.0000
  C   C336      1.0  0.62240  0.29250  0.40988  1.0000
  H   H541      1.0  0.65072  0.30333  0.36279  1.0000
  C   C337      1.0  0.58084  0.38622  0.38138  1.0000
  S   S133      1.0  0.73779  0.36230  0.61889  1.0000
  H   H542      1.0  0.79412  0.32261  0.60458  1.0000
  C   C338      1.0  0.77154  0.30459  0.45111  1.0000
  S   S134      1.0  0.82395  0.28686  0.15398  1.0000
  C   C339      1.0  0.62575  0.23271  0.16763  1.0000
  C   C340      1.0  0.79523  0.34991  0.59093  1.0000
  C   C341      1.0  0.75751  0.21220  0.18291  1.0000
  S   S135      1.0  0.66815  0.34112  0.55790  1.0000
  H   H543      1.0  0.77926  0.26121  0.20573  1.0000
  H   H544      1.0  0.79879  0.39177  0.47398  1.0000
  C   C342      1.0  0.59279  0.21849  0.59598  1.0000
  H   H545      1.0  0.71332  0.62978  0.17566  1.0000
  N   N34       1.0  0.76877  0.34521  0.46043  1.0000
  S   S136      1.0  0.60805  0.23995  0.28245  1.0000
  H   H546      1.0  0.78330  0.28829  0.47328  1.0000
  H   H547      1.0  0.59381  0.64874  0.20288  1.0000
  H   H548      1.0  0.77533  0.59069  0.16618  1.0000
  Fe  Fe69      1.0  0.82401  0.30246  0.29153  1.0000
  S   S137      1.0  0.67431  0.38965  0.46242  1.0000
  S   S138      1.0  0.62939  0.50077  0.60100  1.0000
  N   N35       1.0  0.59045  0.20814  0.63506  1.0000
  C   C343      1.0  0.79995  0.36123  0.46645  1.0000
  H   H549      1.0  0.62031  0.46700  0.40094  1.0000
  H   H550      1.0  0.79983  0.44749  0.54185  1.0000
  H   H551      1.0  0.59726  0.24934  0.59238  1.0000
  C   C344      1.0  0.65537  0.35119  0.44285  1.0000
  H   H552      1.0  0.69417  0.39591  0.18123  1.0000
  H   H553      1.0  0.76676  0.36290  0.40407  1.0000
  Fe  Fe70      1.0  0.59427  0.27686  0.32908  1.0000
  H   H554      1.0  0.75764  0.32836  0.15836  1.0000
  H   H555      1.0  0.78692  0.36399  0.15414  1.0000
  C   C345      1.0  0.77018  0.37489  0.59273  1.0000
  H   H556      1.0  0.72505  0.56465  0.63639  1.0000
  H   H557      1.0  0.68674  0.54072  0.59140  1.0000
  H   H558      1.0  0.72645  0.33754  0.49052  1.0000
  C   C346      1.0  0.77815  0.24269  0.18263  1.0000
  H   H559      1.0  0.68698  0.50643  0.15320  1.0000
  H   H560      1.0  0.65508  0.20396  0.22627  1.0000
  C   C347      1.0  0.82362  0.39513  0.55373  1.0000
  S   S139      1.0  0.58739  0.32720  0.61156  1.0000
  C   C348      1.0  0.68307  0.53621  0.62034  1.0000
  C   C349      1.0  0.65651  0.51735  0.63243  1.0000
  H   H561      1.0  0.75065  0.39631  0.43610  1.0000
  H   H562      1.0  0.74046  0.44172  0.63854  1.0000
  H   H563      1.0  0.60032  0.36580  0.38388  1.0000
  H   H564      1.0  0.75965  0.41974  0.20787  1.0000
  N   N36       1.0  0.64182  0.19576  0.17013  1.0000
  H   H565      1.0  0.73454  0.44469  0.17693  1.0000
  H   H566      1.0  0.76112  0.33464  0.51772  1.0000
  H   H567      1.0  0.61463  0.24018  0.19403  1.0000
  H   H568      1.0  0.63300  0.41906  0.40725  1.0000
  C   C350      1.0  0.70471  0.54961  0.64572  1.0000
  H   H569      1.0  0.72988  0.35408  0.42482  1.0000
  C   C351      1.0  0.79723  0.24931  0.15263  1.0000
  C   C352      1.0  0.77407  0.62220  0.16420  1.0000
  C   C353      1.0  0.61209  0.43736  0.40478  1.0000
  H   H570      1.0  0.74289  0.20749  0.20648  1.0000
  H   H571      1.0  0.68312  0.21953  0.19356  1.0000
  H   H572      1.0  0.57898  0.43541  0.62188  1.0000
  H   H573      1.0  0.74839  0.29158  0.44659  1.0000
  H   H574      1.0  0.63055  0.40611  0.34169  1.0000
  H   H575      1.0  0.82539  0.18700  0.63046  1.0000
  N   N37       1.0  0.74115  0.38574  0.16438  1.0000
  C   C354      1.0  0.82160  0.35970  0.57090  1.0000
  H   H576      1.0  0.58526  0.32264  0.53258  1.0000
  H   H577      1.0  0.82222  0.17706  0.18454  1.0000
  H   H578      1.0  0.77303  0.43260  0.16303  1.0000
  C   C355      1.0  0.71301  0.37460  0.18465  1.0000
  C   C356      1.0  0.76533  0.35636  0.16899  1.0000
  H   H579      1.0  0.79749  0.63296  0.15697  1.0000
  H   H580      1.0  0.72487  0.42836  0.73710  1.0000
  S   S140      1.0  0.61652  0.47638  0.80923  1.0000
  H   H581      1.0  0.63054  0.48409  0.88896  1.0000
  H   H582      1.0  0.79134  0.40658  0.71429  1.0000
  C   C357      1.0  0.70303  0.46199  0.05833  1.0000
  H   H583      1.0  0.70754  0.44982  0.03181  1.0000
  H   H584      1.0  0.68783  0.47746  0.89391  1.0000
  H   H585      1.0  0.60738  0.23244  0.14632  1.0000
  H   H586      1.0  0.59465  0.54013  0.85157  1.0000
  H   H587      1.0  0.67515  0.20872  0.12835  1.0000
  C   C358      1.0  0.65195  0.51102  0.66974  1.0000
  C   C359      1.0  0.79676  0.46002  0.85870  1.0000
  C   C360      1.0  0.65539  0.48764  0.95603  1.0000
  H   H588      1.0  0.63344  0.49037  0.97173  1.0000
  H   H589      1.0  0.69248  0.63643  0.75402  1.0000
  H   H590      1.0  0.79520  0.44588  0.88492  1.0000
  H   H591      1.0  0.63995  0.18716  0.11202  1.0000
  C   C361      1.0  0.59926  0.63498  0.82003  1.0000
  H   H592      1.0  0.67446  0.48548  0.97644  1.0000
  H   H593      1.0  0.78831  0.47227  0.65827  1.0000
  H   H594      1.0  0.63885  0.66061  0.74786  1.0000
  N   N38       1.0  0.65478  0.45425  0.93174  1.0000
  C   C362      1.0  0.79565  0.22502  0.12250  1.0000
  C   C363      1.0  0.61777  0.66659  0.82728  1.0000
  Fe  Fe71      1.0  0.60005  0.48286  0.06260  1.0000
  H   H595      1.0  0.73126  0.47854  0.73268  1.0000
  H   H596      1.0  0.62881  0.42032  0.96978  1.0000
  H   H597      1.0  0.78201  0.62986  0.09167  1.0000
  Fe  Fe72      1.0  0.65290  0.52102  0.81449  1.0000
  C   C364      1.0  0.68421  0.45195  0.91132  1.0000
  C   C365      1.0  0.62867  0.45787  0.90579  1.0000
  H   H598      1.0  0.65037  0.39365  0.93664  1.0000
  S   S141      1.0  0.65655  0.66093  0.83961  1.0000
  C   C366      1.0  0.67272  0.46427  0.07143  1.0000
  C   C367      1.0  0.74259  0.45024  0.73072  1.0000
  H   H599      1.0  0.65883  0.51441  0.94038  1.0000
  C   C368      1.0  0.77266  0.40779  0.69330  1.0000
  H   H600      1.0  0.68476  0.42690  0.89297  1.0000
  C   C369      1.0  0.67357  0.52430  0.69505  1.0000
  C   C370      1.0  0.66716  0.47916  0.10615  1.0000
  H   H601      1.0  0.58242  0.59537  0.14316  1.0000
  C   C371      1.0  0.70011  0.65848  0.73423  1.0000
  H   H602      1.0  0.72586  0.36249  0.11328  1.0000
  H   H603      1.0  0.71467  0.42078  0.67110  1.0000
  S   S142      1.0  0.64169  0.45043  0.04377  1.0000
  H   H604      1.0  0.78353  0.40285  0.66620  1.0000
  H   H605      1.0  0.80392  0.23853  0.71717  1.0000
  N   N39       1.0  0.75612  0.44451  0.69413  1.0000
  H   H606      1.0  0.76648  0.50369  0.68687  1.0000
  H   H607      1.0  0.75079  0.47426  0.06907  1.0000
  H   H608      1.0  0.68607  0.62348  0.67111  1.0000
  H   H609      1.0  0.75384  0.39996  0.10918  1.0000
  H   H610      1.0  0.70449  0.44995  0.93005  1.0000
  H   H611      1.0  0.59680  0.42565  0.70124  1.0000
  C   C372      1.0  0.72752  0.47649  0.07917  1.0000
  H   H612      1.0  0.81839  0.51597  0.97041  1.0000
  C   C373      1.0  0.75890  0.61952  0.10071  1.0000
  H   H613      1.0  0.63174  0.49588  0.67917  1.0000
  H   H614      1.0  0.77491  0.17428  0.10024  1.0000
  H   H615      1.0  0.72077  0.64701  0.71983  1.0000
  C   C374      1.0  0.82724  0.50487  0.94406  1.0000
  S   S143      1.0  0.75166  0.51374  0.13853  1.0000
  H   H616      1.0  0.60605  0.45903  0.92022  1.0000
  H   H617      1.0  0.62787  0.43364  0.88640  1.0000
  H   H618      1.0  0.75968  0.58793  0.10082  1.0000
  S   S144      1.0  0.60655  0.53935  0.08944  1.0000
  H   H619      1.0  0.76057  0.44867  0.75242  1.0000
  N   N40       1.0  0.67510  0.66844  0.70831  1.0000
  C   C375      1.0  0.73110  0.44461  0.66659  1.0000
  C   C376      1.0  0.77808  0.47548  0.68595  1.0000
  H   H620      1.0  0.66987  0.41615  0.97424  1.0000
  C   C377      1.0  0.65081  0.41948  0.95395  1.0000
  S   S145      1.0  0.75126  0.50850  0.88312  1.0000
  S   S146      1.0  0.66619  0.55114  0.86599  1.0000
  C   C378      1.0  0.72168  0.49355  0.11291  1.0000
  H   H621      1.0  0.82555  0.23744  0.67521  1.0000
  H   H622      1.0  0.75664  0.38365  0.69842  1.0000
  H   H623      1.0  0.64397  0.47943  0.11713  1.0000
  Fe  Fe73      1.0  0.70406  0.55756  0.77007  1.0000
  H   H624      1.0  0.71758  0.47134  0.66723  1.0000
  H   H625      1.0  0.76630  0.53412  0.81101  1.0000
  H   H626      1.0  0.80693  0.50107  0.92586  1.0000
  C   C379      1.0  0.69969  0.54409  0.68309  1.0000
  N   N41       1.0  0.75065  0.63442  0.13711  1.0000
  C   C380      1.0  0.57913  0.62601  0.13707  1.0000
  S   S147      1.0  0.80229  0.51366  0.04828  1.0000
  H   H627      1.0  0.74172  0.62832  0.07964  1.0000
  H   H628      1.0  0.58309  0.47343  0.65382  1.0000
  C   C381      1.0  0.66621  0.63450  0.68724  1.0000
  H   H629      1.0  0.59077  0.38746  0.66962  1.0000
  Fe  Fe74      1.0  0.67195  0.60158  0.82890  1.0000
  H   H630      1.0  0.80087  0.50918  0.76380  1.0000
  C   C382      1.0  0.78005  0.50938  0.81698  1.0000
  S   S148      1.0  0.72576  0.56230  0.71491  1.0000
  H   H631      1.0  0.82107  0.19511  0.70226  1.0000
  H   H632      1.0  0.60857  0.60671  0.82298  1.0000
  C   C383      1.0  0.79977  0.49522  0.79013  1.0000
  H   H633      1.0  0.81034  0.23000  0.09907  1.0000
  H   H634      1.0  0.67006  0.51883  0.72378  1.0000
  S   S149      1.0  0.72199  0.59097  0.81721  1.0000
  H   H635      1.0  0.82701  0.58094  0.94694  1.0000
  H   H636      1.0  0.65838  0.61107  0.70544  1.0000
  Fe  Fe75      1.0  0.79702  0.51425  0.10909  1.0000
  C   C384      1.0  0.61906  0.21974  0.65414  1.0000
  S   S150      1.0  0.70091  0.50293  0.80072  1.0000
  C   C385      1.0  0.77809  0.49163  0.85110  1.0000
  Fe  Fe76      1.0  0.71488  0.53727  0.84916  1.0000
  S   S151      1.0  0.65439  0.57263  0.77877  1.0000
  H   H637      1.0  0.79740  0.47591  0.70604  1.0000
  H   H638      1.0  0.60238  0.63955  0.13808  1.0000
  C   C386      1.0  0.69157  0.49406  0.12675  1.0000
  H   H639      1.0  0.71446  0.41068  0.12096  1.0000
  C   C387      1.0  0.57900  0.40638  0.68955  1.0000
  C   C388      1.0  0.81692  0.44599  0.83181  1.0000
  C   C389      1.0  0.77568  0.19348  0.12320  1.0000
  C   C390      1.0  0.81787  0.46321  0.79725  1.0000
  H   H640      1.0  0.81526  0.56561  0.90235  1.0000
  C   C391      1.0  0.73354  0.38989  0.12521  1.0000
  H   H641      1.0  0.61866  0.21123  0.68346  1.0000
  C   C392      1.0  0.65695  0.18744  0.13489  1.0000
  H   H642      1.0  0.64710  0.64082  0.66772  1.0000
  H   H643      1.0  0.70154  0.62921  0.12879  1.0000
  H   H644      1.0  0.62240  0.25106  0.65277  1.0000
  C   C393      1.0  0.57934  0.49393  0.81779  1.0000
  C   C394      1.0  0.82471  0.22630  0.70373  1.0000
  H   H645      1.0  0.71977  0.58805  0.14869  1.0000
  C   C395      1.0  0.72000  0.61965  0.14800  1.0000
  C   C396      1.0  0.58635  0.16668  0.63863  1.0000
  C   C397      1.0  0.64992  0.83949  0.29864  1.0000
  H   H646      1.0  0.59705  0.82135  0.36517  1.0000
  C   C398      1.0  0.62519  0.74874  0.17337  1.0000
  H   H647      1.0  0.59853  0.81912  0.26349  1.0000
  S   S152      1.0  0.69300  0.76102  0.25833  1.0000
  H   H648      1.0  0.69108  0.75358  0.46492  1.0000
  H   H649      1.0  0.79412  0.70588  0.44478  1.0000
  S   S153      1.0  0.67315  0.69845  0.17643  1.0000
  C   C399      1.0  0.71201  0.74529  0.37570  1.0000
  C   C400      1.0  0.69613  0.76195  0.43711  1.0000
  H   H650      1.0  0.71470  0.79166  0.33732  1.0000
  C   C401      1.0  0.59819  0.76561  0.18687  1.0000
  S   S154      1.0  0.80624  0.74585  0.52975  1.0000
  Fe  Fe77      1.0  0.73223  0.73445  0.28869  1.0000
  C   C402      1.0  0.60266  0.79703  0.61067  1.0000
  H   H651      1.0  0.58987  0.80483  0.58634  1.0000
  H   H652      1.0  0.64736  0.80526  0.58549  1.0000
  Fe  Fe78      1.0  0.77554  0.74139  0.22491  1.0000
  C   C403      1.0  0.78566  0.93259  0.61258  1.0000
  H   H653      1.0  0.73501  0.06097  0.59061  1.0000
  S   S155      1.0  0.76650  0.77938  0.27309  1.0000
  C   C404      1.0  0.70539  0.73464  0.41170  1.0000
  C   C405      1.0  0.59511  0.82869  0.29216  1.0000
  H   H654      1.0  0.58984  0.85957  0.29119  1.0000
  C   C406      1.0  0.63519  0.79735  0.61018  1.0000
  S   S156      1.0  0.71720  0.77079  0.53930  1.0000
  N   N42       1.0  0.80453  0.75135  0.40736  1.0000
  H   H655      1.0  0.76201  0.77971  0.42094  1.0000
  C   C407      1.0  0.70898  0.78324  0.36493  1.0000
  H   H656      1.0  0.82105  0.73453  0.28021  1.0000
  H   H657      1.0  0.63787  0.82843  0.37030  1.0000
  Fe  Fe79      1.0  0.72798  0.80294  0.23847  1.0000
  S   S157      1.0  0.74040  0.76964  0.18864  1.0000
  H   H658      1.0  0.82131  0.81647  0.49363  1.0000
  S   S158      1.0  0.74446  0.69458  0.24360  1.0000
  C   C408      1.0  0.62689  0.70717  0.22616  1.0000
  H   H659      1.0  0.70771  0.70528  0.42009  1.0000
  C   C409      1.0  0.80125  0.75999  0.36799  1.0000
  H   H660      1.0  0.74084  0.99182  0.59851  1.0000
  Fe  Fe80      1.0  0.76736  0.78727  0.53854  1.0000
  C   C410      1.0  0.63908  0.71889  0.19260  1.0000
  C   C411      1.0  0.72016  0.99180  0.61666  1.0000
  H   H661      1.0  0.65402  0.82995  0.27010  1.0000
  S   S159      1.0  0.72587  0.71124  0.34518  1.0000
  Fe  Fe81      1.0  0.70863  0.72575  0.21147  1.0000
  H   H662      1.0  0.64706  0.87084  0.29768  1.0000
  C   C412      1.0  0.62798  0.77912  0.31619  1.0000
  H   H663      1.0  0.63053  0.13748  0.18135  1.0000
  H   H664      1.0  0.66930  0.96001  0.16229  1.0000
  H   H665      1.0  0.79588  0.80871  0.42462  1.0000
  H   H666      1.0  0.76766  0.71058  0.40730  1.0000
  S   S160      1.0  0.76553  0.81809  0.59165  1.0000
  H   H667      1.0  0.77256  0.85224  0.20693  1.0000
  N   N43       1.0  0.62268  0.82053  0.31486  1.0000
  C   C413      1.0  0.69287  0.79985  0.42638  1.0000
  H   H668      1.0  0.71074  0.08732  0.62113  1.0000
  Fe  Fe82      1.0  0.71454  0.80662  0.58974  1.0000
  H   H669      1.0  0.60794  0.76391  0.32839  1.0000
  C   C414      1.0  0.69915  0.81049  0.39023  1.0000
  C   C415      1.0  0.61767  0.83474  0.35232  1.0000
  H   H670      1.0  0.63146  0.76747  0.28836  1.0000
  H   H671      1.0  0.81251  0.73795  0.35088  1.0000
  H   H672      1.0  0.60670  0.17153  0.20468  1.0000
  H   H673      1.0  0.78786  0.77290  0.45846  1.0000
  H   H674      1.0  0.81573  0.97986  0.60127  1.0000
  H   H675      1.0  0.62617  0.91349  0.15782  1.0000
  H   H676      1.0  0.75710  0.88690  0.63236  1.0000
  C   C416      1.0  0.74824  0.95708  0.19091  1.0000
  H   H677      1.0  0.74311  0.68832  0.16255  1.0000
  C   C417      1.0  0.73690  0.89420  0.21478  1.0000
  C   C418      1.0  0.59934  0.72323  0.23905  1.0000
  H   H678      1.0  0.61413  0.86601  0.35253  1.0000
  S   S161      1.0  0.70265  0.86075  0.56026  1.0000
  C   C419      1.0  0.76572  0.88144  0.20252  1.0000
  S   S162      1.0  0.77763  0.92471  0.56652  1.0000
  C   C420      1.0  0.72827  0.93207  0.20912  1.0000
  H   H679      1.0  0.64887  0.77177  0.33265  1.0000
  H   H680      1.0  0.67140  0.83336  0.31440  1.0000
  S   S163      1.0  0.76003  0.83938  0.50454  1.0000
  Fe  Fe83      1.0  0.75393  0.86908  0.55778  1.0000
  H   H681      1.0  0.69725  0.83996  0.38213  1.0000
  S   S164      1.0  0.68173  0.83405  0.45826  1.0000
  H   H682      1.0  0.70622  0.94217  0.21910  1.0000
  S   S165      1.0  0.71099  0.86320  0.23651  1.0000
  Fe  Fe84      1.0  0.70962  0.82603  0.50957  1.0000
  H   H683      1.0  0.80523  0.69087  0.39965  1.0000
  C   C421      1.0  0.77709  0.94446  0.17864  1.0000
  H   H684      1.0  0.74175  0.98643  0.18749  1.0000
  C   C422      1.0  0.79242  0.71296  0.41512  1.0000
  H   H685      1.0  0.77652  0.76110  0.35967  1.0000
  H   H686      1.0  0.63833  0.68501  0.24171  1.0000
  S   S166      1.0  0.82139  0.72387  0.20211  1.0000
  C   C423      1.0  0.80503  0.96259  0.62226  1.0000
  H   H687      1.0  0.69974  0.98516  0.59931  1.0000
  C   C424      1.0  0.58674  0.78692  0.64260  1.0000
  H   H688      1.0  0.81163  0.78793  0.36083  1.0000
  C   C425      1.0  0.78688  0.77946  0.42875  1.0000
  H   H689      1.0  0.80825  0.89679  0.17546  1.0000
  H   H690      1.0  0.69369  0.05480  0.58960  1.0000
  H   H691      1.0  0.67814  0.16982  0.20196  1.0000
  H   H692      1.0  0.67966  0.89063  0.16796  1.0000
  C   C426      1.0  0.78591  0.90667  0.18476  1.0000
  H   H693      1.0  0.60128  0.16320  0.15670  1.0000
  C   C427      1.0  0.77220  0.91000  0.63973  1.0000
  S   S167      1.0  0.69233  0.78872  0.64264  1.0000
  H   H694      1.0  0.60679  0.15096  0.62796  1.0000
  C   C428      1.0  0.71390  0.05922  0.60793  1.0000
  C   C429      1.0  0.61909  0.16568  0.17863  1.0000
  C   C430      1.0  0.58466  0.75190  0.21897  1.0000
  H   H695      1.0  0.58918  0.71302  0.26424  1.0000
  H   H696      1.0  0.58789  0.78922  0.17239  1.0000
  C   C431      1.0  0.65177  0.78752  0.64166  1.0000
  S   S168      1.0  0.73118  0.14842  0.15550  1.0000
  H   H697      1.0  0.66718  0.02231  0.64158  1.0000
  S   S169      1.0  0.80234  0.97564  0.15586  1.0000
  N   N44       1.0  0.71651  0.02855  0.63545  1.0000
  H   H698      1.0  0.72320  0.96812  0.63648  1.0000
  H   H699      1.0  0.76548  0.03634  0.64268  1.0000
  H   H700      1.0  0.73737  0.14245  0.64479  1.0000
  C   C432      1.0  0.77741  0.91825  0.67663  1.0000
  C   C433      1.0  0.76173  0.14737  0.69591  1.0000
  C   C434      1.0  0.75888  0.15193  0.73372  1.0000
  C   C435      1.0  0.59667  0.05438  0.05073  1.0000
  H   H701      1.0  0.61514  0.93268  0.11410  1.0000
  H   H702      1.0  0.59231  0.90174  0.69471  1.0000
  C   C436      1.0  0.59175  0.95607  0.77128  1.0000
  H   H703      1.0  0.74171  0.06295  0.67367  1.0000
  S   S170      1.0  0.58118  0.05624  0.76251  1.0000
  H   H704      1.0  0.66855  0.15924  0.13557  1.0000
  H   H705      1.0  0.61928  0.72749  0.83115  1.0000
  H   H706      1.0  0.67778  0.86120  0.12828  1.0000
  C   C437      1.0  0.66815  0.91699  0.07946  1.0000
  C   C438      1.0  0.59868  0.94483  0.73561  1.0000
  S   S171      1.0  0.60378  0.07452  0.67869  1.0000
  C   C439      1.0  0.63587  0.77717  0.67343  1.0000
  N   N45       1.0  0.66356  0.91912  0.11939  1.0000
  C   C440      1.0  0.62931  0.09238  0.08966  1.0000
  H   H707      1.0  0.69613  0.82266  0.71513  1.0000
  Fe  Fe85      1.0  0.72485  0.03694  0.07177  1.0000
  S   S172      1.0  0.68320  0.01143  0.04511  1.0000
  Fe  Fe86      1.0  0.63999  0.11120  0.70335  1.0000
  S   S173      1.0  0.62279  0.97269  0.70808  1.0000
  S   S174      1.0  0.65553  0.06772  0.74436  1.0000
  H   H708      1.0  0.60169  0.98171  0.78221  1.0000
  S   S175      1.0  0.79578  0.08064  0.11966  1.0000
  C   C441      1.0  0.59678  0.11917  0.86220  1.0000
  H   H709      1.0  0.64507  0.05672  0.93448  1.0000
  C   C442      1.0  0.66839  0.04759  0.94402  1.0000
  H   H710      1.0  0.64851  0.76984  0.69795  1.0000
  H   H711      1.0  0.66950  0.11320  0.90547  1.0000
  H   H712      1.0  0.68055  0.15298  0.74055  1.0000
  S   S176      1.0  0.72818  0.04073  0.13262  1.0000
  S   S177      1.0  0.79788  0.96319  0.73197  1.0000
  C   C443      1.0  0.74960  0.67631  0.13564  1.0000
  H   H713      1.0  0.74664  0.01280  0.68000  1.0000
  S   S178      1.0  0.73900  0.09713  0.06091  1.0000
  H   H714      1.0  0.68240  0.88067  0.77396  1.0000
  C   C444      1.0  0.70101  0.91887  0.71388  1.0000
  H   H715      1.0  0.65342  0.93813  0.06480  1.0000
  C   C445      1.0  0.81019  0.97078  0.65911  1.0000
  H   H716      1.0  0.62882  0.69108  0.71007  1.0000
  H   H717      1.0  0.69052  0.13066  0.98284  1.0000
  Fe  Fe87      1.0  0.78702  0.07316  0.05968  1.0000
  H   H718      1.0  0.62338  0.88312  0.11875  1.0000
  Fe  Fe88      1.0  0.77720  0.02149  0.12470  1.0000
  C   C446      1.0  0.64799  0.68262  0.72878  1.0000
  C   C447      1.0  0.69218  0.10189  0.91508  1.0000
  H   H719      1.0  0.78436  0.14503  0.68356  1.0000
  H   H720      1.0  0.66206  0.88846  0.06877  1.0000
  H   H721      1.0  0.72747  0.15844  0.77884  1.0000
  H   H722      1.0  0.71852  0.92137  0.73611  1.0000
  Fe  Fe89      1.0  0.74639  0.09922  0.12144  1.0000
  C   C448      1.0  0.65103  0.03873  0.05737  1.0000
  C   C449      1.0  0.65463  0.06928  0.08120  1.0000
  H   H723      1.0  0.77248  0.68854  0.12810  1.0000
  H   H724      1.0  0.65800  0.97979  0.11880  1.0000
  C   C450      1.0  0.79558  0.94939  0.68628  1.0000
  C   C451      1.0  0.62195  0.03096  0.04243  1.0000
  H   H725      1.0  0.70132  0.08369  0.89276  1.0000
  C   C452      1.0  0.60516  0.70304  0.82489  1.0000
  H   H726      1.0  0.69691  0.96368  0.12591  1.0000
  H   H727      1.0  0.61897  0.00712  0.02428  1.0000
  C   C453      1.0  0.70313  0.15194  0.72792  1.0000
  S   S179      1.0  0.67274  0.13858  0.66430  1.0000
  C   C454      1.0  0.59520  0.12043  0.90033  1.0000
  H   H728      1.0  0.65402  0.70775  0.74562  1.0000
  H   H729      1.0  0.73071  0.04828  0.94094  1.0000
  S   S180      1.0  0.60823  0.14158  0.74173  1.0000
  H   H730      1.0  0.61443  0.11075  0.91664  1.0000
  H   H731      1.0  0.67347  0.09015  0.00461  1.0000
  H   H732      1.0  0.72121  0.85162  0.68800  1.0000
  Fe  Fe90      1.0  0.61611  0.03355  0.72303  1.0000
  N   N46       1.0  0.68481  0.88201  0.71529  1.0000
  C   C455      1.0  0.66356  0.87908  0.68374  1.0000
  C   C456      1.0  0.60043  0.08542  0.07396  1.0000
  S   S181      1.0  0.62942  0.09995  0.84086  1.0000
  N   N47       1.0  0.68902  0.08045  0.94971  1.0000
  H   H733      1.0  0.73211  0.68666  0.11558  1.0000
  C   C457      1.0  0.71980  0.06686  0.96178  1.0000
  H   H734      1.0  0.59162  0.76766  0.69804  1.0000
  C   C458      1.0  0.67572  0.10536  0.97804  1.0000
  H   H735      1.0  0.68451  0.94292  0.71695  1.0000
  H   H736      1.0  0.67788  0.02795  0.92312  1.0000
  S   S182      1.0  0.81513  0.06557  0.69712  1.0000
  H   H737      1.0  0.64778  0.90392  0.68193  1.0000
  C   C459      1.0  0.70589  0.14708  0.69020  1.0000
  C   C460      1.0  0.66700  0.87925  0.74964  1.0000
  C   C461      1.0  0.63068  0.91183  0.12796  1.0000
  H   H738      1.0  0.70822  0.89561  0.13286  1.0000
  H   H739      1.0  0.65003  0.90285  0.75194  1.0000
  C   C462      1.0  0.58707  0.91060  0.72226  1.0000
  C   C463      1.0  0.70769  0.85083  0.71389  1.0000
  H   H740      1.0  0.67695  0.07550  0.09293  1.0000
  S   S183      1.0  0.82320  0.09150  0.01969  1.0000
  H   H741      1.0  0.70756  0.68348  0.75044  1.0000
  Fe  Fe91      1.0  0.61987  0.09406  0.78076  1.0000
  S   S184      1.0  0.82597  0.05345  0.78601  1.0000
  S   S185      1.0  0.77221  0.01265  0.06439  1.0000
  H   H742      1.0  0.71816  0.05009  0.98758  1.0000
  H   H743      1.0  0.64878  0.85341  0.68571  1.0000
  C   C464      1.0  0.67225  0.95733  0.13223  1.0000
  H   H744      1.0  0.71311  0.92275  0.68740  1.0000
  H   H745      1.0  0.69260  0.92309  0.07187  1.0000
  H   H746      1.0  0.65371  0.85226  0.75122  1.0000
  H   H747      1.0  0.70808  0.12646  0.91809  1.0000
  C   C465      1.0  0.68827  0.02790  0.65818  1.0000
  H   H748      1.0  0.76698  0.90100  0.69773  1.0000
  H   H749      1.0  0.68472  0.05560  0.67205  1.0000
  H   H750      1.0  0.66520  0.03105  0.96976  1.0000
  H   H751      1.0  0.72443  0.85233  0.73694  1.0000
  C   C466      1.0  0.60350  0.77658  0.67376  1.0000
  H   H752      1.0  0.63214  0.11596  0.10797  1.0000
  C   C467      1.0  0.73516  0.14581  0.67400  1.0000
  H   H753      1.0  0.73588  0.09088  0.96703  1.0000
  H   H754      1.0  0.65223  0.11563  0.97024  1.0000
  H   H755      1.0  0.67637  0.87731  0.65742  1.0000
  H   H756      1.0  0.82524  0.99391  0.66637  1.0000
  C   C468      1.0  0.72965  0.15508  0.74959  1.0000
  C   C469      1.0  0.68623  0.69808  0.68286  1.0000
  H   H757      1.0  0.69308  0.72429  0.69758  1.0000
  S   S186      1.0  0.79164  0.15181  0.76156  1.0000
  H   H758      1.0  0.58331  0.15812  0.66767  1.0000
  C   C470      1.0  0.68315  0.89037  0.13783  1.0000
  Fe  Fe92      1.0  0.82493  0.01733  0.73576  1.0000
  H   H759      1.0  0.68954  0.00567  0.67979  1.0000
  C   C471      1.0  0.74375  0.03547  0.65895  1.0000
  H   H760      1.0  0.66814  0.70611  0.66255  1.0000
  Fe  Fe93      1.0  0.82079  0.10189  0.74666  1.0000
  H   H761      1.0  0.70679  0.68837  0.66716  1.0000
  H   H762      1.0  0.63538  0.75895  0.14819  1.0000
  Fe  Fe94      1.0  0.93620  0.30400  0.50735  1.0000
  S   S187      1.0  0.96352  0.28356  0.45937  1.0000
  C   C472      1.0  0.97155  0.19103  0.40167  1.0000
  S   S188      1.0  0.04018  0.20771  0.20898  1.0000
  N   N48       1.0  0.90797  0.45268  0.64600  1.0000
  H   H763      1.0  0.95504  0.49712  0.20458  1.0000
  C   C473      1.0  0.97921  0.36025  0.38237  1.0000
  C   C474      1.0  0.98669  0.18754  0.33828  1.0000
  H   H764      1.0  0.98601  0.31250  0.32491  1.0000
  Fe  Fe95      1.0  0.89505  0.28375  0.57142  1.0000
  C   C475      1.0  0.84847  0.17651  0.62518  1.0000
  S   S189      1.0  0.90381  0.52573  0.16332  1.0000
  H   H765      1.0  0.98264  0.34870  0.29029  1.0000
  H   H766      1.0  0.87010  0.46905  0.61088  1.0000
  Fe  Fe96      1.0  0.87984  0.25502  0.26931  1.0000
  S   S190      1.0  0.89137  0.29397  0.22281  1.0000
  C   C476      1.0  0.06079  0.39166  0.63107  1.0000
  S   S191      1.0  0.91721  0.38569  0.26993  1.0000
  C   C477      1.0  0.97679  0.34129  0.31915  1.0000
  S   S192      1.0  0.88469  0.30468  0.51475  1.0000
  H   H767      1.0  0.04707  0.37026  0.64640  1.0000
  H   H768      1.0  0.01230  0.25521  0.35173  1.0000
  H   H769      1.0  0.98722  0.42994  0.35275  1.0000
  C   C478      1.0  0.00196  0.20569  0.22494  1.0000
  C   C479      1.0  0.98561  0.23922  0.23159  1.0000
  C   C480      1.0  0.95647  0.23798  0.24823  1.0000
  C   C481      1.0  0.94313  0.20312  0.25730  1.0000
  Fe  Fe97      1.0  0.06203  0.26029  0.23135  1.0000
  C   C482      1.0  0.94892  0.62104  0.18757  1.0000
  H   H770      1.0  0.99540  0.26621  0.22374  1.0000
  H   H771      1.0  0.94479  0.26413  0.25478  1.0000
  Fe  Fe98      1.0  0.05712  0.34479  0.24464  1.0000
  H   H772      1.0  0.98819  0.38110  0.40247  1.0000
  H   H773      1.0  0.01568  0.18855  0.53458  1.0000
  C   C483      1.0  0.91246  0.42556  0.24176  1.0000
  S   S193      1.0  0.94595  0.27667  0.56180  1.0000
  C   C484      1.0  0.03636  0.63026  0.15113  1.0000
  Fe  Fe99      1.0  0.94987  0.33660  0.58082  1.0000
  H   H774      1.0  0.91692  0.20406  0.58795  1.0000
  C   C485      1.0  0.99605  0.26437  0.48140  1.0000
  C   C486      1.0  0.99388  0.22879  0.49826  1.0000
  C   C487      1.0  0.01774  0.21578  0.52107  1.0000
  C   C488      1.0  0.04367  0.23851  0.52753  1.0000
  C   C489      1.0  0.04604  0.27389  0.51031  1.0000
  C   C490      1.0  0.02228  0.28679  0.48716  1.0000
  H   H775      1.0  0.93106  0.21914  0.35369  1.0000
  C   C491      1.0  0.89995  0.18596  0.60082  1.0000
  C   C492      1.0  0.88069  0.46566  0.20278  1.0000
  H   H776      1.0  0.02373  0.31475  0.47496  1.0000
  C   C493      1.0  0.01235  0.44358  0.18197  1.0000
  Fe  Fe100     1.0  0.89265  0.36208  0.53877  1.0000
  H   H777      1.0  0.03303  0.34058  0.35102  1.0000
  C   C494      1.0  0.97806  0.40764  0.33434  1.0000
  H   H778      1.0  0.02062  0.44802  0.61655  1.0000
  H   H779      1.0  0.03394  0.39001  0.36213  1.0000
  H   H780      1.0  0.07548  0.21729  0.64172  1.0000
  H   H781      1.0  0.97262  0.62586  0.17666  1.0000
  H   H782      1.0  0.98755  0.33172  0.39121  1.0000
  H   H783      1.0  0.87047  0.41982  0.62378  1.0000
  H   H784      1.0  0.04954  0.63917  0.20724  1.0000
  H   H785      1.0  0.94478  0.58983  0.18733  1.0000
  H   H786      1.0  0.01360  0.22901  0.60260  1.0000
  H   H787      1.0  0.84019  0.33945  0.56870  1.0000
  C   C495      1.0  0.93501  0.47992  0.21091  1.0000
  H   H788      1.0  0.94053  0.47911  0.60964  1.0000
  N   N49       1.0  0.98942  0.36952  0.34483  1.0000
  H   H789      1.0  0.03206  0.37561  0.31525  1.0000
  H   H790      1.0  0.95351  0.36022  0.38457  1.0000
  S   S194      1.0  0.83166  0.34566  0.24700  1.0000
  Fe  Fe101     1.0  0.88161  0.34023  0.26284  1.0000
  H   H791      1.0  0.94617  0.25770  0.38014  1.0000
  Fe  Fe102     1.0  0.84050  0.29480  0.21181  1.0000
  C   C496      1.0  0.02360  0.36890  0.34325  1.0000
  H   H792      1.0  0.96036  0.44186  0.24611  1.0000
  C   C497      1.0  0.88373  0.43417  0.22610  1.0000
  C   C498      1.0  0.88038  0.20270  0.17801  1.0000
  H   H793      1.0  0.01413  0.46701  0.20084  1.0000
  N   N50       1.0  0.97901  0.21341  0.36860  1.0000
  S   S195      1.0  0.86069  0.24766  0.60130  1.0000
  C   C499      1.0  0.01808  0.40653  0.19402  1.0000
  S   S196      1.0  0.07165  0.22295  0.55905  1.0000
  H   H794      1.0  0.95614  0.25284  0.33250  1.0000
  H   H795      1.0  0.91337  0.51116  0.63031  1.0000
  H   H796      1.0  0.86383  0.41687  0.23226  1.0000
  S   S197      1.0  0.87347  0.30118  0.31042  1.0000
  H   H797      1.0  0.01920  0.34754  0.17897  1.0000
  H   H798      1.0  0.86312  0.22290  0.16655  1.0000
  S   S198      1.0  0.94340  0.36386  0.52600  1.0000
  S   S199      1.0  0.90706  0.20145  0.27909  1.0000
  H   H799      1.0  0.98510  0.41511  0.30587  1.0000
  H   H800      1.0  0.85839  0.47269  0.19133  1.0000
  C   C500      1.0  0.95197  0.23693  0.35832  1.0000
  H   H801      1.0  0.95232  0.40908  0.33509  1.0000
  N   N51       1.0  0.92542  0.64152  0.16566  1.0000
  H   H802      1.0  0.89737  0.43716  0.59056  1.0000
  H   H803      1.0  0.89264  0.64480  0.20968  1.0000
  C   C501      1.0  0.93801  0.44865  0.23440  1.0000
  S   S200      1.0  0.90004  0.34140  0.59583  1.0000
  H   H804      1.0  0.03970  0.26599  0.61553  1.0000
  H   H805      1.0  0.95110  0.33991  0.32078  1.0000
  C   C502      1.0  0.89433  0.63449  0.18106  1.0000
  H   H806      1.0  0.00022  0.26753  0.63007  1.0000
  C   C503      1.0  0.90646  0.48821  0.19476  1.0000
  H   H807      1.0  0.00108  0.25806  0.39891  1.0000
  S   S201      1.0  0.07719  0.31083  0.19872  1.0000
  S   S202      1.0  0.03809  0.29453  0.27406  1.0000
  C   C504      1.0  0.88549  0.44440  0.61662  1.0000
  S   S203      1.0  0.98620  0.35428  0.62082  1.0000
  C   C505      1.0  0.01546  0.37630  0.16960  1.0000
  H   H808      1.0  0.94880  0.63043  0.21652  1.0000
  C   C506      1.0  0.87041  0.20006  0.60869  1.0000
  S   S204      1.0  0.85752  0.40822  0.53059  1.0000
  H   H809      1.0  0.06575  0.29178  0.51557  1.0000
  S   S205      1.0  0.03024  0.39876  0.23908  1.0000
  S   S206      1.0  0.07676  0.27806  0.36201  1.0000
  H   H810      1.0  0.97320  0.21191  0.49495  1.0000
  C   C507      1.0  0.00582  0.23812  0.37614  1.0000
  H   H811      1.0  0.90268  0.20748  0.16354  1.0000
  H   H812      1.0  0.88872  0.60367  0.18120  1.0000
  C   C508      1.0  0.92751  0.48520  0.63517  1.0000
  H   H813      1.0  0.02664  0.22135  0.38413  1.0000
  C   C509      1.0  0.02009  0.24823  0.62538  1.0000
  C   C510      1.0  0.02777  0.44481  0.64559  1.0000
  H   H814      1.0  0.96484  0.20982  0.42471  1.0000
  H   H815      1.0  0.88403  0.21022  0.20710  1.0000
  H   H816      1.0  0.91121  0.38503  0.17508  1.0000
  H   H817      1.0  0.94293  0.29565  0.64045  1.0000
  H   H818      1.0  0.99336  0.20361  0.31323  1.0000
  H   H819      1.0  0.05163  0.39259  0.60265  1.0000
  H   H820      1.0  0.87604  0.64937  0.16499  1.0000
  H   H821      1.0  0.94034  0.41105  0.62684  1.0000
  H   H822      1.0  0.07604  0.45827  0.60082  1.0000
  H   H823      1.0  0.94711  0.38369  0.15142  1.0000
  H   H824      1.0  0.92379  0.34164  0.15444  1.0000
  H   H825      1.0  0.99173  0.17386  0.41100  1.0000
  H   H826      1.0  0.04902  0.18119  0.62812  1.0000
  C   C511      1.0  0.03927  0.65168  0.18303  1.0000
  C   C512      1.0  0.92299  0.37296  0.15081  1.0000
  S   S207      1.0  0.82959  0.25180  0.25516  1.0000
  H   H827      1.0  0.07714  0.46802  0.17200  1.0000
  N   N52       1.0  0.05945  0.42928  0.64872  1.0000
  S   S208      1.0  0.05052  0.58371  0.14984  1.0000
  S   S209      1.0  0.96968  0.39685  0.81121  1.0000
  N   N53       1.0  0.85337  0.23539  0.72389  1.0000
  H   H828      1.0  0.06136  0.18379  0.67503  1.0000
  H   H829      1.0  0.04418  0.23796  0.71331  1.0000
  C   C513      1.0  0.87645  0.53536  0.95322  1.0000
  S   S210      1.0  0.92032  0.46774  0.80317  1.0000
  H   H830      1.0  0.87998  0.53320  0.88077  1.0000
  H   H831      1.0  0.87202  0.34110  0.12272  1.0000
  C   C514      1.0  0.92658  0.62796  0.12757  1.0000
  H   H832      1.0  0.00117  0.58073  0.84913  1.0000
  S   S211      1.0  0.91822  0.39748  0.74555  1.0000
  H   H833      1.0  0.90140  0.21945  0.72270  1.0000
  H   H834      1.0  0.87659  0.43790  0.68939  1.0000
  H   H835      1.0  0.89398  0.55554  0.94247  1.0000
  H   H836      1.0  0.92495  0.27279  0.70026  1.0000
  H   H837      1.0  0.05755  0.27111  0.67934  1.0000
  Fe  Fe103     1.0  0.88587  0.42468  0.78465  1.0000
  C   C515      1.0  0.87055  0.40875  0.95782  1.0000
  C   C516      1.0  0.91923  0.43500  0.93657  1.0000
  H   H838      1.0  0.87316  0.63867  0.95807  1.0000
  H   H839      1.0  0.01814  0.27286  0.69479  1.0000
  N   N54       1.0  0.85021  0.53088  0.92776  1.0000
  H   H840      1.0  0.02983  0.55549  0.94209  1.0000
  C   C517      1.0  0.87555  0.42426  0.99243  1.0000
  H   H841      1.0  0.91091  0.37367  0.05892  1.0000
  S   S212      1.0  0.93756  0.29970  0.77294  1.0000
  C   C518      1.0  0.98968  0.34811  0.69508  1.0000
  C   C519      1.0  0.92498  0.44883  0.97171  1.0000
  H   H842      1.0  0.92912  0.63340  0.94271  1.0000
  H   H843      1.0  0.90750  0.45532  0.02622  1.0000
  H   H844      1.0  0.90760  0.46880  0.70258  1.0000
  C   C520      1.0  0.02592  0.47470  0.78027  1.0000
  H   H845      1.0  0.88756  0.40366  0.90294  1.0000
  S   S213      1.0  0.05188  0.58362  0.04254  1.0000
  H   H846      1.0  0.96889  0.57112  0.90500  1.0000
  H   H847      1.0  0.98916  0.34655  0.75376  1.0000
  N   N55       1.0  0.90707  0.38392  0.11658  1.0000
  C   C521      1.0  0.97943  0.33492  0.72905  1.0000
  H   H848      1.0  0.86160  0.37978  0.09308  1.0000
  C   C522      1.0  0.87427  0.37230  0.11862  1.0000
  C   C523      1.0  0.92202  0.36510  0.08522  1.0000
  H   H849      1.0  0.82987  0.23354  0.77565  1.0000
  Fe  Fe104     1.0  0.95380  0.43704  0.76735  1.0000
  C   C524      1.0  0.03750  0.25334  0.68784  1.0000
  H   H850      1.0  0.89847  0.44073  0.13486  1.0000
  C   C525      1.0  0.00164  0.20402  0.67098  1.0000
  C   C526      1.0  0.00245  0.42043  0.12081  1.0000
  S   S214      1.0  0.05855  0.50055  0.08302  1.0000
  H   H851      1.0  0.00571  0.35987  0.11405  1.0000
  H   H852      1.0  0.01335  0.45270  0.79431  1.0000
  Fe  Fe105     1.0  0.93273  0.42402  0.84545  1.0000
  H   H853      1.0  0.84264  0.51293  0.87245  1.0000
  H   H854      1.0  0.93337  0.43525  0.10938  1.0000
  H   H855      1.0  0.87581  0.48701  0.67628  1.0000
  C   C527      1.0  0.89214  0.41460  0.92980  1.0000
  S   S215      1.0  0.94520  0.44582  0.90120  1.0000
  C   C528      1.0  0.89124  0.46199  0.67999  1.0000
  S   S216      1.0  0.99393  0.42935  0.07484  1.0000
  H   H856      1.0  0.87573  0.18556  0.70274  1.0000
  C   C529      1.0  0.97605  0.33470  0.66308  1.0000
  C   C530      1.0  0.95338  0.30654  0.66504  1.0000
  C   C531      1.0  0.95580  0.30797  0.73109  1.0000
  H   H857      1.0  0.83822  0.29199  0.73626  1.0000
  S   S217      1.0  0.98252  0.46879  0.72606  1.0000
  H   H858      1.0  0.00053  0.47933  0.13619  1.0000
  C   C532      1.0  0.90895  0.42546  0.11157  1.0000
  S   S218      1.0  0.89507  0.38294  0.82979  1.0000
  C   C533      1.0  0.05267  0.48971  0.79616  1.0000
  C   C534      1.0  0.94345  0.29301  0.69901  1.0000
  C   C535      1.0  0.90299  0.44390  0.99948  1.0000
  H   H859      1.0  0.06060  0.47905  0.82229  1.0000
  Fe  Fe106     1.0  0.93114  0.35939  0.79209  1.0000
  H   H860      1.0  0.00718  0.36977  0.69394  1.0000
  H   H861      1.0  0.94608  0.46429  0.97727  1.0000
  H   H862      1.0  0.86220  0.38641  0.14171  1.0000
  N   N56       1.0  0.02847  0.22667  0.65871  1.0000
  C   C536      1.0  0.97751  0.54135  0.90501  1.0000
  S   S219      1.0  0.82921  0.56318  0.11756  1.0000
  S   S220      1.0  0.83262  0.46936  0.11966  1.0000
  C   C537      1.0  0.92785  0.41910  0.65217  1.0000
  H   H863      1.0  0.02200  0.59390  0.91159  1.0000
  Fe  Fe107     1.0  0.01158  0.48737  0.06128  1.0000
  H   H864      1.0  0.06925  0.41264  0.13400  1.0000
  Fe  Fe108     1.0  0.84103  0.47278  0.05937  1.0000
  H   H865      1.0  0.86071  0.28795  0.69512  1.0000
  C   C538      1.0  0.87992  0.21645  0.70620  1.0000
  H   H866      1.0  0.85209  0.58859  0.90862  1.0000
  H   H867      1.0  0.03479  0.65636  0.66485  1.0000
  C   C539      1.0  0.01582  0.48788  0.74624  1.0000
  H   H868      1.0  0.99598  0.53241  0.83479  1.0000
  Fe  Fe109     1.0  0.00538  0.56370  0.02352  1.0000
  H   H869      1.0  0.94478  0.49197  0.65685  1.0000
  H   H870      1.0  0.94563  0.42439  0.67358  1.0000
  S   S221      1.0  0.87713  0.51770  0.06313  1.0000
  H   H871      1.0  0.00598  0.47988  0.87706  1.0000
  H   H872      1.0  0.89207  0.59541  0.06545  1.0000
  H   H873      1.0  0.87139  0.23019  0.77851  1.0000
  H   H874      1.0  0.02451  0.52717  0.70213  1.0000
  H   H875      1.0  0.03422  0.55103  0.84136  1.0000
  Fe  Fe110     1.0  0.86556  0.51834  0.12274  1.0000
  C   C540      1.0  0.01020  0.55133  0.85237  1.0000
  H   H876      1.0  0.94692  0.37283  0.08324  1.0000
  S   S222      1.0  0.84048  0.44437  0.76211  1.0000
  C   C541      1.0  0.06925  0.51832  0.77832  1.0000
  Fe  Fe111     1.0  0.83760  0.55869  0.05759  1.0000
  C   C542      1.0  0.02051  0.49929  0.89379  1.0000
  H   H877      1.0  0.04486  0.49651  0.88438  1.0000
  C   C543      1.0  0.02985  0.56381  0.91279  1.0000
  C   C544      1.0  0.94185  0.61024  0.99523  1.0000
  C   C545      1.0  0.05923  0.53155  0.74421  1.0000
  H   H878      1.0  0.01989  0.62994  0.09556  1.0000
  C   C546      1.0  0.05471  0.20107  0.65068  1.0000
  S   S223      1.0  0.99035  0.54237  0.07893  1.0000
  H   H879      1.0  0.96138  0.52397  0.88837  1.0000
  C   C547      1.0  0.88950  0.62868  0.97835  1.0000
  H   H880      1.0  0.97602  0.53076  0.93370  1.0000
  S   S224      1.0  0.83957  0.60947  0.02064  1.0000
  S   S225      1.0  0.84661  0.42020  0.02584  1.0000
  H   H881      1.0  0.07013  0.45362  0.70112  1.0000
  H   H882      1.0  0.05422  0.56265  0.90307  1.0000
  C   C548      1.0  0.83553  0.56817  0.92103  1.0000
  H   H883      1.0  0.94745  0.59049  0.05038  1.0000
  C   C549      1.0  0.93148  0.60090  0.03018  1.0000
  C   C550      1.0  0.90012  0.60395  0.03878  1.0000
  C   C551      1.0  0.87899  0.61638  0.01253  1.0000
  H   H884      1.0  0.00732  0.18716  0.69597  1.0000
  H   H885      1.0  0.86863  0.54590  0.98025  1.0000
  Fe  Fe112     1.0  0.03858  0.55734  0.09606  1.0000
  N   N57       1.0  0.00951  0.53894  0.89100  1.0000
  C   C552      1.0  0.86158  0.51511  0.89291  1.0000
  S   S226      1.0  0.02240  0.50695  0.00446  1.0000
  H   H886      1.0  0.01944  0.48865  0.92244  1.0000
  S   S227      1.0  0.98008  0.60039  0.98259  1.0000
  H   H887      1.0  0.84903  0.19042  0.76333  1.0000
  C   C553      1.0  0.02269  0.64641  0.12011  1.0000
  C   C554      1.0  0.03254  0.51629  0.72814  1.0000
  C   C555      1.0  0.85807  0.27692  0.72354  1.0000
  C   C556      1.0  0.92105  0.62546  0.96963  1.0000
  C   C557      1.0  0.85081  0.22187  0.76205  1.0000
  H   H888      1.0  0.88430  0.22838  0.67848  1.0000
  H   H889      1.0  0.92165  0.59699  0.12599  1.0000
  H   H890      1.0  0.87923  0.28494  0.73900  1.0000
  H   H891      1.0  0.88835  0.50797  0.95812  1.0000
  H   H892      1.0  0.84668  0.17343  0.12331  1.0000
  Fe  Fe113     1.0  0.06769  0.52546  0.02782  1.0000
  H   H893      1.0  0.84947  0.39327  0.95230  1.0000
  C   C558      1.0  0.00754  0.38323  0.13299  1.0000
  H   H894      1.0  0.83732  0.47636  0.94951  1.0000
  H   H895      1.0  0.89671  0.43472  0.08636  1.0000
  H   H896      1.0  0.07149  0.55427  0.73070  1.0000
  H   H897      1.0  0.05022  0.40925  0.70331  1.0000
  H   H898      1.0  0.90941  0.64307  0.11008  1.0000
  H   H899      1.0  0.87154  0.48619  0.89679  1.0000
  H   H900      1.0  0.92060  0.33369  0.08751  1.0000
  H   H901      1.0  0.94985  0.63257  0.11526  1.0000
  H   H902      1.0  0.01058  0.42587  0.65896  1.0000
  H   H903      1.0  0.06355  0.17503  0.87739  1.0000
  H   H904      1.0  0.98152  0.22253  0.67756  1.0000
  H   H905      1.0  0.02587  0.47297  0.65896  1.0000
  H   H906      1.0  0.91416  0.39400  0.66108  1.0000
  C   C559      1.0  0.06789  0.42548  0.68773  1.0000
  H   H907      1.0  0.83086  0.42113  0.83741  1.0000
  H   H908      1.0  0.03019  0.17717  0.93314  1.0000
  C   C560      1.0  0.00481  0.45057  0.14533  1.0000
  H   H909      1.0  0.99412  0.18379  0.64950  1.0000
  S   S228      1.0  0.93357  0.82223  0.48969  1.0000
  H   H910      1.0  0.84720  0.78193  0.41405  1.0000
  Fe  Fe114     1.0  0.00208  0.77916  0.20851  1.0000
  C   C561      1.0  0.96151  0.80302  0.39427  1.0000
  C   C562      1.0  0.88583  0.12535  0.62792  1.0000
  S   S229      1.0  0.99796  0.86709  0.54342  1.0000
  Fe  Fe115     1.0  0.97113  0.81447  0.53131  1.0000
  C   C563      1.0  0.07521  0.72355  0.61832  1.0000
  C   C564      1.0  0.87085  0.81862  0.49165  1.0000
  H   H911      1.0  0.01623  0.80931  0.42884  1.0000
  C   C565      1.0  0.03425  0.90802  0.17012  1.0000
  H   H912      1.0  0.86166  0.75804  0.32262  1.0000
  H   H913      1.0  0.89751  0.14215  0.21904  1.0000
  H   H914      1.0  0.99326  0.72818  0.43975  1.0000
  Fe  Fe116     1.0  0.03554  0.78678  0.28043  1.0000
  H   H915      1.0  0.00202  0.72337  0.37271  1.0000
  C   C566      1.0  0.85052  0.73655  0.23294  1.0000
  H   H916      1.0  0.97558  0.77003  0.45805  1.0000
  H   H917      1.0  0.91413  0.69902  0.15083  1.0000
  C   C567      1.0  0.89653  0.76167  0.28102  1.0000
  C   C568      1.0  0.90350  0.75559  0.24420  1.0000
  C   C569      1.0  0.88043  0.74331  0.22014  1.0000
  H   H918      1.0  0.92809  0.88203  0.59537  1.0000
  S   S230      1.0  0.03847  0.81536  0.60109  1.0000
  C   C570      1.0  0.95907  0.16944  0.24977  1.0000
  C   C571      1.0  0.84388  0.74093  0.27008  1.0000
  C   C572      1.0  0.89794  0.76717  0.52193  1.0000
  H   H919      1.0  0.00095  0.14469  0.22823  1.0000
  C   C573      1.0  0.84072  0.15783  0.19490  1.0000
  C   C574      1.0  0.86946  0.75024  0.53052  1.0000
  S   S231      1.0  0.01292  0.77747  0.52409  1.0000
  H   H920      1.0  0.91935  0.75350  0.52995  1.0000
  H   H921      1.0  0.92649  0.76098  0.23404  1.0000
  Fe  Fe117     1.0  0.00832  0.76669  0.58436  1.0000
  C   C575      1.0  0.97628  0.75118  0.43385  1.0000
  H   H922      1.0  0.93045  0.13745  0.60440  1.0000
  H   H923      1.0  0.86894  0.72344  0.54507  1.0000
  H   H924      1.0  0.02256  0.80604  0.38038  1.0000
  C   C576      1.0  0.01559  0.78965  0.40511  1.0000
  N   N58       1.0  0.98459  0.77264  0.40053  1.0000
  S   S232      1.0  0.99819  0.74758  0.26165  1.0000
  S   S233      1.0  0.00333  0.83141  0.30068  1.0000
  S   S234      1.0  0.07398  0.77021  0.31812  1.0000
  H   H925      1.0  0.03360  0.87792  0.17570  1.0000
  C   C577      1.0  0.89855  0.80116  0.50211  1.0000
  H   H926      1.0  0.96644  0.81925  0.36883  1.0000
  H   H927      1.0  0.95005  0.01766  0.63586  1.0000
  H   H928      1.0  0.85293  0.86658  0.54854  1.0000
  Fe  Fe118     1.0  0.96631  0.79474  0.27725  1.0000
  S   S235      1.0  0.89573  0.07980  0.64318  1.0000
  Fe  Fe119     1.0  0.99437  0.84878  0.60167  1.0000
  S   S236      1.0  0.96371  0.79910  0.59007  1.0000
  H   H929      1.0  0.99111  0.76190  0.34340  1.0000
  H   H930      1.0  0.96107  0.82355  0.41727  1.0000
  S   S237      1.0  0.04290  0.81386  0.22564  1.0000
  C   C578      1.0  0.84248  0.80257  0.50162  1.0000
  H   H931      1.0  0.95294  0.73814  0.43139  1.0000
  H   H932      1.0  0.87132  0.84492  0.47627  1.0000
  Fe  Fe120     1.0  0.03930  0.82896  0.54127  1.0000
  H   H933      1.0  0.03164  0.70590  0.20821  1.0000
  C   C579      1.0  0.86687  0.75370  0.29411  1.0000
  S   S238      1.0  0.92455  0.78025  0.31047  1.0000
  C   C580      1.0  0.98489  0.74667  0.36897  1.0000
  H   H934      1.0  0.93774  0.79128  0.39141  1.0000
  H   H935      1.0  0.84389  0.16403  0.22448  1.0000
  H   H936      1.0  0.82960  0.87278  0.58839  1.0000
  H   H937      1.0  0.91005  0.86998  0.55279  1.0000
  H   H938      1.0  0.95450  0.68921  0.15370  1.0000
  S   S239      1.0  0.96679  0.82366  0.22250  1.0000
  H   H939      1.0  0.88273  0.81675  0.58229  1.0000
  H   H940      1.0  0.07237  0.74398  0.59659  1.0000
  H   H941      1.0  0.07004  0.91417  0.29196  1.0000
  H   H942      1.0  0.96172  0.73374  0.36438  1.0000
  H   H943      1.0  0.93248  0.69372  0.19475  1.0000
  C   C581      1.0  0.85130  0.88215  0.57476  1.0000
  C   C582      1.0  0.94202  0.99601  0.14912  1.0000
  H   H944      1.0  0.07399  0.74211  0.24424  1.0000
  C   C583      1.0  0.84168  0.76806  0.52056  1.0000
  H   H945      1.0  0.96660  0.16933  0.33095  1.0000
  C   C584      1.0  0.04194  0.91753  0.63119  1.0000
  S   S240      1.0  0.01325  0.91859  0.24009  1.0000
  H   H946      1.0  0.90089  0.82804  0.62498  1.0000
  C   C585      1.0  0.90700  0.88662  0.57835  1.0000
  H   H947      1.0  0.88541  0.74046  0.19139  1.0000
  C   C586      1.0  0.88050  0.83436  0.60731  1.0000
  N   N59       1.0  0.86987  0.16306  0.17442  1.0000
  C   C587      1.0  0.89383  0.13730  0.18933  1.0000
  S   S241      1.0  0.01350  0.70860  0.60940  1.0000
  C   C588      1.0  0.06997  0.93505  0.64041  1.0000
  H   H948      1.0  0.87433  0.92848  0.62603  1.0000
  H   H949      1.0  0.94893  0.14237  0.25689  1.0000
  N   N60       1.0  0.93032  0.95716  0.15537  1.0000
  H   H950      1.0  0.06382  0.86648  0.27795  1.0000
  C   C589      1.0  0.02532  0.93396  0.19690  1.0000
  H   H951      1.0  0.85458  0.88973  0.64753  1.0000
  N   N61       1.0  0.87866  0.87518  0.59811  1.0000
  C   C590      1.0  0.83758  0.75289  0.41771  1.0000
  H   H952      1.0  0.85172  0.73319  0.40089  1.0000
  H   H953      1.0  0.00523  0.03799  0.63015  1.0000
  C   C591      1.0  0.93330  0.94731  0.19452  1.0000
  H   H954      1.0  0.01886  0.99298  0.20986  1.0000
  C   C592      1.0  0.02572  0.97283  0.18917  1.0000
  C   C593      1.0  0.01545  0.70561  0.15260  1.0000
  C   C594      1.0  0.90758  0.14836  0.61016  1.0000
  H   H955      1.0  0.03362  0.76753  0.40970  1.0000
  C   C595      1.0  0.03477  0.98580  0.15460  1.0000
  H   H956      1.0  0.95779  0.94907  0.20382  1.0000
  H   H957      1.0  0.88741  0.10702  0.18551  1.0000
  C   C596      1.0  0.02900  0.68941  0.18369  1.0000
  H   H958      1.0  0.00647  0.16864  0.34542  1.0000
  H   H959      1.0  0.84096  0.74472  0.44685  1.0000
  H   H960      1.0  0.03820  0.90772  0.60358  1.0000
  H   H961      1.0  0.91651  0.14168  0.17553  1.0000
  C   C597      1.0  0.87582  0.89752  0.63203  1.0000
  Fe  Fe121     1.0  0.00735  0.85567  0.24440  1.0000
  H   H962      1.0  0.96680  0.99864  0.15698  1.0000
  H   H963      1.0  0.83196  0.12826  0.19250  1.0000
  H   H964      1.0  0.91949  0.96683  0.21190  1.0000
  C   C598      1.0  0.85631  0.13947  0.63528  1.0000
  H   H965      1.0  0.90631  0.91715  0.57055  1.0000
  C   C599      1.0  0.05007  0.70142  0.62927  1.0000
  H   H966      1.0  0.88278  0.97512  0.16050  1.0000
  H   H967      1.0  0.95188  0.17138  0.39672  1.0000
  S   S242      1.0  0.00004  0.75159  0.15358  1.0000
  H   H968      1.0  0.85942  0.82458  0.62200  1.0000
  H   H969      1.0  0.92525  0.91787  0.20016  1.0000
  H   H970      1.0  0.92883  0.01731  0.16520  1.0000
  H   H971      1.0  0.84855  0.91281  0.56800  1.0000
  C   C600      1.0  0.98842  0.17072  0.23345  1.0000
  C   C601      1.0  0.93186  0.68264  0.16635  1.0000
  S   S243      1.0  0.98408  0.89030  0.64625  1.0000
  H   H972      1.0  0.03504  0.01581  0.14890  1.0000
  H   H973      1.0  0.83932  0.12175  0.64846  1.0000
  H   H974      1.0  0.97364  0.93118  0.14099  1.0000
  H   H975      1.0  0.94707  0.93678  0.10373  1.0000
  C   C602      1.0  0.05418  0.67369  0.65644  1.0000
  H   H976      1.0  0.93566  0.11465  0.91926  1.0000
  C   C603      1.0  0.07002  0.02106  0.88960  1.0000
  H   H977      1.0  0.92657  0.13233  0.05620  1.0000
  H   H978      1.0  0.88618  0.05194  0.97563  1.0000
  H   H979      1.0  0.99205  0.98979  0.72012  1.0000
  H   H980      1.0  0.00172  0.69646  0.09675  1.0000
  C   C604      1.0  0.94868  0.93017  0.13344  1.0000
  H   H981      1.0  0.07768  0.98604  0.93684  1.0000
  H   H982      1.0  0.98838  0.09150  0.69128  1.0000
  C   C605      1.0  0.01666  0.04617  0.92552  1.0000
  H   H983      1.0  0.01660  0.99846  0.65813  1.0000
  S   S244      1.0  0.03312  0.12184  0.74417  1.0000
  C   C606      1.0  0.86464  0.15456  0.13544  1.0000
  H   H984      1.0  0.97050  0.15017  0.74459  1.0000
  Fe  Fe122     1.0  0.03480  0.03250  0.07057  1.0000
  H   H985      1.0  0.96224  0.97823  0.66394  1.0000
  C   C607      1.0  0.07509  0.94779  0.67607  1.0000
  H   H986      1.0  0.91960  0.08215  0.97538  1.0000
  H   H987      1.0  0.85408  0.10365  0.95063  1.0000
  Fe  Fe123     1.0  0.98236  0.08559  0.08605  1.0000
  S   S245      1.0  0.94037  0.08929  0.12108  1.0000
  S   S246      1.0  0.98526  0.03236  0.05323  1.0000
  H   H988      1.0  0.06318  0.12428  0.87880  1.0000
  H   H989      1.0  0.02791  0.04555  0.67073  1.0000
  S   S247      1.0  0.91287  0.05735  0.81743  1.0000
  C   C608      1.0  0.01885  0.91290  0.65756  1.0000
  C   C609      1.0  0.04412  0.96000  0.12792  1.0000
  C   C610      1.0  0.00041  0.10838  0.76931  1.0000
  C   C611      1.0  0.00212  0.07807  0.79390  1.0000
  C   C612      1.0  0.97531  0.06344  0.80999  1.0000
  C   C613      1.0  0.94661  0.07947  0.80172  1.0000
  C   C614      1.0  0.94512  0.11174  0.77934  1.0000
  C   C615      1.0  0.97195  0.12603  0.76284  1.0000
  H   H990      1.0  0.02397  0.06500  0.79958  1.0000
  H   H991      1.0  0.97675  0.03886  0.82776  1.0000
  H   H992      1.0  0.92342  0.12597  0.77499  1.0000
  H   H993      1.0  0.93351  0.01115  0.68016  1.0000
  N   N62       1.0  0.97999  0.03254  0.68047  1.0000
  H   H994      1.0  0.04167  0.15131  0.97340  1.0000
  S   S248      1.0  0.05083  0.06590  0.02198  1.0000
  S   S249      1.0  0.87126  0.11041  0.73836  1.0000
  H   H995      1.0  0.86505  0.12731  0.90905  1.0000
  S   S250      1.0  0.03100  0.08313  0.10725  1.0000
  H   H996      1.0  0.88622  0.15830  0.11931  1.0000
  C   C616      1.0  0.87690  0.05308  0.90273  1.0000
  C   C617      1.0  0.85764  0.08768  0.04453  1.0000
  C   C618      1.0  0.88206  0.11269  0.03789  1.0000
  C   C619      1.0  0.90812  0.11220  0.06069  1.0000
  C   C620      1.0  0.90927  0.08749  0.09071  1.0000
  C   C621      1.0  0.88518  0.06192  0.09684  1.0000
  C   C622      1.0  0.85970  0.06150  0.07328  1.0000
  Fe  Fe124     1.0  0.86688  0.06887  0.69289  1.0000
  H   H997      1.0  0.88030  0.13346  0.01620  1.0000
  H   H998      1.0  0.88601  0.04265  0.11987  1.0000
  H   H999      1.0  0.92094  0.03762  0.95226  1.0000
  S   S251      1.0  0.07413  0.16672  0.05290  1.0000
  C   C623      1.0  0.03611  0.01948  0.94227  1.0000
  C   C624      1.0  0.00869  0.02849  0.65890  1.0000
  H   H1000     1.0  0.89422  0.96271  0.11506  1.0000
  C   C625      1.0  0.01243  0.68409  0.12079  1.0000
  C   C626      1.0  0.05197  0.94318  0.70242  1.0000
  H   H1001     1.0  0.02952  0.12636  0.93339  1.0000
  H   H1002     1.0  0.85671  0.12485  0.13162  1.0000
  C   C627      1.0  0.05031  0.04715  0.87268  1.0000
  H   H1003     1.0  0.86783  0.06620  0.87712  1.0000
  H   H1004     1.0  0.03053  0.00849  0.96909  1.0000
  C   C628      1.0  0.98582  0.02033  0.71852  1.0000
  H   H1005     1.0  0.00630  0.92140  0.71379  1.0000
  S   S252      1.0  0.06826  0.02046  0.76987  1.0000
  C   C629      1.0  0.90571  0.06227  0.95847  1.0000
  H   H1006     1.0  0.96451  0.08263  0.65197  1.0000
  S   S253      1.0  0.05555  0.97602  0.08462  1.0000
  H   H1007     1.0  0.00858  0.08035  0.87756  1.0000
  S   S254      1.0  0.98606  0.06635  0.94987  1.0000
  H   H1008     1.0  0.05638  0.05861  0.84634  1.0000
  H   H1009     1.0  0.96509  0.02476  0.73609  1.0000
  H   H1010     1.0  0.05117  0.90102  0.11515  1.0000
  Fe  Fe125     1.0  0.00069  0.07049  0.00811  1.0000
  S   S255      1.0  0.99294  0.12418  0.03894  1.0000
  Fe  Fe126     1.0  0.04213  0.11686  0.05679  1.0000
  C   C630      1.0  0.02343  0.05944  0.89042  1.0000
  C   C631      1.0  0.04408  0.92109  0.13580  1.0000
  H   H1011     1.0  0.05607  0.95188  0.73024  1.0000
  S   S256      1.0  0.87633  0.01795  0.72778  1.0000
  C   C632      1.0  0.87424  0.11307  0.93401  1.0000
  C   C633      1.0  0.92117  0.09472  0.90318  1.0000
  N   N63       1.0  0.89451  0.08078  0.92461  1.0000
  C   C634      1.0  0.95542  0.00875  0.66440  1.0000
  H   H1012     1.0  0.91358  0.10966  0.87787  1.0000
  C   C635      1.0  0.02386  0.92578  0.69315  1.0000
  H   H1013     1.0  0.89181  0.02881  0.89435  1.0000
  H   H1014     1.0  0.84130  0.04129  0.07783  1.0000
  H   H1015     1.0  0.93648  0.07090  0.89457  1.0000
  Fe  Fe127     1.0  0.87647  0.05927  0.77400  1.0000
  H   H1016     1.0  0.85690  0.04149  0.91826  1.0000
  H   H1017     1.0  0.94887  0.07695  0.69693  1.0000
  C   C636      1.0  0.06273  0.00680  0.92419  1.0000
  H   H1018     1.0  0.94019  0.00442  0.11983  1.0000
  Fe  Fe128     1.0  0.07297  0.08254  0.75647  1.0000
  H   H1019     1.0  0.88695  0.13470  0.95012  1.0000
  C   C637      1.0  0.07531  0.14975  0.88938  1.0000
  C   C638      1.0  0.97007  0.07269  0.68013  1.0000
  H   H1020     1.0  0.00526  0.03650  0.73076  1.0000
  C   C639      1.0  0.04268  0.15145  0.94297  1.0000
  N   N64       1.0  0.07499  0.15065  0.92975  1.0000
  H   H1021     1.0  0.88775  0.92623  0.14866  1.0000
  H   H1022     1.0  0.94074  0.90044  0.13761  1.0000
  C   C640      1.0  0.89739  0.95519  0.14440  1.0000
  H   H1023     1.0  0.07765  0.85903  0.66323  1.0000
  H   H1024     1.0  0.89612  0.89294  0.65035  1.0000
