data_image0
_chemical_formula_structural       SC2H3C2HFeSHCH3CHSCHCHCH3CHSCHSH2CHNHSCHNCHNH4CSFeH2CHC2HSH4CFeHSHFeC2HC2SCHSH3CFeSCHFeCSC2HS2CSHFeSHFeSH2CHC2H11CHCH2SH3CH2CHCH4CNHNC2HCSFeHFeSHCHNSCHC2FeH4SHC3H5CHCHCHC3HCHC2HCH2C2HCSH2C2H3SCFe2HC2S2HCHFeCHS2NHCH2CSH2CH2C2H3CH2FeSH2CHCHCHNCH2NHSH3CHCFeH2C2H2CH4CFeH2CH2SCHCH2CSC2SH2SC3FeCFeHS2CHCS2C2HCSH3N2HFeC2H2FeHCH2SH2SFeH2NHCHCSHSHSH2CH3FeC5H3CHC2HCH2CH2CHFeSHS3C2HFeSC4HFeH2SHFeH2CH2C2HCHCH2SC2HCH3CH3NHCSH3C2H4CH2C2HCFeH3CNH2C2Fe2HCSFeC2SCHNS3HC2HSHCH4C2H8SH5C2HCHCHC2HCH2CSCHFeSH2CHFeHC2HC2HSC5FeSH3C2FeH2C2H2SHCH3CH2FeHS2HCHSHSH2CNHC2H2SNHC2H2C2HNH3FeHC3SHSHFeH2C2SFeSCHS2Fe2CH6SNH4NCHCH2C2H3C3H2CH3CHCH4CSH4CSH2C2H2SHC4SHCHCH7SH3FeCFeCH3SC2SHCFeCSH2NCHCHC2HCSH7C2H6SHSC2NCH2CHCHCH2CSHFeCHC2SH2C2FeSH3SNFeHC2H2SH4SH2SCHFeNHCH
_chemical_formula_sum              "S96 C240 H384 Fe48 N24"
_cell_length_a       26.8003
_cell_length_b       27.8529
_cell_length_c       22.2171
_cell_angle_alpha    85.0054
_cell_angle_beta     74.1997
_cell_angle_gamma    89.0929

_space_group_name_H-M_alt    "P 1"
_space_group_IT_number       1

loop_
  _space_group_symop_operation_xyz
  'x, y, z'

loop_
  _atom_site_type_symbol
  _atom_site_label
  _atom_site_symmetry_multiplicity
  _atom_site_fract_x
  _atom_site_fract_y
  _atom_site_fract_z
  _atom_site_occupancy
  S   S1        1.0  0.98547  0.19994  0.01180  1.0000
  C   C1        1.0  0.29776  0.14698  0.92645  1.0000
  C   C2        1.0  0.34968  0.24081  0.01258  1.0000
  H   H1        1.0  0.09847  0.19051  0.97682  1.0000
  H   H2        1.0  0.35451  0.09966  0.87418  1.0000
  H   H3        1.0  0.06019  0.17337  0.86373  1.0000
  C   C3        1.0  0.14967  0.11430  0.92488  1.0000
  C   C4        1.0  0.12462  0.19794  0.92861  1.0000
  H   H4        1.0  0.18882  0.12257  0.92972  1.0000
  Fe  Fe1       1.0  0.28221  0.03599  0.94010  1.0000
  S   S2        1.0  0.19977  0.30729  0.82963  1.0000
  H   H5        1.0  0.16290  0.20966  0.93289  1.0000
  C   C5        1.0  0.07756  0.14256  0.88628  1.0000
  H   H6        1.0  0.10781  0.22905  0.90591  1.0000
  H   H7        1.0  0.96660  0.28928  0.86590  1.0000
  H   H8        1.0  0.33666  0.20333  0.01095  1.0000
  C   C6        1.0  0.28663  0.22280  0.86963  1.0000
  H   H9        1.0  0.24787  0.20396  0.96700  1.0000
  S   S3        1.0  0.07264  0.27204  0.79431  1.0000
  C   C7        1.0  0.34486  0.16344  0.81684  1.0000
  H   H10       1.0  0.15073  0.19779  0.80352  1.0000
  C   C8        1.0  0.16499  0.16670  0.82911  1.0000
  H   H11       1.0  0.27080  0.25836  0.86969  1.0000
  C   C9        1.0  0.27517  0.19250  0.92544  1.0000
  H   H12       1.0  0.15301  0.08136  0.89896  1.0000
  H   H13       1.0  0.04990  0.13304  0.93312  1.0000
  H   H14       1.0  0.20437  0.17646  0.83200  1.0000
  C   C10       1.0  0.31916  0.20715  0.81434  1.0000
  H   H15       1.0  0.38978  0.21085  0.89562  1.0000
  S   S4        1.0  0.27520  0.10352  0.98973  1.0000
  C   C11       1.0  0.91841  0.20873  0.03786  1.0000
  H   H16       1.0  0.39030  0.32773  0.96671  1.0000
  S   S5        1.0  0.27033  0.04874  0.84395  1.0000
  H   H17       1.0  0.07947  0.11118  0.85800  1.0000
  H   H18       1.0  0.31984  0.26577  0.00155  1.0000
  C   C12       1.0  0.33482  0.13374  0.87299  1.0000
  H   H19       1.0  0.36921  0.27265  0.89198  1.0000
  N   N1        1.0  0.12925  0.15535  0.89222  1.0000
  H   H20       1.0  0.12383  0.10512  0.97289  1.0000
  S   S6        1.0  0.08506  0.30842  0.99306  1.0000
  C   C13       1.0  0.97782  0.31643  0.82661  1.0000
  H   H21       1.0  0.92402  0.28412  0.00554  1.0000
  N   N2        1.0  0.40148  0.25100  0.96863  1.0000
  C   C14       1.0  0.39899  0.24808  0.90354  1.0000
  H   H22       1.0  0.16911  0.13542  0.80029  1.0000
  N   N3        1.0  0.18369  0.15028  0.16637  1.0000
  H   H23       1.0  0.16564  0.22292  0.18985  1.0000
  H   H24       1.0  0.28977  0.27671  0.22311  1.0000
  H   H25       1.0  0.20181  0.19000  0.23669  1.0000
  H   H26       1.0  0.34977  0.24509  0.06181  1.0000
  C   C15       1.0  0.19658  0.19570  0.18873  1.0000
  S   S7        1.0  0.97395  0.30690  0.27314  1.0000
  Fe  Fe2       1.0  0.01999  0.25972  0.04920  1.0000
  H   H27       1.0  0.13981  0.30764  0.18981  1.0000
  H   H28       1.0  0.13608  0.12362  0.25715  1.0000
  C   C16       1.0  0.37501  0.02718  0.28395  1.0000
  H   H29       1.0  0.17089  0.12626  0.08225  1.0000
  C   C17       1.0  0.17942  0.15977  0.10156  1.0000
  C   C18       1.0  0.36037  0.31732  0.18167  1.0000
  H   H30       1.0  0.14880  0.18643  0.09877  1.0000
  S   S8        1.0  0.20190  0.28527  0.06891  1.0000
  H   H31       1.0  0.26297  0.12796  0.13491  1.0000
  H   H32       1.0  0.07387  0.25698  0.25087  1.0000
  H   H33       1.0  0.21651  0.07993  0.15048  1.0000
  H   H34       1.0  0.23329  0.21196  0.15750  1.0000
  C   C19       1.0  0.22512  0.11470  0.16687  1.0000
  Fe  Fe3       1.0  0.11742  0.29545  0.07588  1.0000
  H   H35       1.0  0.10189  0.15732  0.20852  1.0000
  S   S9        1.0  0.05632  0.24176  0.12803  1.0000
  H   H36       1.0  0.21635  0.17508  0.07002  1.0000
  Fe  Fe4       1.0  0.01309  0.30518  0.17069  1.0000
  C   C20       1.0  0.13387  0.13113  0.20787  1.0000
  C   C21       1.0  0.17482  0.32899  0.17816  1.0000
  H   H37       1.0  0.23065  0.10736  0.21468  1.0000
  C   C22       1.0  0.33079  0.27480  0.20006  1.0000
  C   C23       1.0  0.35393  0.23021  0.18669  1.0000
  S   S10       1.0  0.97155  0.31948  0.09630  1.0000
  C   C24       1.0  0.21413  0.32186  0.12370  1.0000
  H   H38       1.0  0.12272  0.09699  0.19218  1.0000
  S   S11       1.0  0.31771  0.17679  0.20877  1.0000
  H   H39       1.0  0.40075  0.12139  0.25105  1.0000
  H   H40       1.0  0.35494  0.01989  0.24792  1.0000
  H   H41       1.0  0.40242  0.09082  0.18286  1.0000
  C   C25       1.0  0.09301  0.25265  0.33954  1.0000
  Fe  Fe5       1.0  0.24285  0.11481  0.43139  1.0000
  S   S12       1.0  0.11326  0.24728  0.45616  1.0000
  C   C26       1.0  0.02953  0.28649  0.42439  1.0000
  H   H42       1.0  0.96220  0.31764  0.40167  1.0000
  Fe  Fe6       1.0  0.27549  0.17959  0.30967  1.0000
  C   C27       1.0  0.06180  0.26567  0.29902  1.0000
  S   S13       1.0  0.22813  0.17744  0.49012  1.0000
  C   C28       1.0  0.07668  0.26287  0.40251  1.0000
  C   C29       1.0  0.01459  0.28928  0.32129  1.0000
  H   H43       1.0  0.34399  0.33155  0.51496  1.0000
  S   S14       1.0  0.19946  0.14545  0.36392  1.0000
  S   S15       1.0  0.36716  0.23602  0.45809  1.0000
  C   C30       1.0  0.99862  0.29947  0.38407  1.0000
  S   S16       1.0  0.31929  0.14332  0.37230  1.0000
  H   H44       1.0  0.12942  0.23456  0.32220  1.0000
  Fe  Fe7       1.0  0.18961  0.21069  0.41873  1.0000
  S   S17       1.0  0.26288  0.24736  0.35905  1.0000
  H   H45       1.0  0.01660  0.29489  0.47258  1.0000
  Fe  Fe8       1.0  0.30207  0.20834  0.42547  1.0000
  S   S18       1.0  0.23434  0.03799  0.47136  1.0000
  H   H46       1.0  0.17722  0.32310  0.38963  1.0000
  H   H47       1.0  0.33589  0.07467  0.46501  1.0000
  C   C31       1.0  0.33876  0.03651  0.46055  1.0000
  H   H48       1.0  0.34999  0.05171  0.31612  1.0000
  C   C32       1.0  0.38689  0.01387  0.45251  1.0000
  C   C33       1.0  0.29451  0.00976  0.46261  1.0000
  H   H49       1.0  0.01437  0.21206  0.53870  1.0000
  H   H50       1.0  0.36982  0.10486  0.53860  1.0000
  H   H51       1.0  0.11535  0.34235  0.49324  1.0000
  H   H52       1.0  0.26491  0.10937  0.72115  1.0000
  H   H53       1.0  0.31425  0.17520  0.56440  1.0000
  H   H54       1.0  0.03941  0.17901  0.66213  1.0000
  H   H55       1.0  0.37170  0.15200  0.77509  1.0000
  H   H56       1.0  0.07771  0.21933  0.59968  1.0000
  H   H57       1.0  0.97222  0.30423  0.59210  1.0000
  H   H58       1.0  0.97468  0.17205  0.60017  1.0000
  H   H59       1.0  0.96377  0.25500  0.72580  1.0000
  C   C34       1.0  0.02726  0.31549  0.78464  1.0000
  H   H60       1.0  0.33372  0.11081  0.70984  1.0000
  C   C35       1.0  0.04488  0.21746  0.64330  1.0000
  H   H61       1.0  0.05697  0.23762  0.67827  1.0000
  H   H62       1.0  0.38405  0.33433  0.66281  1.0000
  S   S19       1.0  0.21082  0.29167  0.68215  1.0000
  H   H63       1.0  0.91777  0.24898  0.68126  1.0000
  H   H64       1.0  0.30283  0.05615  0.70179  1.0000
  H   H65       1.0  0.01343  0.31096  0.64233  1.0000
  C   C36       1.0  0.98271  0.21066  0.58333  1.0000
  H   H66       1.0  0.36250  0.05224  0.59381  1.0000
  H   H67       1.0  0.26855  0.04865  0.61014  1.0000
  C   C37       1.0  0.95446  0.23430  0.68942  1.0000
  H   H68       1.0  0.34092  0.18020  0.62952  1.0000
  C   C38       1.0  0.30924  0.16326  0.61476  1.0000
  H   H69       1.0  0.27198  0.17817  0.64202  1.0000
  H   H70       1.0  0.04053  0.29299  0.56486  1.0000
  H   H71       1.0  0.94752  0.22602  0.57143  1.0000
  H   H72       1.0  0.27280  0.09891  0.55327  1.0000
  C   C39       1.0  0.00620  0.28874  0.60643  1.0000
  N   N4        1.0  0.31024  0.11014  0.62499  1.0000
  H   H73       1.0  0.39304  0.10561  0.60641  1.0000
  N   N5        1.0  0.99705  0.23770  0.63067  1.0000
  C   C40       1.0  0.36101  0.09236  0.58927  1.0000
  C   C41       1.0  0.30240  0.09603  0.69245  1.0000
  H   H74       1.0  0.22948  0.10099  0.63013  1.0000
  C   C42       1.0  0.26842  0.08881  0.60386  1.0000
  S   S20       1.0  0.40157  0.02700  0.72168  1.0000
  Fe  Fe9       1.0  0.14848  0.31169  0.76546  1.0000
  H   H75       1.0  0.94685  0.19630  0.70958  1.0000
  Fe  Fe10      1.0  0.26368  0.29390  0.74426  1.0000
  S   S21       1.0  0.32634  0.23945  0.74103  1.0000
  H   H76       1.0  0.34983  0.28147  0.56962  1.0000
  C   C43       1.0  0.35234  0.32138  0.56085  1.0000
  H   H77       1.0  0.32062  0.33612  0.59751  1.0000
  N   N6        1.0  0.40354  0.33963  0.56177  1.0000
  S   S22       1.0  0.20258  0.65952  0.87682  1.0000
  C   C44       1.0  0.37089  0.45185  0.90431  1.0000
  H   H78       1.0  0.29793  0.48905  0.92065  1.0000
  C   C45       1.0  0.94360  0.35373  0.81910  1.0000
  C   C46       1.0  0.32366  0.38378  0.85212  1.0000
  Fe  Fe11      1.0  0.21733  0.38522  0.79974  1.0000
  H   H79       1.0  0.23331  0.59212  0.96532  1.0000
  H   H80       1.0  0.99645  0.57422  0.84927  1.0000
  H   H81       1.0  0.04403  0.47703  0.86871  1.0000
  H   H82       1.0  0.32051  0.56479  0.97186  1.0000
  S   S23       1.0  0.23328  0.43538  0.86600  1.0000
  H   H83       1.0  0.30521  0.35648  0.83381  1.0000
  C   C47       1.0  0.29559  0.42402  0.87574  1.0000
  C   C48       1.0  0.26755  0.60970  0.93478  1.0000
  C   C49       1.0  0.03707  0.56781  0.82190  1.0000
  H   H84       1.0  0.39746  0.34839  0.83212  1.0000
  H   H85       1.0  0.38159  0.53505  0.81833  1.0000
  H   H86       1.0  0.06149  0.56469  0.85533  1.0000
  H   H87       1.0  0.20190  0.50987  0.95335  1.0000
  H   H88       1.0  0.90570  0.35510  0.85219  1.0000
  C   C50       1.0  0.37592  0.37888  0.85170  1.0000
  H   H89       1.0  0.25331  0.49625  0.03088  1.0000
  C   C51       1.0  0.31908  0.45762  0.90285  1.0000
  H   H90       1.0  0.39005  0.67417  0.82685  1.0000
  C   C52       1.0  0.16580  0.50936  0.99268  1.0000
  H   H91       1.0  0.97998  0.48515  0.85855  1.0000
  C   C53       1.0  0.31675  0.59446  0.93859  1.0000
  C   C54       1.0  0.36109  0.61665  0.89784  1.0000
  C   C55       1.0  0.35617  0.65569  0.85616  1.0000
  H   H92       1.0  0.93128  0.57758  0.96449  1.0000
  C   C56       1.0  0.30721  0.67039  0.85165  1.0000
  H   H93       1.0  0.02586  0.44798  0.80938  1.0000
  C   C57       1.0  0.02172  0.48185  0.83307  1.0000
  C   C58       1.0  0.26297  0.64630  0.88943  1.0000
  H   H94       1.0  0.38895  0.47841  0.92455  1.0000
  C   C59       1.0  0.39991  0.41316  0.87709  1.0000
  H   H95       1.0  0.13458  0.49452  0.97514  1.0000
  H   H96       1.0  0.22007  0.42548  0.99913  1.0000
  C   C60       1.0  0.97780  0.51725  0.98271  1.0000
  C   C61       1.0  0.93128  0.53971  0.98025  1.0000
  H   H97       1.0  0.15185  0.41546  0.01372  1.0000
  C   C62       1.0  0.97822  0.46821  0.00246  1.0000
  S   S24       1.0  0.03873  0.44232  0.99966  1.0000
  H   H98       1.0  0.01359  0.53785  0.96893  1.0000
  H   H99       1.0  0.15538  0.54717  0.00278  1.0000
  C   C63       1.0  0.93170  0.44184  0.02122  1.0000
  C   C64       1.0  0.18196  0.42949  0.03388  1.0000
  H   H100      1.0  0.93203  0.40379  0.03535  1.0000
  H   H101      1.0  0.14804  0.37142  0.25697  1.0000
  H   H102      1.0  0.21066  0.53710  0.07838  1.0000
  S   S25       1.0  0.35927  0.48016  0.14185  1.0000
  C   C65       1.0  0.21621  0.49870  0.06811  1.0000
  Fe  Fe12      1.0  0.03881  0.36716  0.04496  1.0000
  Fe  Fe13      1.0  0.30807  0.46529  0.23897  1.0000
  H   H103      1.0  0.09016  0.46841  0.08794  1.0000
  C   C66       1.0  0.12424  0.48224  0.10083  1.0000
  C   C67       1.0  0.17952  0.36527  0.21617  1.0000
  S   S26       1.0  0.39839  0.61328  0.13005  1.0000
  S   S27       1.0  0.33689  0.52865  0.27656  1.0000
  H   H104      1.0  0.18217  0.40568  0.07637  1.0000
  C   C68       1.0  0.39518  0.65956  0.23425  1.0000
  H   H105      1.0  0.11555  0.51981  0.11349  1.0000
  Fe  Fe14      1.0  0.39218  0.53968  0.18041  1.0000
  C   C69       1.0  0.22412  0.39419  0.20051  1.0000
  H   H106      1.0  0.29855  0.40767  0.13425  1.0000
  S   S28       1.0  0.36259  0.41470  0.27197  1.0000
  S   S29       1.0  0.22677  0.44214  0.24640  1.0000
  N   N7        1.0  0.17208  0.48001  0.04883  1.0000
  H   H107      1.0  0.22113  0.47782  0.11118  1.0000
  C   C70       1.0  0.37189  0.65334  0.18626  1.0000
  H   H108      1.0  0.12761  0.46006  0.14379  1.0000
  H   H109      1.0  0.29001  0.34434  0.06680  1.0000
  C   C71       1.0  0.26431  0.38560  0.14726  1.0000
  S   S30       1.0  0.07606  0.35802  0.12357  1.0000
  H   H110      1.0  0.34227  0.35154  0.19136  1.0000
  H   H111      1.0  0.30974  0.67481  0.14559  1.0000
  C   C72       1.0  0.25961  0.34925  0.10920  1.0000
  H   H112      1.0  0.21948  0.36933  0.34343  1.0000
  H   H113      1.0  0.01228  0.59209  0.51100  1.0000
  C   C73       1.0  0.08024  0.55775  0.52816  1.0000
  C   C74       1.0  0.19475  0.43683  0.42378  1.0000
  H   H114      1.0  0.25914  0.57423  0.40980  1.0000
  H   H115      1.0  0.09410  0.42910  0.41856  1.0000
  H   H116      1.0  0.31009  0.46978  0.46609  1.0000
  C   C75       1.0  0.29672  0.48804  0.50860  1.0000
  H   H117      1.0  0.21098  0.45335  0.37512  1.0000
  H   H118      1.0  0.13909  0.42082  0.34479  1.0000
  Fe  Fe15      1.0  0.39827  0.47923  0.29786  1.0000
  S   S31       1.0  0.07658  0.50958  0.48435  1.0000
  H   H119      1.0  0.11512  0.40235  0.51722  1.0000
  H   H120      1.0  0.33865  0.55367  0.46829  1.0000
  C   C76       1.0  0.17378  0.66409  0.45753  1.0000
  H   H121      1.0  0.39562  0.40692  0.50982  1.0000
  C   C77       1.0  0.12301  0.40380  0.39313  1.0000
  H   H122      1.0  0.22783  0.42878  0.44414  1.0000
  C   C78       1.0  0.22316  0.59096  0.43760  1.0000
  H   H123      1.0  0.10161  0.37066  0.38974  1.0000
  N   N8        1.0  0.16418  0.39285  0.42498  1.0000
  C   C79       1.0  0.19904  0.35597  0.39242  1.0000
  H   H124      1.0  0.18943  0.57215  0.42960  1.0000
  H   H125      1.0  0.17084  0.46447  0.45125  1.0000
  N   N9        1.0  0.22229  0.64333  0.42016  1.0000
  H   H126      1.0  0.13890  0.64601  0.45150  1.0000
  S   S32       1.0  0.93532  0.46595  0.47656  1.0000
  H   H127      1.0  0.22913  0.34523  0.41690  1.0000
  H   H128      1.0  0.22174  0.58350  0.48806  1.0000
  H   H129      1.0  0.26136  0.63659  0.32302  1.0000
  C   C80       1.0  0.31327  0.53532  0.51005  1.0000
  H   H130      1.0  0.19176  0.63476  0.34170  1.0000
  C   C81       1.0  0.14002  0.37450  0.49079  1.0000
  Fe  Fe16      1.0  0.99576  0.48117  0.52564  1.0000
  H   H131      1.0  0.16980  0.36388  0.51571  1.0000
  H   H132      1.0  0.17149  0.66041  0.50841  1.0000
  C   C82       1.0  0.26708  0.66669  0.43282  1.0000
  C   C83       1.0  0.22517  0.65175  0.35273  1.0000
  H   H133      1.0  0.26723  0.65927  0.48272  1.0000
  H   H134      1.0  0.30453  0.65393  0.40316  1.0000
  C   C84       1.0  0.04156  0.59270  0.53623  1.0000
  H   H135      1.0  0.22316  0.46874  0.65962  1.0000
  H   H136      1.0  0.32024  0.58870  0.78041  1.0000
  H   H137      1.0  0.11095  0.54833  0.72022  1.0000
  H   H138      1.0  0.09873  0.48483  0.72467  1.0000
  C   C85       1.0  0.34494  0.58582  0.73170  1.0000
  Fe  Fe17      1.0  0.26200  0.65767  0.63904  1.0000
  H   H139      1.0  0.14828  0.53169  0.55409  1.0000
  H   H140      1.0  0.02025  0.41581  0.68916  1.0000
  C   C86       1.0  0.11870  0.55915  0.55965  1.0000
  H   H141      1.0  0.37335  0.40778  0.59338  1.0000
  H   H142      1.0  0.01128  0.49893  0.71497  1.0000
  S   S33       1.0  0.28367  0.37172  0.71726  1.0000
  C   C87       1.0  0.04208  0.35091  0.73459  1.0000
  H   H143      1.0  0.35029  0.46357  0.74454  1.0000
  C   C88       1.0  0.11767  0.59506  0.60038  1.0000
  H   H144      1.0  0.14747  0.59625  0.62443  1.0000
  H   H145      1.0  0.25165  0.55208  0.66164  1.0000
  C   C89       1.0  0.24789  0.48732  0.61767  1.0000
  S   S34       1.0  0.31968  0.61665  0.56881  1.0000
  C   C90       1.0  0.29679  0.55868  0.56531  1.0000
  C   C91       1.0  0.00832  0.53039  0.74322  1.0000
  S   S35       1.0  0.15966  0.39187  0.74271  1.0000
  H   H146      1.0  0.31941  0.59117  0.69981  1.0000
  H   H147      1.0  0.37920  0.54153  0.62648  1.0000
  S   S36       1.0  0.94317  0.52250  0.59988  1.0000
  C   C92       1.0  0.07702  0.62822  0.61142  1.0000
  C   C93       1.0  0.40314  0.53623  0.66028  1.0000
  C   C94       1.0  0.26352  0.53481  0.61867  1.0000
  Fe  Fe18      1.0  0.22523  0.37111  0.66254  1.0000
  C   C95       1.0  0.95862  0.38919  0.76887  1.0000
  Fe  Fe19      1.0  0.92642  0.45125  0.65530  1.0000
  H   H148      1.0  0.30908  0.49954  0.70775  1.0000
  S   S37       1.0  0.91689  0.43606  0.75833  1.0000
  S   S38       1.0  0.07099  0.66940  0.66789  1.0000
  C   C96       1.0  0.09505  0.51642  0.75299  1.0000
  H   H149      1.0  0.96658  0.53440  0.76813  1.0000
  C   C97       1.0  0.26458  0.46387  0.56275  1.0000
  S   S39       1.0  0.24702  0.40373  0.56329  1.0000
  S   S40       1.0  0.98309  0.41078  0.58476  1.0000
  C   C98       1.0  0.03932  0.62733  0.57882  1.0000
  C   C99       1.0  0.00783  0.38766  0.72668  1.0000
  H   H150      1.0  0.07990  0.34967  0.70141  1.0000
  C   C100      1.0  0.33214  0.49967  0.74220  1.0000
  S   S41       1.0  0.19453  0.62615  0.71544  1.0000
  H   H151      1.0  0.02030  0.56293  0.70976  1.0000
  H   H152      1.0  0.37330  0.61624  0.72007  1.0000
  H   H153      1.0  0.00809  0.65318  0.58686  1.0000
  N   N10       1.0  0.37131  0.53877  0.72561  1.0000
  N   N11       1.0  0.04051  0.52409  0.78780  1.0000
  H   H154      1.0  0.30433  0.50382  0.78869  1.0000
  Fe  Fe20      1.0  0.91747  0.39938  0.54360  1.0000
  C   C101      1.0  0.40474  0.53331  0.76875  1.0000
  C   C102      1.0  0.40370  0.39294  0.55482  1.0000
  H   H155      1.0  0.05037  0.60049  0.78892  1.0000
  H   H156      1.0  0.12010  0.50985  0.78545  1.0000
  Fe  Fe21      1.0  0.22530  0.98051  0.86742  1.0000
  H   H157      1.0  0.15737  0.85970  0.96490  1.0000
  C   C103      1.0  0.14745  0.78880  0.89494  1.0000
  H   H158      1.0  0.37078  0.76666  0.01651  1.0000
  H   H159      1.0  0.15020  0.75051  0.88377  1.0000
  S   S42       1.0  0.23160  0.96970  0.96605  1.0000
  H   H160      1.0  0.24434  0.78640  0.96717  1.0000
  H   H161      1.0  0.27663  0.81410  0.85523  1.0000
  S   S43       1.0  0.29484  0.93619  0.82711  1.0000
  Fe  Fe22      1.0  0.34131  0.00410  0.81218  1.0000
  H   H162      1.0  0.17621  0.77603  0.00216  1.0000
  H   H163      1.0  0.36394  0.76165  0.91111  1.0000
  N   N12       1.0  0.19609  0.80551  0.90579  1.0000
  H   H164      1.0  0.11027  0.89064  0.80036  1.0000
  C   C104      1.0  0.20778  0.77479  0.95789  1.0000
  H   H165      1.0  0.11400  0.79133  0.93707  1.0000
  C   C105      1.0  0.38986  0.78944  0.88288  1.0000
  S   S44       1.0  0.35588  0.99525  0.90737  1.0000
  H   H166      1.0  0.22569  0.86919  0.93191  1.0000
  S   S45       1.0  0.15189  0.97388  0.83976  1.0000
  H   H167      1.0  0.18227  0.88022  0.88352  1.0000
  S   S46       1.0  0.32629  0.85461  0.95283  1.0000
  H   H168      1.0  0.21285  0.73652  0.94703  1.0000
  H   H169      1.0  0.13821  0.81061  0.85498  1.0000
  C   C106      1.0  0.19003  0.85588  0.92229  1.0000
  H   H170      1.0  0.30383  0.70011  0.81867  1.0000
  H   H171      1.0  0.23220  0.82646  0.80816  1.0000
  H   H172      1.0  0.24373  0.76539  0.83355  1.0000
  Fe  Fe23      1.0  0.30488  0.92970  0.92414  1.0000
  C   C107      1.0  0.37969  0.83799  0.89283  1.0000
  C   C108      1.0  0.23910  0.80276  0.84811  1.0000
  C   C109      1.0  0.40455  0.74922  0.02926  1.0000
  C   C110      1.0  0.30836  0.71413  0.22548  1.0000
  C   C111      1.0  0.32806  0.68007  0.18237  1.0000
  H   H173      1.0  0.38065  0.77772  0.14708  1.0000
  H   H174      1.0  0.27533  0.73575  0.22144  1.0000
  H   H175      1.0  0.36457  0.82383  0.09376  1.0000
  C   C112      1.0  0.33314  0.72193  0.27165  1.0000
  H   H176      1.0  0.38954  0.71810  0.06415  1.0000
  C   C113      1.0  0.39733  0.80541  0.10791  1.0000
  C   C114      1.0  0.37604  0.69420  0.27666  1.0000
  H   H177      1.0  0.37691  0.99260  0.31238  1.0000
  C   C115      1.0  0.29856  0.96022  0.45634  1.0000
  H   H178      1.0  0.17117  0.70329  0.44389  1.0000
  H   H179      1.0  0.35029  0.89989  0.43853  1.0000
  C   C116      1.0  0.39129  0.96489  0.44287  1.0000
  H   H180      1.0  0.26435  0.93927  0.45835  1.0000
  H   H181      1.0  0.26609  0.70654  0.42357  1.0000
  C   C117      1.0  0.34711  0.93795  0.44523  1.0000
  H   H182      1.0  0.22496  0.69103  0.33808  1.0000
  Fe  Fe24      1.0  0.38702  0.80733  0.31597  1.0000
  S   S47       1.0  0.31351  0.76901  0.31963  1.0000
  H   H183      1.0  0.39522  0.70031  0.31235  1.0000
  S   S48       1.0  0.39766  0.88718  0.29429  1.0000
  S   S49       1.0  0.16080  0.73686  0.74618  1.0000
  S   S50       1.0  0.21419  0.71243  0.60073  1.0000
  C   C118      1.0  0.14740  0.90028  0.76769  1.0000
  C   C119      1.0  0.22030  0.95543  0.72988  1.0000
  H   H184      1.0  0.35636  0.87793  0.58214  1.0000
  Fe  Fe25      1.0  0.14841  0.68432  0.68110  1.0000
  S   S51       1.0  0.28411  0.70792  0.70107  1.0000
  C   C120      1.0  0.22166  0.87956  0.68389  1.0000
  C   C121      1.0  0.39602  0.89080  0.57940  1.0000
  C   C122      1.0  0.37490  0.89060  0.69216  1.0000
  C   C123      1.0  0.24446  0.92421  0.68484  1.0000
  H   H185      1.0  0.28200  0.93357  0.65299  1.0000
  Fe  Fe26      1.0  0.23090  0.76060  0.66837  1.0000
  H   H186      1.0  0.15326  0.83533  0.72043  1.0000
  H   H187      1.0  0.23966  0.98837  0.73346  1.0000
  S   S52       1.0  0.25908  0.83654  0.63878  1.0000
  H   H188      1.0  0.33559  0.87513  0.69867  1.0000
  Fe  Fe27      1.0  0.21239  0.68082  0.77459  1.0000
  H   H189      1.0  0.37507  0.80484  0.64480  1.0000
  H   H190      1.0  0.39581  0.93086  0.57249  1.0000
  C   C124      1.0  0.17211  0.86856  0.72335  1.0000
  H   H191      1.0  0.37163  0.93059  0.68870  1.0000
  H   H192      1.0  0.38682  0.87963  0.73546  1.0000
  C   C125      1.0  0.17266  0.94265  0.77263  1.0000
  C   C126      1.0  0.43891  0.21497  0.98225  1.0000
  H   H193      1.0  0.42607  0.17759  0.97944  1.0000
  C   C127      1.0  0.57228  0.33045  0.98599  1.0000
  H   H194      1.0  0.59524  0.13375  0.89711  1.0000
  C   C128      1.0  0.60796  0.16424  0.91882  1.0000
  H   H195      1.0  0.52300  0.26917  0.99340  1.0000
  H   H196      1.0  0.48988  0.08293  0.86651  1.0000
  S   S53       1.0  0.51802  0.17954  0.82636  1.0000
  C   C129      1.0  0.89897  0.25534  0.03276  1.0000
  C   C130      1.0  0.45696  0.05620  0.79769  1.0000
  H   H197      1.0  0.60643  0.15149  0.96811  1.0000
  C   C131      1.0  0.48126  0.09098  0.82187  1.0000
  H   H198      1.0  0.65270  0.16112  0.79525  1.0000
  H   H199      1.0  0.63310  0.22120  0.81174  1.0000
  H   H200      1.0  0.57860  0.19319  0.92045  1.0000
  C   C132      1.0  0.66201  0.19326  0.81679  1.0000
  H   H201      1.0  0.73869  0.15575  0.86200  1.0000
  H   H202      1.0  0.44841  0.02107  0.82268  1.0000
  H   H203      1.0  0.68990  0.11013  0.86985  1.0000
  N   N13       1.0  0.66044  0.18172  0.88349  1.0000
  H   H204      1.0  0.43687  0.25760  0.86930  1.0000
  C   C133      1.0  0.69871  0.14386  0.88854  1.0000
  S   S54       1.0  0.55904  0.29790  0.84394  1.0000
  H   H205      1.0  0.71233  0.23981  0.88425  1.0000
  H   H206      1.0  0.64515  0.25500  0.90650  1.0000
  H   H207      1.0  0.69879  0.13469  0.93837  1.0000
  C   C134      1.0  0.67305  0.22547  0.90985  1.0000
  C   C135      1.0  0.55506  0.28327  0.00687  1.0000
  H   H208      1.0  0.45678  0.30961  0.94215  1.0000
  H   H209      1.0  0.47761  0.22014  0.94778  1.0000
  H   H210      1.0  0.42216  0.30358  0.02336  1.0000
  H   H211      1.0  0.67188  0.21814  0.96027  1.0000
  C   C136      1.0  0.41843  0.30001  0.97545  1.0000
  H   H212      1.0  0.44417  0.21715  0.02975  1.0000
  H   H213      1.0  0.80912  0.15246  0.13118  1.0000
  C   C137      1.0  0.42290  0.09482  0.21956  1.0000
  C   C138      1.0  0.57847  0.25492  0.04628  1.0000
  H   H214      1.0  0.81558  0.26647  0.24702  1.0000
  C   C139      1.0  0.88537  0.17115  0.07092  1.0000
  Fe  Fe28      1.0  0.70007  0.18186  0.16976  1.0000
  H   H215      1.0  0.47618  0.26902  0.11229  1.0000
  H   H216      1.0  0.66894  0.33590  0.05755  1.0000
  H   H217      1.0  0.87962  0.28588  0.24555  1.0000
  C   C140      1.0  0.84637  0.29402  0.22547  1.0000
  N   N14       1.0  0.42727  0.04812  0.25484  1.0000
  H   H218      1.0  0.61751  0.03986  0.07029  1.0000
  H   H219      1.0  0.44539  0.33854  0.25025  1.0000
  C   C141      1.0  0.45847  0.01466  0.21159  1.0000
  C   C142      1.0  0.41282  0.31551  0.14933  1.0000
  Fe  Fe29      1.0  0.60305  0.16320  0.13241  1.0000
  Fe  Fe30      1.0  0.67362  0.07986  0.14972  1.0000
  H   H220      1.0  0.63978  0.25154  0.09226  1.0000
  C   C143      1.0  0.83386  0.18102  0.10289  1.0000
  S   S55       1.0  0.68639  0.14863  0.08734  1.0000
  Fe  Fe31      1.0  0.60988  0.12681  0.26319  1.0000
  C   C144      1.0  0.81583  0.22843  0.10186  1.0000
  C   C145      1.0  0.62032  0.27363  0.06351  1.0000
  S   S56       1.0  0.55403  0.19672  0.07417  1.0000
  C   C146      1.0  0.84775  0.26525  0.06491  1.0000
  H   H221      1.0  0.49167  0.07271  0.28478  1.0000
  N   N15       1.0  0.52277  0.32878  0.25870  1.0000
  S   S57       1.0  0.69481  0.11158  0.22892  1.0000
  S   S58       1.0  0.61698  0.19984  0.21195  1.0000
  S   S59       1.0  0.75587  0.24353  0.15132  1.0000
  H   H222      1.0  0.42481  0.19382  0.14530  1.0000
  C   C147      1.0  0.40654  0.22821  0.15536  1.0000
  C   C148      1.0  0.43578  0.27078  0.13676  1.0000
  H   H223      1.0  0.46172  0.11109  0.19570  1.0000
  S   S60       1.0  0.58829  0.09151  0.18735  1.0000
  H   H224      1.0  0.83351  0.30175  0.06293  1.0000
  C   C149      1.0  0.53834  0.29770  0.20630  1.0000
  H   H225      1.0  0.52364  0.26015  0.22064  1.0000
  H   H226      1.0  0.58123  0.29692  0.18761  1.0000
  H   H227      1.0  0.52332  0.31133  0.16621  1.0000
  H   H228      1.0  0.59556  0.02066  0.28454  1.0000
  C   C150      1.0  0.46594  0.32640  0.28583  1.0000
  C   C151      1.0  0.63694  0.32133  0.04370  1.0000
  H   H229      1.0  0.74872  0.32546  0.23784  1.0000
  H   H230      1.0  0.49804  0.02929  0.18848  1.0000
  H   H231      1.0  0.86005  0.28874  0.17472  1.0000
  H   H232      1.0  0.90036  0.13508  0.07498  1.0000
  H   H233      1.0  0.59149  0.31515  0.28956  1.0000
  H   H234      1.0  0.53649  0.33406  0.34870  1.0000
  H   H235      1.0  0.45246  0.28911  0.30400  1.0000
  H   H236      1.0  0.43490  0.18733  0.52189  1.0000
  S   S61       1.0  0.56617  0.10974  0.36377  1.0000
  H   H237      1.0  0.43695  0.33349  0.46324  1.0000
  H   H238      1.0  0.63458  0.02938  0.37105  1.0000
  H   H239      1.0  0.42012  0.20874  0.33359  1.0000
  H   H240      1.0  0.51224  0.13669  0.48493  1.0000
  H   H241      1.0  0.48328  0.33471  0.50869  1.0000
  C   C152      1.0  0.44079  0.19382  0.36642  1.0000
  C   C153      1.0  0.49259  0.15293  0.45170  1.0000
  H   H242      1.0  0.42944  0.07958  0.33911  1.0000
  C   C154      1.0  0.48609  0.16713  0.34499  1.0000
  H   H243      1.0  0.53865  0.27380  0.32498  1.0000
  C   C155      1.0  0.42264  0.20160  0.43013  1.0000
  H   H244      1.0  0.45832  0.02109  0.33058  1.0000
  C   C156      1.0  0.51151  0.14599  0.38787  1.0000
  C   C157      1.0  0.44889  0.18156  0.47260  1.0000
  H   H245      1.0  0.50064  0.16195  0.29560  1.0000
  C   C158      1.0  0.54848  0.31219  0.30771  1.0000
  H   H246      1.0  0.42103  0.03474  0.45096  1.0000
  H   H247      1.0  0.44498  0.28155  0.51317  1.0000
  C   C159      1.0  0.44406  0.32162  0.50933  1.0000
  S   S62       1.0  0.88863  0.32648  0.53286  1.0000
  C   C160      1.0  0.45279  0.05573  0.30444  1.0000
  H   H248      1.0  0.78372  0.32333  0.33091  1.0000
  Fe  Fe32      1.0  0.55667  0.33653  0.67564  1.0000
  S   S63       1.0  0.48460  0.31262  0.75012  1.0000
  H   H249      1.0  0.44946  0.11936  0.66272  1.0000
  H   H250      1.0  0.81403  0.33109  0.75801  1.0000
  C   C161      1.0  0.45881  0.11113  0.70664  1.0000
  H   H251      1.0  0.49272  0.18126  0.70550  1.0000
  Fe  Fe33      1.0  0.62655  0.31929  0.76252  1.0000
  H   H252      1.0  0.78416  0.29021  0.55757  1.0000
  C   C162      1.0  0.80746  0.32160  0.71454  1.0000
  C   C163      1.0  0.74929  0.29775  0.65601  1.0000
  H   H253      1.0  0.71093  0.28845  0.65416  1.0000
  C   C164      1.0  0.79085  0.29837  0.60150  1.0000
  C   C165      1.0  0.75732  0.31076  0.71208  1.0000
  H   H254      1.0  0.88673  0.33479  0.66124  1.0000
  S   S64       1.0  0.60345  0.27281  0.69730  1.0000
  C   C166      1.0  0.84016  0.31291  0.60296  1.0000
  C   C167      1.0  0.41409  0.32235  0.62193  1.0000
  C   C168      1.0  0.48316  0.14624  0.73095  1.0000
  C   C169      1.0  0.84872  0.32323  0.65989  1.0000
  C   C170      1.0  0.44347  0.06687  0.74164  1.0000
  Fe  Fe34      1.0  0.53415  0.25360  0.77803  1.0000
  S   S65       1.0  0.70567  0.31771  0.77874  1.0000
  H   H255      1.0  0.41494  0.28226  0.62814  1.0000
  H   H256      1.0  0.70072  0.20747  0.78874  1.0000
  H   H257      1.0  0.45198  0.33588  0.62482  1.0000
  C   C171      1.0  0.49292  0.13648  0.78951  1.0000
  C   C172      1.0  0.67818  0.66636  0.93686  1.0000
  Fe  Fe35      1.0  0.48539  0.62531  0.81566  1.0000
  H   H258      1.0  0.80561  0.63575  0.90005  1.0000
  H   H259      1.0  0.67648  0.44797  0.83256  1.0000
  C   C173      1.0  0.61279  0.34963  0.00490  1.0000
  C   C174      1.0  0.55754  0.52732  0.99798  1.0000
  H   H260      1.0  0.70632  0.50673  0.81001  1.0000
  H   H261      1.0  0.79039  0.38690  0.86555  1.0000
  S   S66       1.0  0.42201  0.59285  0.89593  1.0000
  H   H262      1.0  0.55335  0.35246  0.95627  1.0000
  C   C175      1.0  0.75269  0.40615  0.87451  1.0000
  H   H263      1.0  0.72318  0.38096  0.86777  1.0000
  H   H264      1.0  0.68876  0.48306  0.89046  1.0000
  H   H265      1.0  0.76430  0.64597  0.84813  1.0000
  C   C176      1.0  0.79241  0.48494  0.84816  1.0000
  H   H266      1.0  0.77754  0.49567  0.89683  1.0000
  H   H267      1.0  0.52874  0.43603  0.98483  1.0000
  Fe  Fe36      1.0  0.51511  0.35831  0.81045  1.0000
  H   H268      1.0  0.74123  0.41350  0.92482  1.0000
  S   S67       1.0  0.46594  0.40920  0.87510  1.0000
  S   S68       1.0  0.82827  0.54380  0.99298  1.0000
  H   H269      1.0  0.48042  0.50512  0.90530  1.0000
  C   C177      1.0  0.46612  0.54160  0.01617  1.0000
  H   H270      1.0  0.75024  0.59790  0.90938  1.0000
  S   S69       1.0  0.67660  0.61397  0.79532  1.0000
  H   H271      1.0  0.56743  0.56534  0.97903  1.0000
  S   S70       1.0  0.69181  0.52134  0.00371  1.0000
  H   H272      1.0  0.52551  0.55368  0.89684  1.0000
  H   H273      1.0  0.59083  0.50445  0.97653  1.0000
  C   C178      1.0  0.76465  0.63571  0.89763  1.0000
  N   N16       1.0  0.50956  0.51128  0.98509  1.0000
  H   H274      1.0  0.54807  0.49242  0.89210  1.0000
  C   C179      1.0  0.70483  0.47328  0.84174  1.0000
  C   C180      1.0  0.51634  0.51585  0.91670  1.0000
  H   H275      1.0  0.66270  0.62878  0.94660  1.0000
  H   H276      1.0  0.77418  0.65406  0.01063  1.0000
  S   S71       1.0  0.63254  0.40875  0.97751  1.0000
  N   N17       1.0  0.75653  0.45115  0.83292  1.0000
  H   H277      1.0  0.71846  0.61665  0.02116  1.0000
  C   C181      1.0  0.88474  0.51352  0.99885  1.0000
  C   C182      1.0  0.49840  0.46048  0.00969  1.0000
  H   H278      1.0  0.46091  0.44794  0.00375  1.0000
  H   H279      1.0  0.47305  0.58034  0.99910  1.0000
  C   C183      1.0  0.73386  0.65376  0.00595  1.0000
  C   C184      1.0  0.88476  0.46465  0.01993  1.0000
  H   H280      1.0  0.42904  0.53086  0.00748  1.0000
  N   N18       1.0  0.73224  0.66851  0.94093  1.0000
  H   H281      1.0  0.84891  0.44419  0.03367  1.0000
  H   H282      1.0  0.79887  0.51818  0.81562  1.0000
  H   H283      1.0  0.83088  0.46830  0.84516  1.0000
  Fe  Fe37      1.0  0.41472  0.43139  0.17549  1.0000
  H   H284      1.0  0.49655  0.45523  0.06038  1.0000
  C   C185      1.0  0.57714  0.49073  0.28606  1.0000
  C   C186      1.0  0.53858  0.37893  0.23470  1.0000
  C   C187      1.0  0.78049  0.35115  0.21269  1.0000
  S   S72       1.0  0.45486  0.49281  0.20270  1.0000
  H   H285      1.0  0.87745  0.37585  0.14991  1.0000
  S   S73       1.0  0.60153  0.61561  0.07854  1.0000
  H   H286      1.0  0.90409  0.37288  0.21618  1.0000
  Fe  Fe38      1.0  0.67781  0.46517  0.17023  1.0000
  H   H287      1.0  0.59919  0.51294  0.24568  1.0000
  H   H288      1.0  0.58155  0.38288  0.21826  1.0000
  C   C188      1.0  0.59355  0.64988  0.14269  1.0000
  C   C189      1.0  0.86771  0.37874  0.20145  1.0000
  S   S74       1.0  0.60988  0.47478  0.12923  1.0000
  Fe  Fe39      1.0  0.75427  0.50911  0.05159  1.0000
  S   S75       1.0  0.72946  0.43248  0.08580  1.0000
  C   C190      1.0  0.59762  0.65801  0.24892  1.0000
  H   H289      1.0  0.52385  0.40414  0.27122  1.0000
  S   S76       1.0  0.45078  0.36821  0.12416  1.0000
  S   S77       1.0  0.70832  0.54050  0.13894  1.0000
  Fe  Fe40      1.0  0.64400  0.54770  0.09248  1.0000
  Fe  Fe41      1.0  0.66320  0.44776  0.04349  1.0000
  C   C191      1.0  0.60502  0.63049  0.19744  1.0000
  H   H290      1.0  0.85502  0.41640  0.20973  1.0000
  H   H291      1.0  0.61887  0.59407  0.20050  1.0000
  H   H292      1.0  0.55324  0.52569  0.04931  1.0000
  H   H293      1.0  0.76513  0.38828  0.21896  1.0000
  H   H294      1.0  0.46046  0.53889  0.06775  1.0000
  H   H295      1.0  0.52290  0.39126  0.19447  1.0000
  S   S78       1.0  0.66298  0.43380  0.27052  1.0000
  N   N19       1.0  0.82704  0.34347  0.23580  1.0000
  H   H296      1.0  0.78907  0.34551  0.16187  1.0000
  H   H297      1.0  0.42916  0.63891  0.23713  1.0000
  H   H298      1.0  0.50563  0.52783  0.28881  1.0000
  H   H299      1.0  0.57844  0.53349  0.48551  1.0000
  N   N20       1.0  0.48078  0.62081  0.43544  1.0000
  C   C192      1.0  0.60098  0.45224  0.31176  1.0000
  H   H300      1.0  0.42159  0.66572  0.48799  1.0000
  C   C193      1.0  0.46461  0.66284  0.47227  1.0000
  H   H301      1.0  0.49777  0.41244  0.43245  1.0000
  H   H302      1.0  0.58105  0.44493  0.48305  1.0000
  C   C194      1.0  0.51988  0.43454  0.39189  1.0000
  C   C195      1.0  0.77137  0.42259  0.50944  1.0000
  H   H303      1.0  0.41886  0.62912  0.39101  1.0000
  H   H304      1.0  0.79067  0.39024  0.52574  1.0000
  H   H305      1.0  0.84842  0.34501  0.32206  1.0000
  C   C196      1.0  0.49498  0.47001  0.36218  1.0000
  C   C197      1.0  0.56519  0.46053  0.52701  1.0000
  C   C198      1.0  0.45892  0.57630  0.47409  1.0000
  H   H306      1.0  0.55179  0.58755  0.38721  1.0000
  H   H307      1.0  0.76719  0.41704  0.46209  1.0000
  C   C199      1.0  0.52416  0.49933  0.31078  1.0000
  H   H308      1.0  0.47271  0.59470  0.35031  1.0000
  H   H309      1.0  0.47180  0.57164  0.51767  1.0000
  H   H310      1.0  0.72379  0.50666  0.52252  1.0000
  C   C200      1.0  0.46184  0.62617  0.37864  1.0000
  H   H311      1.0  0.79839  0.45367  0.50394  1.0000
  C   C201      1.0  0.57286  0.42538  0.36633  1.0000
  H   H312      1.0  0.41593  0.57695  0.48839  1.0000
  H   H313      1.0  0.67632  0.38517  0.51455  1.0000
  H   H314      1.0  0.45302  0.34989  0.32518  1.0000
  H   H315      1.0  0.55573  0.65174  0.39025  1.0000
  C   C202      1.0  0.56407  0.51072  0.52858  1.0000
  S   S79       1.0  0.42703  0.47401  0.38477  1.0000
  H   H316      1.0  0.68813  0.47039  0.48577  1.0000
  H   H317      1.0  0.79818  0.38666  0.31326  1.0000
  H   H318      1.0  0.47861  0.65896  0.34776  1.0000
  H   H319      1.0  0.59132  0.39604  0.38708  1.0000
  C   C203      1.0  0.53794  0.61792  0.41682  1.0000
  S   S80       1.0  0.81689  0.54905  0.53919  1.0000
  H   H320      1.0  0.47115  0.54381  0.44817  1.0000
  H   H321      1.0  0.55354  0.61301  0.45833  1.0000
  C   C204      1.0  0.69713  0.47509  0.53096  1.0000
  C   C205      1.0  0.81369  0.34997  0.30362  1.0000
  H   H322      1.0  0.47909  0.66017  0.51495  1.0000
  H   H323      1.0  0.60690  0.64289  0.29089  1.0000
  S   S81       1.0  0.86016  0.43655  0.61709  1.0000
  H   H324      1.0  0.43459  0.56232  0.75834  1.0000
  C   C206      1.0  0.80040  0.57031  0.66188  1.0000
  C   C207      1.0  0.71663  0.59481  0.72537  1.0000
  C   C208      1.0  0.54755  0.43064  0.58241  1.0000
  C   C209      1.0  0.72729  0.57755  0.61756  1.0000
  S   S82       1.0  0.55339  0.36791  0.58028  1.0000
  H   H325      1.0  0.69038  0.44489  0.65107  1.0000
  C   C210      1.0  0.52827  0.50137  0.64126  1.0000
  H   H326      1.0  0.81447  0.42200  0.75858  1.0000
  C   C211      1.0  0.77629  0.44008  0.76689  1.0000
  H   H327      1.0  0.71102  0.57574  0.57830  1.0000
  H   H328      1.0  0.75376  0.46926  0.61396  1.0000
  H   H329      1.0  0.78123  0.47335  0.73420  1.0000
  H   H330      1.0  0.51364  0.51689  0.68543  1.0000
  H   H331      1.0  0.74945  0.41537  0.75394  1.0000
  H   H332      1.0  0.74546  0.40553  0.63511  1.0000
  H   H333      1.0  0.78571  0.58947  0.75715  1.0000
  S   S83       1.0  0.54414  0.59437  0.58577  1.0000
  H   H334      1.0  0.84092  0.56281  0.65677  1.0000
  H   H335      1.0  0.65500  0.59571  0.68038  1.0000
  H   H336      1.0  0.44193  0.40791  0.55510  1.0000
  Fe  Fe42      1.0  0.54243  0.62484  0.67674  1.0000
  C   C212      1.0  0.76909  0.58491  0.71885  1.0000
  Fe  Fe43      1.0  0.88231  0.50362  0.55409  1.0000
  C   C213      1.0  0.69566  0.58983  0.67513  1.0000
  H   H337      1.0  0.42230  0.50064  0.65370  1.0000
  H   H338      1.0  0.51189  0.42838  0.68198  1.0000
  H   H339      1.0  0.43388  0.56467  0.64692  1.0000
  S   S84       1.0  0.58573  0.38463  0.73500  1.0000
  C   C214      1.0  0.52781  0.45117  0.63934  1.0000
  C   C215      1.0  0.72789  0.43797  0.61636  1.0000
  S   S85       1.0  0.47427  0.66599  0.72868  1.0000
  H   H340      1.0  0.42519  0.49811  0.76601  1.0000
  C   C216      1.0  0.54617  0.53130  0.58584  1.0000
  Fe  Fe44      1.0  0.60260  0.63701  0.77242  1.0000
  C   C217      1.0  0.77962  0.56752  0.61086  1.0000
  S   S86       1.0  0.54877  0.57951  0.76242  1.0000
  H   H341      1.0  0.70346  0.35551  0.57327  1.0000
  H   H342      1.0  0.64868  0.39401  0.59574  1.0000
  N   N21       1.0  0.72062  0.43133  0.55399  1.0000
  C   C218      1.0  0.68586  0.38962  0.55949  1.0000
  H   H343      1.0  0.66036  0.48453  0.56535  1.0000
  C   C219      1.0  0.45613  0.86093  0.80782  1.0000
  H   H344      1.0  0.72844  0.74400  0.95476  1.0000
  C   C220      1.0  0.45622  0.82236  0.00507  1.0000
  C   C221      1.0  0.41290  0.87363  0.85512  1.0000
  H   H345      1.0  0.40580  0.91106  0.86292  1.0000
  C   C222      1.0  0.46618  0.81249  0.79764  1.0000
  S   S87       1.0  0.53965  0.67909  0.83319  1.0000
  H   H346      1.0  0.47974  0.84804  0.02207  1.0000
  H   H347      1.0  0.44136  0.73931  0.82836  1.0000
  H   H348      1.0  0.75175  0.73056  0.87423  1.0000
  H   H349      1.0  0.42563  0.84388  0.99024  1.0000
  H   H350      1.0  0.65189  0.68847  0.97141  1.0000
  H   H351      1.0  0.42969  0.73419  0.98659  1.0000
  H   H352      1.0  0.79299  0.72128  0.92586  1.0000
  C   C223      1.0  0.75228  0.71834  0.92316  1.0000
  C   C224      1.0  0.43335  0.77674  0.83566  1.0000
  H   H353      1.0  0.48174  0.80749  0.96254  1.0000
  H   H354      1.0  0.50218  0.74077  0.03673  1.0000
  H   H355      1.0  0.67513  0.67951  0.88923  1.0000
  H   H356      1.0  0.49782  0.78323  0.09456  1.0000
  H   H357      1.0  0.68257  0.94545  0.24769  1.0000
  H   H358      1.0  0.58119  0.86912  0.15308  1.0000
  S   S88       1.0  0.45480  0.79017  0.23693  1.0000
  H   H359      1.0  0.59073  0.96272  0.25680  1.0000
  S   S89       1.0  0.48959  0.90962  0.12536  1.0000
  C   C225      1.0  0.57622  0.69731  0.13863  1.0000
  C   C226      1.0  0.55204  0.93318  0.11309  1.0000
  N   N22       1.0  0.43328  0.78376  0.05449  1.0000
  C   C227      1.0  0.58914  0.90632  0.13484  1.0000
  H   H360      1.0  0.55604  0.76164  0.18665  1.0000
  H   H361      1.0  0.53472  0.00134  0.06986  1.0000
  C   C228      1.0  0.64572  0.97641  0.11278  1.0000
  H   H362      1.0  0.56896  0.71282  0.09558  1.0000
  C   C229      1.0  0.63627  0.92780  0.13409  1.0000
  H   H363      1.0  0.41733  0.83285  0.12672  1.0000
  C   C230      1.0  0.57756  0.70460  0.24621  1.0000
  H   H364      1.0  0.66434  0.90734  0.15246  1.0000
  H   H365      1.0  0.46300  0.97915  0.23660  1.0000
  C   C231      1.0  0.56838  0.72473  0.19033  1.0000
  S   S90       1.0  0.52045  0.86938  0.28444  1.0000
  H   H366      1.0  0.68929  0.00452  0.27001  1.0000
  Fe  Fe45      1.0  0.46895  0.86936  0.22049  1.0000
  C   C232      1.0  0.56313  0.98071  0.08742  1.0000
  H   H367      1.0  0.45892  0.72911  0.11379  1.0000
  C   C233      1.0  0.60974  0.00254  0.08803  1.0000
  C   C234      1.0  0.47494  0.75815  0.07582  1.0000
  S   S91       1.0  0.69920  0.00577  0.12430  1.0000
  H   H368      1.0  0.44026  0.00762  0.17368  1.0000
  H   H369      1.0  0.70973  0.67764  0.04003  1.0000
  C   C235      1.0  0.67920  0.96654  0.28898  1.0000
  C   C236      1.0  0.62385  0.99091  0.38666  1.0000
  Fe  Fe46      1.0  0.50103  0.79111  0.30671  1.0000
  S   S92       1.0  0.45257  0.93851  0.42260  1.0000
  H   H370      1.0  0.57409  0.90714  0.38653  1.0000
  H   H371      1.0  0.64137  0.89628  0.38176  1.0000
  H   H372      1.0  0.48024  0.69707  0.44404  1.0000
  S   S93       1.0  0.56127  0.73614  0.31377  1.0000
  N   N23       1.0  0.62649  0.96263  0.33257  1.0000
  Fe  Fe47      1.0  0.44827  0.88088  0.36007  1.0000
  H   H373      1.0  0.65068  0.97671  0.41421  1.0000
  C   C237      1.0  0.61431  0.91152  0.35508  1.0000
  C   C238      1.0  0.58849  0.98172  0.29951  1.0000
  H   H374      1.0  0.70912  0.95312  0.31238  1.0000
  H   H375      1.0  0.61749  0.88898  0.31521  1.0000
  S   S94       1.0  0.43206  0.80208  0.38796  1.0000
  H   H376      1.0  0.54812  0.97793  0.33038  1.0000
  H   H377      1.0  0.58387  0.99053  0.41894  1.0000
  H   H378      1.0  0.42243  0.87745  0.53643  1.0000
  H   H379      1.0  0.47869  0.88012  0.67150  1.0000
  S   S95       1.0  0.59998  0.68058  0.68321  1.0000
  H   H380      1.0  0.46392  0.93372  0.62893  1.0000
  H   H381      1.0  0.44231  0.80673  0.60089  1.0000
  S   S96       1.0  0.51871  0.79739  0.73586  1.0000
  C   C239      1.0  0.46431  0.89360  0.63072  1.0000
  H   H382      1.0  0.49317  0.88301  0.58771  1.0000
  Fe  Fe48      1.0  0.53217  0.71773  0.74320  1.0000
  N   N24       1.0  0.41225  0.87389  0.63603  1.0000
  H   H383      1.0  0.42508  0.80666  0.68475  1.0000
  C   C240      1.0  0.41372  0.82063  0.64186  1.0000
  H   H384      1.0  0.48191  0.88874  0.77932  1.0000
